# total energy = -340896.64051293145 ev
CRYSTAL
PRIMVEC
9.03221024340283 0.00000000000000 0.00000000000000
0.00000000000000 9.03221024340283 0.00000000000000
0.00000000000000 0.00000000000000 13.21955268102879
PRIMCOORD
 96 1
Ni 6.461173630748009 2.0624871757998156 11.408500931131485 0.22669519417184184 0.005426313221893881 0.5083016956695826
Ni 4.702439690019873 0.4863655613088395 5.968033008433304 -0.389597976478071 -0.600843668864062 0.0589008881012663
Ni 2.517069292003281 1.4153563987204045 4.843723331222318 0.9917799045375822 -0.07213049941766288 0.059193222530704505
Ni 3.326445664134508 4.242835664845256 4.836915754259085 1.0703145077093763 0.19491790176024495 -0.43477637278692216
Ni 5.138641258100505 4.552667577502521 2.6990891052395285 -0.07288923196055834 -0.21808276991248246 -0.3260235941605353
Ni 7.498405574129705 6.194913100962757 2.424333781592102 -1.2738738871947028 -0.7971725920392206 0.689645715400135
Ni 5.074864820608947 4.436133999182722 11.469601124687516 0.038207364307656776 0.20448883327813167 0.11761948498839744
Ni 5.414801090461986 7.972352749387399 12.487982845006632 -0.2710387532842235 -0.5090182621206331 -0.34767896764678186
Ni 1.8512689360688843 6.355207738572543 0.357659273060225 0.3580988774285252 0.7300763126113555 -0.09644027980762102
Ni 2.7487274238236328 1.538429297355156 0.6112169021673681 0.6140830503724715 -1.3344827591260113 -2.2564407577744494
Ni 0.5488088445483443 -0.18245064967136246 4.533315163542824 0.550095234666601 0.8445672792731003 0.6284832849582015
Ni 8.776237537607726 2.2361404525612816 1.3119511381876028 -0.11307531726114076 0.5301002796019129 0.16558110046934063
Ni 6.894358440561799 0.6291241624663009 4.698176486720621 -0.6436471371828334 -0.9484043657654246 0.043195818661183674
Ni 0.8859695161516803 7.304556274959072 2.651815419332848 0.20605386377240645 -0.21323058402650372 -0.7153950564500969
Ni 7.698143874467949 3.676958652342259 3.81247974332241 0.027692323708945855 0.9484545022770698 -0.31756337920832406
Ni 7.611615299029747 3.8668337789457925 12.692146025209926 0.47311974845181104 0.11266625474818016 -0.5178507728105984
Ni 8.223610777731851 8.74059643544915 6.686013346952673 -1.5545887301161097 0.4479363072076479 0.4364447616282806
Ni 6.8096543716203115 0.6725203204569458 0.26699665493120345 0.5429334268108392 0.11226464843438731 0.42010797214147
Ni 1.8109220523024498 6.502134704820269 9.253065987976564 0.49647487823798364 0.18263522773815 -0.5113610513211967
Ni 9.1548677967277 4.790052130703645 1.4953691375906386 -0.16251865949393304 -0.8646079999740593 -0.6855728308823419
Ni 6.112584503351149 2.148148659041558 7.169690922452492 0.7008865784212768 0.007524076291187042 -0.5722766558596466
Ni 3.612640282227914 4.328461019245479 0.4466003518908623 -0.900501371436559 0.40606126424041683 0.05306474103546345
Ni 5.851914911790975 5.5062341561364025 4.787051630415486 0.378370997414 0.3324343827828855 0.4736403968419714
Ni 5.284330811526202 2.835815996305379 9.51897697122012 -1.3083616365589275 0.0815744184393821 -0.8568743787752275
P 0.26166945724921487 5.527116626534431 12.42653852423513 -0.5144571737480172 -0.2494492000389059 -0.7517088032794667
P 3.9589532926090714 6.138001143359824 12.522380211795912 0.43754236556783355 0.7907394348193673 0.6424405184692419
P 2.2991762488016994 8.37987704951226 1.282709357083096 -0.06596653669879605 0.5170614441400837 -0.3178246032895107
P 6.484196735006044 7.663378896716212 5.812729570279379 -1.5662132017289156 0.41569518778575504 0.03523568327384255
P 4.70095840751759 1.1607293559042966 12.593659706449944 -0.18288411052416245 -0.32119300554111135 0.29399047698439046
P 4.035130954952055 6.324434997808665 8.275968694861305 -0.059498926696581404 -0.6333321284100706 -0.4953407646335405
P 4.68054561205931 1.033203577552318 3.767797398573686 0.5372662012227328 -0.4639126280312462 0.26043938050182247
P 0.17386553370539068 5.49452841148422 3.6779964533148943 1.1889855738907396 -1.1930191205301648 -0.3261187249775029
Ni 1.632337188673629 0.981430947655474 2.591283351809703 -1.342809533824152 0.2236728624057503 0.17862790635096978
Ni 1.9564490259413108 6.610168973172703 4.849420849529877 -0.18680787105860086 -0.6239365461277835 -0.193022484509745
Ni 6.040146176105392 5.831827275906366 9.18642633979462 -0.7402110870525124 -1.0253122319670729 -0.24867915464210075
Ni 8.609864222412353 2.3965976699579032 9.902833267265832 0.186782160026988 0.6373481915479992 1.4248025278581913
Ni 2.556675534518574 5.293751406952303 6.9720056435335716 -1.1906531914011493 -0.2145318193364305 0.4231439307543164
Ni 0.3308408340006107 0.24329252201053397 9.142616506568581 0.2811766130491738 -0.8965418725681785 0.10003622468899545
Ni 1.316733693583691 1.2111652186649344 11.372583443335287 -0.049105242167083174 0.12080328203301778 -0.38574055040519367
Ni 3.9118954765304674 6.882300439704806 1.650011417944764 1.1432358784594505 0.025342849640162805 -0.678910845481134
Ni 5.805245480758702 7.959156690022554 7.932286767363775 -0.48742382377930893 -0.0011685663868044392 -0.3466487266100546
Ni 5.416155922018952 2.848461090837058 4.824792721487357 -0.2589393989175282 -0.03232622293653143 0.12463756817744343
Ni 1.0099727324555485 7.473332158115462 7.020164486057469 -0.15751529274207066 -0.5064998665741535 0.7390821156543916
Ni 4.98506658501327 4.6158478891090144 7.080895262208969 0.22262925163258435 0.03444635460332777 0.2415782819312614
Ni 8.111530079129281 7.0911251436850975 9.209057446122172 0.6786244245889668 0.8514812327841141 0.0363217172491697
Ni 4.7167557434718095 0.49669570032018295 10.54596458158908 -0.7189231242080135 -0.7505824029845073 -0.000398263879683185
Ni 8.12767063907793 7.050868582022461 4.656217353401399 0.0756649949334826 0.03004616865310309 0.20714272596121103
Ni 7.485525642128152 6.020067572431161 7.045123192999888 -1.5163543692252595 0.7360744391763194 -0.8675948505165253
Ni 2.333887033291157 5.180875873836312 2.4541969787707374 -0.300889775207385 -0.6264235742156954 1.0944792778810377
Ni 2.4273071852491226 5.326691878207326 11.33316236113278 -1.2177508189488897 -0.811753575177189 -0.1012443860644837
Ni 1.219673560842678 3.235789368552753 3.8177410058686267 -1.0837274386811724 0.587445136069969 -0.559828659904281
Ni 3.5658805290918423 2.662153687333533 2.823392190928005 0.533595694349681 0.2600696558672295 0.2613220402170919
Ni 1.1799679640132075 3.324178579329186 8.150978257962928 -0.5241101234567489 0.6591025525059552 -0.8467977112655158
Ni 3.604619679410678 2.6284996714585085 6.970141395311186 -0.03745043153697421 -0.268852287155866 0.4672056969602212
Ni 4.242013733700697 6.988266331880272 6.112020893423452 0.08819115242495133 0.1910915860356193 -0.5769524640687612
Ni 0.8210577298153844 7.489255945014998 11.334735772180938 -0.1671931821514669 -1.0585846208669576 0.2709863027797333
P 0.32145094808980135 5.614981969108839 7.904195689861651 0.7848899180171256 -0.8755794113838985 1.0528613452299351
P 8.198681877083684 1.6150134091652295 7.901075964396478 0.7525909487741038 -0.05182289820856236 -0.8438998208924305
P 1.7241134783424763 3.381876339235159 10.262167112130467 -0.009093220550519823 -0.4091185630095019 0.8915259074108259
P 3.8474416232604254 6.061137033027978 3.770203579418857 0.7074981702005235 1.0182748655043175 0.3404107161201428
P 6.862185707189057 4.006029173108435 10.238927234823315 1.1435156144833982 0.619980389693513 0.8263538415888672
P 6.181951879067786 7.791527897584395 10.254380443562066 1.0689111996039462 -0.29956411441742603 0.5163124817892011
P 2.471592112741137 8.522893068665544 5.907990486712742 0.5219431977124172 0.5029951958550047 -1.0470946179494869
P 6.8449793464155935 4.018249753752264 1.470331850417915 0.6930408571246129 -0.5082060506319829 1.1875794375718323
Ni 5.129076147308329 2.693658037138172 0.8146267960249878 0.7534874924464443 0.15079751440226288 -0.5574910129100399
Ni 1.2162413208983656 1.0838923422035895 6.944839464374336 0.5655105407804067 0.37929016679415967 0.2143094189129793
Ni 6.821251729747938 0.7043678942560163 9.291031981086894 -0.30322356554688423 -0.15786290588947652 -0.09972152166205406
Ni 2.8136599842438024 1.6950478253403751 9.285453687956345 -0.18119335308530088 -0.36908005903037727 -0.1838837554332704
Ni 6.512639165491941 1.891055822791773 2.6229837005795824 0.038579402935094854 0.21802414876040516 -0.24418538053680527
Ni 4.102917693852231 6.935391772317096 10.431232026019009 -0.039696804368989695 0.46264893082747416 -0.26178201057264594
Ni 7.988448148284149 6.9705361029047825 0.20504562715739613 0.8049702337067685 0.9615450169124408 -0.04151483141433495
Ni 7.660425363922027 3.827435277269234 8.129125728170111 0.3319718413241702 0.3810030357202084 0.18683718163463953
Ni 2.8624700491360815 8.469783671632495 12.133513748652542 0.7648630812732375 -0.07635816434576526 0.9440219204270128
Ni -0.03184396091491859 4.900199936284947 10.234180808268746 0.7926983583179509 -0.3376377813606959 -0.3996036815405311
Ni 8.300185857331545 2.1741523927249173 5.740049179795443 0.6780333279721871 1.0259670919422526 0.24910672909782258
Ni 3.364904815931571 2.7575428611542887 11.679593693469913 0.6164371524269449 -0.3223032078861546 -0.4568397803448649
Ni 1.2139561716722835 3.4361599236175793 12.599079935898844 -0.867806452306699 0.1949922066416061 0.23254008298839304
Ni 3.187566397335158 8.47980039294366 8.062605305165178 0.48224793600532434 -0.30352772705086434 -0.3670943960589162
Ni 5.646088901656768 7.68980714428742 3.6143049186009053 -0.34140239060945077 0.3715352054390892 -0.15043396041525703
Ni 3.163396202358893 8.32907086612605 3.4792544057815404 0.30068691516795953 0.14429905116211278 0.7165039732435596
Ni 3.4254928831590705 4.324667490885975 9.2228857602136 0.2793832685941769 0.34716140458041495 -0.3177173882876851
Ni 7.181275635485585 5.963562064295318 11.368762818344647 -0.3245992030091829 0.7148936913336462 0.23505873564518873
Ni 0.28765873939596626 9.070958562299634 0.2604871409105029 1.0573006119482113 -0.5675139443636806 0.16240295985167513
Ni 4.786665051811232 0.3912130314000341 1.6219727272628426 -0.7898061243718205 -0.9786909325641081 0.230116561148565
Ni 5.856421984770481 5.701636995492356 0.4171652814842285 -0.11191600684571694 -0.024852026046673328 -0.15346657659399376
Ni 7.961568290193952 8.746060922728912 11.274678798923768 -0.9288436700246778 0.44692123567957226 0.308535721788417
Ni 0.15063649505069712 4.731035668082226 5.809966617124208 0.10865096294119997 -0.3203391421812483 -0.0630485917210527
Ni 8.029093094993115 8.673225178226444 2.4928503230909644 -0.7405646137371891 0.7129859327879721 -0.4532104111223937
P 8.579344383539109 1.5624188481238264 3.504318789585403 0.1816818626859452 -0.01702507380308681 0.2579842340931105
P 1.8938467757991222 3.145891778642898 1.5558090765679102 -1.1446826382083062 1.4497993070128452 0.33545002968075777
P 4.7534716786655755 1.0326435805087721 8.399056045032664 -0.35358196339477815 0.023082849961392506 -1.4134562496074368
P 8.4475463696775 1.713545792198145 12.29329806637587 -0.07118356212336127 -0.06021343626510275 0.4202928344587665
P 6.2468663750671976 7.720326983160665 1.3818794141688233 -0.041320970235974 0.3884288958706342 0.39161629245968044
P 1.8152936421262587 3.2641866379867506 5.944806679441725 -0.550875050255419 -0.9660835282127426 0.8042513532628729
P 6.864172793472607 4.041435437797134 6.08797443972939 0.27507667079902304 -0.13935404845201163 -1.0378047080071289
P 2.2120605796888135 8.603388127570058 9.966657575472404 0.10629737510735887 0.2843519254533619 1.467590312447679
