# total energy = -340892.54021630285 ev
CRYSTAL
PRIMVEC
9.06715372913145 0.00000000000000 0.00000000000000
0.00000000000000 9.06715372913145 0.00000000000000
0.00000000000000 0.00000000000000 13.27069600453195
PRIMCOORD
 96 1
Ni 6.39237951316474 2.00154694213448 11.360856861525331 0.07622369565043002 0.6623128319131368 0.7522479636123882
Ni 4.6959241532893214 0.35091788295733517 5.919486653947842 -0.8169376904812898 -0.791390695250121 0.08938003052672994
Ni 2.787850496981894 1.5680826000791819 4.689027676308037 -0.03923940511659694 0.2082117906556737 1.0075492515566973
Ni 3.5154714341289797 4.38816682788998 4.742999907745183 -0.834627394451569 -0.6284789140828273 0.8003458475608797
Ni 4.7429010757716155 4.677599435988277 2.585649346214836 0.8932860846350422 0.11611204720493551 -0.2660654684393482
Ni 7.332117440188445 6.208515773713681 2.8344085169707145 -0.16669798768260324 -0.9381140395830101 -2.1432659388209667
Ni 4.899418280150952 4.745720960522048 11.26441861649123 0.5330423929493723 -0.6415324048326757 0.590494464419254
Ni 5.894493045219327 8.257311652936606 12.396263232247726 -1.4027249792328615 -1.588495924386516 0.15282817167904647
Ni 1.9461647683221184 6.553584435923414 0.3471269060629428 0.45448387851817856 -0.6300136055597989 -0.23082644273139602
Ni 2.564952661548154 1.4893343715984417 0.3410419393233429 0.6829107106691464 -0.7790671406877615 0.3939346561802119
Ni 0.3338680074437849 8.89863142270549 4.7941586014393724 0.5700071430991795 1.4925372122010037 -0.5325803657112892
Ni 8.748225479811014 2.4593747257473777 1.350425579390619 0.28393360696902065 -0.8018229463270384 2.0737080852264866
Ni 6.88823493871756 0.6732606315384985 4.735608364180703 -0.016552247931726334 0.05751480638701708 -0.175823089912323
Ni 0.9582983903167476 7.26558266752389 2.4306209684465 -1.0789246179758902 1.1333422734948224 0.44897888953954934
Ni 7.641960210901612 3.6257370883090934 4.100538583345819 0.7714934421055616 0.3633588402758839 -2.126170673901577
Ni 7.734989206205285 3.655713097906943 12.98581408888929 -0.9649105909505641 0.5300696834742936 -2.043186519598862
Ni 7.979793284587727 9.037231931693007 6.865368484209147 -0.3199858726068876 -0.22250661001179098 0.09292249646234964
Ni 7.034007566153929 0.6619683985218129 0.4224323363451641 -0.03146310360528775 1.0990872089666943 0.5363855983899923
Ni 1.662453534106533 6.554881038879401 9.166547675457235 0.951770196913864 0.28261668792981004 0.34299647456944804
Ni -0.00835900884702296 4.9651007403829 1.2334937539290962 0.4008977177616063 -0.637443836585599 2.329758335521678
Ni 6.256254337093198 1.9156356623584279 6.9152668435615015 1.3348918216389718 0.6049818594021517 1.0820423376692654
Ni 3.400472725801838 4.002812802509271 0.20257471749283887 1.5385841271577374 1.0078726963343867 0.6248847689736657
Ni 6.069189892443093 5.5976979084478735 4.66276466608415 -0.9721819278009967 -0.6529452746553077 1.2645698361849576
Ni 5.242700713113626 2.72925855081695 9.2695940619901 0.19074500132947794 1.0919415990608483 0.47728467846277806
P 0.12272936343395593 5.650931166871641 12.546646507258357 -0.006585109416685433 -0.18188035184999646 -1.8336678372063064
P 4.008815258151672 6.04139906684799 12.772314358098068 -0.42379750517791526 0.3096479810159893 -0.7118944994960063
P 2.455058760663114 8.430458016905312 1.4236936202727686 0.3348897863019136 1.0141960674492532 -0.9036879966946565
P 6.377318971137509 7.793762495440997 5.691177541282403 -0.4907873409349031 -0.02021786970877163 0.7852470442462283
P 4.603013030981649 1.0342720698147467 12.702444686362101 0.37269065919977107 0.4698169093308231 -0.5700945606066633
P 3.865354754867587 6.364044658357336 8.010723158737813 0.2386647078288922 -0.5042172411875638 1.1359791968970372
P 4.851715985385589 1.0612015158237045 3.7610217392476297 -0.6688532041348159 0.16335529646261543 -0.14793844768691297
P 0.21608477626500963 5.619114525105502 3.5791863220431033 0.4034119995430278 -1.7706950930285117 0.32442385377358324
Ni 1.510098153201308 1.0200457059130448 2.5963721619893123 -0.48430918940972717 0.10755310189133091 -0.34599875173088157
Ni 1.6338466646929766 6.8042005597239505 4.856278577046097 1.1089797854900578 -0.9560374568306502 -0.1591389443884227
Ni 6.149098716576746 5.719832466609712 9.217201328699337 -0.43508079140121847 0.2734494196082452 -0.010754924523658897
Ni 8.630497558268823 2.2991309212637714 10.23576727515492 0.41162204615764597 0.2552447236747604 0.5963990028291472
Ni 2.143230283325044 5.4324036994433955 6.9496775979549685 0.49055517031943896 -0.43823450653885176 0.11189569513074277
Ni 0.641129359544578 0.13658397404058473 9.090639279464712 -1.0120016309010957 0.13184437033852778 0.5496146954857567
Ni 1.493886082674703 1.0073244894987121 11.544376955857285 -0.21212346700525403 0.36672492853463934 -0.6447275147312057
Ni 4.283976166580574 6.95886806478146 1.5623059165598865 -0.7265693278993616 0.07293654025872601 -0.2078369238147582
Ni 5.78090881284417 7.905941319017706 7.824455716883732 -1.3338106727596515 -0.4218113279858219 0.10088520295285205
Ni 5.298382102992753 2.7999460798020794 5.038856594125415 -0.46690307811813786 0.5649137877366722 -1.0443427662359626
Ni 0.8134107170657239 7.66727570358074 7.1423020211548005 -0.9624495310045813 -1.3830210730460308 -0.329020214895014
Ni 5.171015797239275 4.617665551099654 7.143058221759901 -0.44518137017033016 -0.38558885531867787 -0.10291843133279695
Ni 8.221605202302507 7.2699711698364595 9.282320718696555 0.35774817895732586 -0.040332638180775704 -0.13490475443140637
Ni 4.709987308427333 0.4084217706976753 10.559492764650685 -0.41030409867717077 -0.4728487541786115 -1.042413924644366
Ni 8.177294022960494 7.01615434083688 4.862462375759264 0.2752967572296291 -0.14292016853671513 0.40726145519610507
Ni 7.358058566461721 6.106356154796871 6.9104494648865655 -0.05862243762889904 -0.5980763905315699 0.742523794346089
Ni 2.250005083392885 5.200982739683587 2.5109885905491933 0.12072717737944368 -0.25177244885544375 0.03019529263645768
Ni 2.163032946652843 5.354045358564805 11.164105070034832 1.4250005028016102 0.6690969447145058 1.7991044974091404
Ni 1.1499870832714199 3.281475402764275 3.7097433591267337 -0.43887548255696035 0.24794741868239878 0.09019404178759305
Ni 3.556210154976875 2.683532895522952 2.596478247685711 0.016218004520759166 -0.5288769487177731 -0.18965742469225402
Ni 1.3413946944664026 3.378085923715603 8.218462526886107 -1.07178595004858 0.1956810051785146 -0.18457486796302405
Ni 3.6493751575836226 2.454224582537584 7.075390961618401 -0.14463895100003477 0.8845595033953217 -0.13122859113139979
Ni 4.144550546621065 6.865666793560559 5.899886188143949 0.22657332388199689 0.6174843627445366 -0.08863646749248606
Ni 0.8860096020167418 7.404310116660945 11.497797174699972 -0.613300406570176 0.9149692260354307 -0.4302743711515106
P 0.041947372414559404 5.59621089526758 8.11138125702867 0.6186017641784314 -0.43966378278621054 -0.7632255456698146
P 8.518264331770883 1.7284170760981716 8.143867961441295 0.08562801968346542 -0.026890396632940784 -1.0374712359271099
P 1.843887276409309 3.4018600002932087 10.412519646085835 -0.16509387642027695 -0.6163222241156353 -0.38734311900562324
P 3.8209619711437295 6.251956506316011 3.802704350778869 -0.24800809671700513 0.41281041003879226 -0.6045882235081588
P 6.945620953461902 4.0318095595249765 10.416341451302259 -1.0204297070637909 -0.5461408780045433 1.670740629420045
P 6.396704545402543 7.715068669881487 10.254373074215653 -0.6946393119599844 0.3373230783337545 0.5971297103475844
P 2.244646395651708 8.632981958338336 5.812949413302707 1.9916978648012666 -0.4188715286312076 -1.1422017807679814
P 6.714472008308245 3.8469121645705435 1.966399028158344 1.3696042854194928 3.9357434178318926 -0.8426978301645295
Ni 5.5610484738457835 2.695800754260366 0.6438331847297198 -1.5196181275781957 -0.06930202882993226 -1.502497151627193
Ni 1.3855154635841092 1.0643206166409036 6.909042242657412 -0.44245522948841864 2.1307891465101947 0.6903748802566756
Ni 6.86822373085838 0.5651003704099948 9.032991223983112 0.061730130019945297 0.31642206651502924 1.4495684219489615
Ni 2.7335835830547524 1.6826098164223284 9.413979414935095 0.33333452599965174 -0.5265981799859253 -0.7621899053164486
Ni 6.582245708258201 2.0206423674862863 2.6858160047839132 -0.2928710186679666 -3.1396180361102637 0.7658668399474036
Ni 4.237307527318586 6.974789986394836 10.375971763603374 -0.4081232889757681 0.03216141522389299 -0.6039554750201663
Ni 8.23921361447402 7.113381428228817 0.5787854252454562 -1.3735882097679053 0.37967634648898485 -0.4362719834958422
Ni 7.486222781726576 3.751752388185354 8.369071574019841 0.8080887247310923 0.032463005624711834 -1.3868227061803085
Ni 3.2572389013562133 8.197522842504595 12.311994013977474 -0.014037966150304856 0.34058940778985214 0.5996288226203544
Ni 9.063209326580436 4.781599687073377 10.26732459632986 -0.34056806763361347 0.45547555300748654 -0.011337536500006282
Ni 8.598762520884529 2.3239658548053654 5.928311714486737 0.1677940489602594 -0.3569318537036175 0.1599997497268212
Ni 3.619616759670693 2.6251313595823125 11.47688287834837 0.4325495403389325 0.13371227678520198 0.28123240598777377
Ni 1.2786409248273465 3.6567467534103173 12.666069986512223 -2.0015338770550817 -0.7291743696223765 -1.6180664389547812
Ni 2.8173912832099024 8.55603809341173 8.13120749495567 2.4945369946943816 -0.4188928687874463 -1.1938848109645697
Ni 5.542497077706279 7.715422288869483 3.6249174176292245 -0.09548845741731297 0.8768906739961544 0.23752030981180383
Ni 3.225249983672845 8.521755185883157 3.549751621511494 -0.25290013470198375 -0.6629715485430583 0.28504303798311553
Ni 3.5713523013859523 4.551928687946474 9.334129527299444 -0.31793670338734276 -0.04946468238903094 -1.380571068843642
Ni 7.0677917802378945 5.973014594861607 11.751997544294229 0.9653587342315761 -0.01983940332343035 -1.0198393817779599
Ni 0.37190380982189164 9.09027477989247 0.3933820831235816 1.7897220277529757 -0.7818984394889695 0.7782490156618403
Ni 4.757598931657312 0.4100765262184278 1.5583245294411885 -0.58474007843398 -0.002306279535673447 0.35050949511704155
Ni 5.895825916789467 5.312535929666149 0.4445453103945399 0.009047712024565063 0.23762598215173267 0.4185059177616728
Ni 7.950043953828336 8.996692688222957 11.58414911813799 0.8419167290241306 -0.3327771108342849 -1.4862588353914599
Ni 9.290749544625822 4.629362179164151 5.741194680346111 -0.7706722317558469 1.2180554946735023 0.01644529004021684
Ni 7.977499294742519 8.795256805214537 2.475980310737548 0.4739653842815579 -0.5255262870779853 0.9214090681235034
P 8.65703711667563 1.4854264284234042 3.555816640513309 -0.1995325177141209 1.1491555863779952 0.7418853894311416
P 1.7127943705515611 3.2619175525820117 1.4026596374944584 0.9393756799042532 -0.20288086536106348 2.219657013287197
P 4.787493336873317 0.9841941808223312 8.21040726768262 -0.6138922745179041 -1.3397974864707056 0.09051362991054089
P 8.794993857761924 1.6703872934526063 12.60417487631325 -1.1634761167657253 1.1806881097686375 -1.3572871586150368
P 6.278550467644049 7.83628744553595 1.5313715088330306 0.9932346347062377 -0.5817833097985012 -1.0504931021080746
P 1.86996440998566 3.2466756674840123 5.98042608616387 0.3539128643716356 -0.3652061778972678 -0.30691489835554236
P 6.974391031639149 4.041520480964571 5.997080633783147 -0.5174689639911475 0.059915445408709724 1.5078841269707193
P 2.3763377336429885 8.57606743557799 10.173368031219214 0.8925520346824951 -0.5776775151602438 2.1093474316966514
