# total energy = -381170.07747661317 ev
CRYSTAL
PRIMVEC
9.22926413582449 0.00000000000000 0.00000000000000

0.00000000000000 9.22926413582449 0.00000000000000

0.00000000000000 0.00000000000000 13.50796097109448

PRIMCOORD
 96 1
Ni 1.6875525242598728 4.347804904079121 9.139175635282133 -1.455197338099965 0.4594659051138023 -1.3125628191244687
Ni 7.2681471819895025 0.8768225659908749 9.290343601600371 0.9876581690597249 -0.06645530340975653 0.9660264497225621
Ni 8.711927147494148 7.942649507038091 8.423199765112642 -1.2060620697570519 -1.6035008824357804 1.277603272330148
Ni 3.2490425270326875 0.6792720088544681 0.6081826774241867 0.5608727848980792 0.9644598765663907 1.9463135231291968
Ni 2.177700294311464 5.886304809405252 1.9745531112851855 0.3327084623798786 -0.472717885027702 -0.7740552892954669
Ni 8.673191925100035 2.0399350656536326 3.5840805119705843 0.3286250363391243 1.5689737951931881 -1.649305599474721
Ni 2.748511834609551 7.135974887515812 5.562321637282143 -0.45897173908620315 2.0519838061755173 0.05457192170860924
Ni 4.316526927263861 7.876567974433411 7.192165417537749 0.633163206932374 -0.24426791294828257 1.1420873666773041
Ni 0.7766822792282257 5.836309884528219 13.49899242688709 -0.7661686874585386 -0.16160900319547006 -0.524847772953722
Ni 5.313813542999057 2.379156676112438 4.32229060283811 -0.2354883669834396 -0.393592956570077 -1.4912699154528057
Ni 7.564083542739376 2.2348848161017716 7.298999689719138 0.449438088564155 -1.572088686673086 0.43093591599490944
Ni 7.995071728433984 0.3696791056751052 13.179502060639953 0.07969905579354017 -0.44421669226421556 0.047819947696756356
Ni 6.948076295015993 4.39589860050412 7.114494697713558 -1.5585050344513804 1.5296626562983913 -1.4171025881107724
Ni 6.449216099436635 9.282978648664821 3.8113520690297364 -2.3663942415771566 0.7875803203650953 -0.8262851931344608
Ni 8.3761388233662 8.197829436505526 10.836585936773158 -0.5690959441388198 0.7569057740993738 0.5185961356170553
Ni 3.667857313075678 4.0244668575326985 10.135104626234348 1.187433398912271 0.9438406576541423 -0.4603722189781555
Ni 3.3788059835161808 8.704479131179625 9.370756335857084 1.4749801771538469 -0.26624133189558025 0.9323835648571362
Ni 6.468920578781745 2.0430176399399405 11.827206254882606 1.1277879193354965 2.4376248548883694 -1.7725367742229408
Ni 2.6863711978738922 1.482552104956078 8.0508257142531 -0.33516643700206794 0.39921467363222857 -0.91999470427448
Ni 5.104761476654277 2.7643953985219327 6.699921681556756 0.7653652177206367 0.8661866573150888 -0.7866724638388451
Ni 9.151323192993624 1.742291291002661 11.510512355727538 -0.2817080600726116 -0.14728795858710764 -0.6158373140594168
Ni 6.5095293418349005 1.851353507593375 2.1024873275784213 0.9008387001713195 -0.5971633917989974 -0.3744415804526067
Ni 3.6472575950905317 5.790652713886409 3.9733939545818906 0.2513880689328316 -0.3834725803066234 -1.4745652011036152
Ni 5.459783587646492 7.322276817286494 13.33418176203586 0.38406984757099016 0.2877596655833302 0.3766884675052545
P 3.430102234663781 3.709684339020429 7.782125835468266 -0.1559237798852347 0.815640311826105 0.10749319518767293
Ni 5.824247236048566 4.146606941679395 2.344319894971428 -0.6306656373215009 -0.9145586208605733 0.2741734422584633
P 2.751012965243052 0.13306199555512935 6.240543355855827 -0.2792796531367771 0.19960605126453365 -1.0686877707392304
Ni 7.854473115626762 7.610783620250506 3.8296149372864603 1.5999085370988317 -0.4330359930570478 1.0838323396901526
P 6.537494012755596 6.576847595859837 7.517680647539681 -0.22423644821870414 0.4124609971191735 -0.24489783322279757
P 8.202610195428601 7.16477019222623 13.141435959909787 -0.23778384788583565 0.7366459954090734 -0.36456365921726247
P 5.487655965923885 0.24429678096918744 11.015647508676752 0.005021878694623609 -0.7864150964124005 -0.2833162850999959
Ni 2.1280837692719716 7.677391220922011 3.3970900790808645 -1.391548908011384 1.0315780103711265 -1.6290401643574655
Ni 4.295115034017652 5.425819894911125 6.099317153074148 0.2487470317655587 0.03385242977307073 3.524255583259266
Ni 1.589962283231675 1.487582054016071 2.3618536513460615 -0.2539614860869626 -0.5430262436349617 -0.08072955394058354
Ni 5.629103671049491 3.0646787427713598 8.795952215809725 1.1792176958706981 1.0726385278568624 2.373828072147383
Ni 4.434043149981096 6.881930157561 11.207555293601633 -0.8246072912114056 0.39456200535156566 -0.7272337009562378
Ni 6.60437849135701 6.154534918635677 11.552494433313038 -0.13766766188852422 0.16866025361529663 0.3176345987658917
Ni 1.1645393439282163 4.072477490578725 11.488777438229771 1.6208260039777893 1.0642641877502381 0.34727967532583415
Ni 5.73553554730608 7.309291242373814 5.356919744979982 0.5034613368581459 -0.14913632464975607 1.3271168056792433
Ni 5.215005039079264 0.9147760696962142 8.16672404693324 -0.5261508080358617 -0.8133558866673023 1.1420608843147428
Ni 7.7944090633654115 5.98880501905715 5.518042395804842 -1.6897145994193867 0.10058618365519452 -1.4154377988138396
Ni 8.526908085465372 3.883748264289183 12.684880866167484 -2.169940619898676 0.5227047584687902 0.5613857199787556
Ni 0.6569611852624911 6.392548416448821 4.494841851683135 0.16694352803450604 -2.5416912837826806 -0.4260850156605114
Ni 2.517484889894415 7.399894930304003 13.200546629165817 2.691647276120255 -2.1241032498495866 -1.906262163634265
Ni 4.961569440570251 0.6032524044189604 6.028522235176002 -0.568644458423698 -0.6337730726022311 -2.746540842834341
Ni 2.9665070580903556 1.438122426470193 4.094128421771089 1.6134240550867633 -1.2838783067055823 0.004870697828739999
Ni 9.168286580832646 7.880185846050874 6.015568039762044 -1.66669911236082 -1.3649403042849202 2.1132740204445666
Ni 3.326919059451444 3.7775563489051804 2.494285288147434 1.2330247143888249 -0.38954604019421296 1.1383813785806267
Ni 2.514088520620878 3.8588753969191254 0.3692047214885297 -1.5521502958779463 0.5849349680536055 0.034500861990347034
Ni 3.931454331612311 3.211747069874096 12.263419127114576 0.5251269947570375 -2.1072285855814354 -1.9747522380858633
Ni 6.246144596377865 7.862096487963559 9.559408959252686 -0.6875109284453191 0.058983934733375834 -0.04980021135157875
Ni 5.818035941154299 6.914435626532185 3.1520826447582464 -0.3809888946528213 -1.0591037265952212 -1.5961675819991605
Ni 6.725531044220369 8.779023899175156 7.201958589918592 1.6400467998806143 -0.8288023031293597 -0.6200960893357709
Ni 0.6249697863145015 3.2339988261743593 7.214440246998839 -0.23362303163992668 0.46585689624181065 0.9315929506350408
Ni 5.644664210710314 0.7063359035765304 -0.24631337522534982 -1.2858300311153146 -2.089601359417975 1.2993586617293686
Ni 4.689149245333887 2.632693796529084 0.841654454260409 -0.1743084530400095 -0.11629793796349648 0.5119246371341506
P 3.076538347435747 5.355280627634928 11.94548204605422 -0.2649724924854856 -0.20278959119883785 0.6631679808245805
Ni 3.3361760115746977 3.2684332113905694 5.430619112362861 -2.0091625972449334 1.5065936902940698 -0.47065457474077005
P 4.653690411777018 5.742789749069667 1.659736444494894 -0.3864866845425989 -1.3833573733395272 -0.632910981712252
Ni 0.3682845638348025 2.1487019457857786 0.4772332604742545 -0.1174233098171913 -0.1051177529769609 -0.05450275903357065
P 0.6083128100512435 6.231119354048196 9.225289286115649 0.12253492001214382 0.3049310351562942 -0.30129575239655204
P 0.017133206302699662 2.0691826043162354 9.173202087014944 0.15256103406058888 -0.4197526456845803 -0.45210355121146006
P 7.0790487851267505 2.9942871437244465 5.318341420079483 0.3694063320215444 0.37174809278084364 -0.5373729020039261
Ni 5.511495155688954 5.378889085791739 9.180699018430417 1.3590432220741948 0.7051566665515403 0.28680501497954475
Ni 0.9088647258926811 8.742623680656601 12.381586012967093 -0.6910893898251969 0.8488625642143446 -0.4803669169325276
Ni 8.91266364667736 -0.14876374296020525 2.350344758726224 1.0873295542101338 1.8132597058635997 0.7849454538454095
Ni 0.274252204205921 0.4509529302938315 7.418896139707148 0.2744192397206822 3.3386378758540243 -0.474357477513654
Ni 8.991739983459052 5.745752342919681 7.257962688801059 1.1907619490648718 -0.19732522565015695 1.694170064087579
Ni 5.136390165514087 4.842262740572945 13.13487118419167 0.35731340541275236 1.2356991758971945 0.8532812621073305
Ni 8.174350188049337 4.140266437084504 8.917699133295953 1.2083061285962222 -0.4771419822373267 1.9978379162607336
Ni 4.035523516200353 8.422645086326394 4.176229188473806 1.704909304881954 1.3548775207322794 -0.3425439604130617
Ni 1.93584742253693 7.936687402280742 7.6913929378374535 -1.1370238361114677 -0.5861421009878293 0.22734414060975036
Ni 3.9341585060610775 7.611328146845991 1.6384214585241523 -0.8002859408572217 2.641233856664709 0.6037137913230054
Ni 7.137506945394636 5.66595612352023 1.0543317756341164 -0.35535371058322024 1.8314299490147232 -1.4554778454548611
Ni 1.1352918052656138 -0.045514117044690466 9.755111817670173 -0.6305309115158496 0.9918904619735176 0.25544552683165683
Ni 8.799817431711238 5.945648979048841 11.09510132236955 0.9824506567168565 -1.2650570602340212 0.1456923319652136
Ni 7.937028885060961 0.8645153420064696 5.204063746215739 -0.6722750853321713 -0.8231139944953308 2.9901572382415536
Ni 0.7495916196396056 9.197949436390111 4.665879501177995 2.046666250617346 0.25972024294761076 -2.8829558632626866
Ni 1.9486114951056832 7.118836143654514 10.718256615868427 0.060786792270069515 -0.3581914371423315 0.3899527887143284
Ni 5.80474580051872 4.830264696943604 4.6954352972692295 1.062688615733002 -1.1920127907528375 -0.5140905344372177
Ni -0.14812507786855109 6.636597853133957 2.1431597725554554 0.799202992205688 0.4034338539198988 -0.7138050862551577
Ni 2.016797299977664 2.279942084562114 10.284461810890987 -0.6801115506574545 -1.2402708544282768 -0.9234518095851452
Ni 3.409031824197791 6.257524279297078 8.782039099831854 -0.6514260097973038 -0.3245025295303185 -0.12210066068820262
Ni 1.138042126036032 1.980923149525933 5.449030571775302 -0.00607705943201534 0.37839028068770963 0.029892159573742066
Ni 2.0166680902770406 5.4071121761136824 6.610701460349673 -0.9649607274622091 -2.221588168871638 1.0008731250881022
Ni 1.53040584050849 8.56760914116183 1.1290389786818609 -1.3968047570936848 0.013666955964131302 2.264252283399068
Ni 1.0400642559059634 3.770966654173373 2.5823167801087785 -1.6285092315546599 0.9316708550608278 0.20523393897427233
Ni 7.7177138767809295 4.98120008580072 3.2970771561659724 1.935134109473609 -0.12079222628942425 0.6681821462097203
P 4.519635347379952 0.6466059506839363 2.5178162204838714 0.2232296042207446 0.5438716223543923 -0.11926653367351718
Ni 4.203117727173593 1.6664636552652226 10.003712204596562 0.3207302069720799 0.045244730770412404 1.5311227857836855
P 7.9930505195456565 3.793070742244352 1.4097858161969876 0.7473389563465451 -2.033385731458356 0.5766398179243488
Ni 3.2351894012729634 0.2931998838759503 12.000026998246074 0.498279021326258 -0.6503050088189833 -2.6524284398289484
P 2.0670506442559446 2.1360209365959975 12.395054278404245 -1.1828272675988276 -0.8423838984685362 1.651853048486923
P 6.960378904368232 4.187095724296258 10.79174001846598 0.09013336375298671 -0.6971533366310897 0.187399996116645
P 1.203173044414696 4.074914016361914 4.866391729237985 0.4117403169030651 0.4870060195155999 -0.16723946200837006
Ni 7.02986603551078 8.443383243276495 1.54439186767457 -1.6170739931345246 -1.0524664237843617 -0.9635659039972116
