# total energy = -340871.09709437814 ev
CRYSTAL
PRIMVEC
9.24587146909229 0.00000000000000 0.00000000000000

0.00000000000000 9.24587146909229 0.00000000000000

0.00000000000000 0.00000000000000 13.53226748202557

PRIMCOORD
 96 1
Ni 6.8776617105574775 7.111036753053449 2.7038552643511777 1.7593110195612864 -0.6939142608685017 1.8815885721469854
Ni 7.9454859016729165 1.5966972867064264 2.5807659016775664 1.3813007479208146 -0.5103639775152501 -0.9451796881805398
Ni 5.032305955767905 3.1983873440220925 1.1104106752379563 -0.21884304511727468 1.1127040284191803 0.19631632476966834
Ni 4.773171915276854 8.422730050815764 4.170347565678676 -1.2994296241766201 -0.266092979243174 -0.6211127035257431
Ni 2.0803025954403047 1.180882707800228 9.025277948856134 0.25118623733467066 1.1389704183148772 0.4005017678747683
Ni 5.23019534345228 1.5484153457407765 10.183410265246925 0.12789001367647007 0.35836550082635055 0.06145913574674577
Ni 7.725896453581346 1.2968259363925774 13.267942098461052 0.7901704496897747 2.0214452712670283 -1.7844499807207592
Ni 1.0523003728693028 0.9900756576837755 3.1975256287984237 -0.3442316325281297 1.028441264514358e-06 4.4480084690245974e-05
Ni 2.3096649297058875 5.717055198953663 9.144510858527681 -0.3316733362471449 -0.09644927866868551 -0.7833164028824188
Ni 3.934626845583511 5.828948735829629 5.22151994222515 -0.4933198775487697 3.353615065989147 -2.5612902889605307
Ni 8.75447192018526 6.234657577187865 12.363133716911594 0.196193683148875 -1.51915095813379 -0.02437971439594511
Ni 2.089927547670339 7.776693271594613 13.020977474036448 -1.3436968215251117 -0.2627502880231862 -1.1308395616776268
Ni 6.339293104937436 9.04967410539232 12.27139895366401 -1.1093055442605928 -0.7905748842170449 0.014282735171259274
Ni 1.8117100284061938 8.117727241820194 8.945018236725453 0.5613846915374912 -1.0547817021810995 -1.1795326560079555
Ni 4.919589536328565 4.1326549213403645 6.07362038412258 1.5754568318143705 -2.383703936500198 0.875234369339654
Ni 8.374568306179595 6.846872958467165 9.96175159111397 -0.49873564924770225 -1.0985624468114759 0.32074486226009924
Ni 5.31584909701524 8.302505983719566 10.327081862463553 -0.4586873750765649 -0.6560714789891153 -1.953650680220558
Ni 5.554873366996852 1.818736890745124 4.2664260393563 0.7370339748761113 0.027151363603811304 0.036629221187259496
Ni 2.757100389137272 8.77529362280009 1.5297821409096632 -0.8457947239222982 -1.1722435785457102 0.8911153022359686
Ni 2.106246510865355 8.45382391666553 4.311772416121146 0.7134520737911132 -1.709385595485753 0.19764352822152412
Ni 2.3113569241901297 2.7089293986296057 6.88322864978678 0.7911814074527922 -0.9302431214753658 0.6104158859335294
Ni 0.7594706782887817 0.6746120696747002 13.141929191219583 -0.47668226899208865 -0.8827569029689442 -0.17445449169957053
Ni 2.7024665344520895 3.758761123808784 4.879208192558462 -0.07886164749390935 -0.612988531756712 -2.4387386567778386
Ni 7.576473924292593 0.2600854406682558 7.001352054878497 0.4156257680004003 2.4591223626405134 -0.2783702539486303
P 0.221216721475323 4.985466370756035 9.696789877817357 1.310892373400581 -0.13728251063496355 -0.29249692315799947
P 6.090486702910313 1.887794304968111 6.297808728697551 0.9202235324558347 -0.17465092398109275 1.3112816384191999
P 0.5215457424283523 8.857396961707591 1.5366157645342728 -0.44288974592267594 0.9267255952404105 0.6663258097272718
P 7.298552272916402 2.8943645974053753 1.1386669831248046 -1.0836577617855014 1.3020418649884866 -1.008197169553341
P 3.010187629668243 7.285987133549815 10.782740600005786 -1.0680987310049799 0.3730434145534995 -0.7610786745301409
P 4.0206781716209115 0.18331049750539366 8.649784615555298 0.31269345271053245 -0.47878208894391094 0.38643371981747643
P 3.5747220516293012 3.842334556284561 8.445163308832798 -1.0195344489430314 1.9533683730934488 -0.04563888088503753
P 8.9000389210591 5.4967353270137025 3.5803398431518456 0.1412126989273052 0.3354618567552997 -0.7462256686777085
Ni 0.7163793695824417 8.65187048416538 10.892676785885499 0.044329932265626884 0.45677910231025853 0.9605381729144813
Ni 0.6707010660307956 1.3593650112090565 6.0321027227453 0.09592014563809287 0.1500009866428965 -0.34449697037437443
Ni 2.7022261417931257 1.715784111608297 0.6034974490432764 0.2509458391890904 0.438271273314058 0.2514438618714315
Ni 0.5006852071532281 3.5046106080554744 11.288062611715558 0.7450198212950653 0.710546470108544 1.7295350738504343
Ni 2.7378782222916986 3.1947814541376416 10.36160317287785 0.8107153637206619 0.3961026103658081 0.4889767700887256
Ni 6.233335417563566 6.425002333729387 11.601280377537625 2.005117994861915 -0.3644361325004627 -1.4069467306236931
Ni 4.374517673872044 5.58024403838899 10.269272050918604 -0.31887952691658633 1.3708047334854974 0.7789599256859359
Ni 7.90395344690124 4.8664904963121485 1.77639449763017 0.9212409179767553 0.9463958199758282 -1.7307090395538773
Ni 7.173585073741427 4.337885530994621 12.879457391117542 -0.11455961511615109 -1.276493069985105 0.9564418913579205
Ni 4.958422196622653 7.729141754477352 1.7686538540115484 -0.24126409312495226 1.2911848676693247 -1.643773356802582
Ni 0.24134405914060889 3.1554587626541277 7.936485045769037 -0.4156180546909165 -0.46125924956879916 1.461371842341793
Ni 7.653972819193795 5.9739055091845605 5.318857703600882 3.160296647505538 -0.6390867715056606 -1.235124534340647
Ni 7.688607853827523 3.3760560107390454 5.86874111758527 -0.3807536387135636 -0.3726911734204033 0.05998537941469669
Ni 1.7261672253012164 4.9027990336871206 2.7364136762463214 -0.20970328759953563 0.7759442787880636 0.19900724133827016
Ni 0.12248653185190322 3.1631513277409566 3.772837038578241 0.3504318478015707 1.0278738220466621 0.06940178763259015
Ni 3.6196015118834692 9.173753700903431 6.256901294839179 -0.027053918793998565 0.02706471742727597 0.8601689903660992
Ni 0.34991925273572994 8.331991067928577 6.285765056483485 -0.0674264090737742 -1.505836757523387 -0.2618653143150716
Ni 4.389116904968321 2.114632516314578 7.640981445151123 1.6679540678138434 -1.5463573433452529 0.13688578941717716
Ni 7.77841300369335 7.129399053849654 7.452625475568947 -0.5898480890845067 0.3998330239425179 0.339299485333835
Ni 5.98540737332881 0.9937092851827224 1.2590473054493285 -1.6081273254641981 0.3649153861297264 1.7420897705869933
Ni 6.7996820303383485 8.225460136521795 5.247976078931223 -0.06019183899854794 0.07794967720260124 0.25575148810784987
Ni 2.39556832179931 5.076889548134118 6.777609361309759 1.3104750833575043 -0.44799338569782843 1.3654802359487903
Ni 4.285516914826593 7.31998420305014 12.536184070815 0.48888780991934516 1.530341941753603 0.32054174511035766
Ni 7.732692169132811 8.873013238668713 9.224838065520304 -0.01105882891732289 1.3295701523157426 0.7962369675988288
P 8.229158485121232 8.180025923977711 12.131109496241567 0.02230894790984545 1.3051989225602296 -0.46038404605269745
P 1.5851954225621772 1.544300932923903 11.380000784136113 1.0455259879107865 0.21287757156245918 -0.5017446112773553
P 6.355038824099538 6.124002987092711 8.976061250281976 -0.10862139525484517 0.7590377328407121 1.6034792851692254
P 3.459953048717273 6.778444263506081 2.999859991204316 -0.3801113771438744 0.5093049401231164 1.8457908457220855
P 6.578113965746079 9.361167516179899 3.2384746690785398 -0.2029402578440892 -1.9364039773249684 0.0355177332906356
P 4.7373719008343045 3.766814277884058 3.712686172369848 -0.27883125274544884 -0.23994691697542547 0.6088824800081385
P 1.9007662626806363 2.8126958144583085 2.433818492188987 0.671477014910908 -0.2590350439551281 -1.1843133652260507
P 2.6215374212249096 1.244540533068037 4.760340494811108 0.6818802125221031 0.3497440777059267 0.8692269868033095
Ni 3.401851992220118 0.11545689575152338 11.414291872350091 -0.7090279765814885 0.8418023149334536 0.026705020095012074
Ni 4.940947499490313 1.6906538328751226 12.825179502485055 0.6497720191336487 2.3680330627321604 -2.2279033124563887
Ni 0.3600397836780892 5.592346884180648 7.6346350789544895 -0.595357191828194 0.636048241789653 -0.23752776601097156
Ni 8.992275735129057 1.6382020038636078 10.220122847206387 -0.45928592789251227 -1.1028592744146166 -0.8355303658818126
Ni 3.8459866755265053 1.2252721368649704 2.8449694535112955 -1.038110669283322 0.7402619948951058 -0.13257610629822975
Ni 5.274778935818492 5.330855146457456 2.4532921467393223 -0.33506950641288746 0.569701953153935 -0.6147780195569671
Ni 5.584543368635835 3.9886967021072794 9.29244572709231 -0.4890952979444609 -0.4131541665314562 -0.825142080668953
Ni 4.915983646444114 3.7031287150017533 11.818297624178287 0.46876558524817336 0.29612089306383194 -1.3209340739072992
Ni 5.711258037524044 8.374743977738069 7.715963613830407 -0.41537071456680075 0.00843758924439192 0.11947942101527166
Ni 0.6603530866495709 6.802011989955994 1.2957867004361356 -0.8138117432577984 -1.4938698149694982 0.12047598060058605
Ni 0.32899954388301467 2.7864282935308076 0.6600109894041231 0.37418832679122005 1.4214302689518488 0.40838014218158053
Ni 7.650773747655282 4.321067290738681 10.62000216658476 -0.548815339512913 3.134197893535957 -1.3380398803496503
Ni 8.732901301979044 8.42045556642711 3.862298242024322 0.8750726469508091 -0.3770466221756216 -0.7518782389777954
Ni 3.092115297017271 6.180014476631183 1.0356568795846866 0.21104617478067522 -1.193045602892726 -1.2685409050175638
Ni 2.8043005631375864 3.7838359273129667 13.094931501805089 -0.18824280373291452 0.6950056941604676 0.0076014664963417475
Ni 7.346889689111044 2.657355927410457 8.869481315756252 -0.22354405013736983 -1.7072559507372598 -1.102683925179017
Ni 7.4990212587488845 8.653636445621611 0.9974483156167532 2.130310921322196 -1.9094960971905308 0.12236985518918927
Ni 4.450324574289003 6.351885981918518 7.809404240369483 -0.4162806279755798 -0.6286334373828206 -0.20994214308321907
Ni 7.342479408406215 4.803627815993218 7.520882197320156 -0.9644994715550744 -0.034777512690501396 1.0014714207937332
Ni 7.998677400404318 1.373307785428934 4.782912440900622 -1.208819320787215 -1.368252913597921 0.7653785874570754
Ni 6.623575915904658 6.387297669758127 0.37370333257870914 -0.22735262525018266 0.6894839930112899 0.8613987490081423
Ni 1.1058617064606489 6.189676412347213 5.1543052301918335 -0.49504894442473457 0.001370912205597639 -0.6737151602128074
Ni 7.094708543986934 4.016360349631068 3.717611448117148 -1.5016003508445364 -0.23415447866336445 0.38480698284733084
Ni 2.1113132484465837 5.429545578833431 11.419000794704324 -0.8555944836215394 0.06834043624761134 1.4423801317306386
P 0.5448804729165 3.7146213332745037 5.907538643567664 1.3066983899238915 1.110071990112972 0.07397706570809841
P 4.336877731001274 9.317434543991558 0.12134281754752735 -1.7705202580135442 -3.2258919169078446 1.5764639329226462
P 0.2829375366641769 0.404426438981382 8.086260767349035 -0.5286707462442379 0.6094887461335696 0.6443606183100903
P 7.076549652363699 2.4903847340173755 11.15799076688621 -1.153520033994278 -2.549570172310125 0.9510754848396845
P 0.9607662450332375 5.052859528109276 -0.1056377802200182 0.9796476400504226 -0.6843908947590988 0.5832982037811308
P 2.209837255135585 7.26237317774241 6.882050725757859 0.3456254275518628 -0.27461901443631415 -0.40462736000736765
P 5.905846649083421 6.355649051618446 6.122580047469077 -2.6429266709860997 0.698045766538372 1.1256173940467387
P 4.862597984411241 5.425837984362496 -0.5298670267770855 0.11013011858988775 -2.0022923524876615 1.6418581420577403
