# total energy = -381170.3154850638 ev
CRYSTAL
PRIMVEC
9.27857526379437 0.00000000000000 0.00000000000000
0.00000000000000 9.27857526379437 0.00000000000000
0.00000000000000 0.00000000000000 13.58013279132114
PRIMCOORD
 96 1
Ni -0.12130066903331761 2.3974168119639163 9.6714309801927 0.5719336706979311 -0.18950495827478975 -0.17770565164701654
Ni 9.122138401723824 6.018297268488019 3.251206247805141 0.3472159119674343 0.17465349508425407 -0.36697921063729055
Ni 2.6250202611108184 6.454009880330228 7.212585361254584 0.8593380098243715 -0.1977024064839176 0.6782472437552061
Ni 1.9143834667075537 3.5672781277135988 8.747207880165819 -0.3030559296207684 0.2311432026408664 -0.422129373446873
Ni 9.37748479065667 1.9596443564319153 11.969542913443219 -0.6870784688935909 0.9016419127989053 1.7377608041943364
Ni 3.704693826118231 7.4796450234937115 5.087891853819207 -0.9298044912760502 0.44734058260517795 1.350395830811842
Ni 3.616352511836631 6.039944184381199 11.387796662569894 -1.6604703578422888 0.09017810094799308 -0.0953233925943584
Ni 6.616366388816673 7.700066855451877 11.213536669985993 1.5318118414309103 2.689854702996206 0.8193128755816858
Ni 2.4101934099857383 1.7033793885563224 10.966283054324485 -0.3667187578870523 0.18867012107832024 0.5200323538429495
Ni 0.5129493273492874 5.741276127936453 8.462975430984942 0.5922829237782444 -0.16544251800894733 -0.22589095310299162
Ni 4.999750956761479 4.607341455280811 12.845841244811774 -1.2585334001828905 -1.8070147533951522 -0.3930802785997166
Ni 5.72580874311265 6.994533277397198 4.281639342193813 0.8453440095381248 1.009101169424849 -1.3343434053346697
Ni 5.442274042785254 1.2069756164666663 6.8763817567797165 0.7086106865384119 0.017627483273776095 -0.46709128286954393
Ni 5.672818800263976 6.52178987201462 6.466465439650848 0.40107023878372866 0.5278647054031748 0.8118276229482341
Ni 5.991547136246253 5.690012000071119 11.161660156158831 -0.5789142157808224 -2.0308187420621286 -0.6089164185698674
Ni 0.9991912039026335 7.044006640252937 5.80060426549007 -1.073395203517229 0.5471898880943479 -0.8960207099573858
Ni 3.809829361474266 3.1305912654775696 6.990400600012363 -0.3987937840447261 0.07148206720038656 -1.3592558523056333
Ni 8.640589628496139 8.014851796982974 9.727313054924743 -2.0217322063798275 1.5713788050902553 -0.9429538841738146
Ni 3.590836430093704 3.8859043993689037 10.581761269603692 0.2954138396944783 -0.37023628412200754 -0.615017646371599
Ni 7.146943153291492 0.9445218389465165 10.533239888561345 0.3555984796041747 0.7355095678117849 1.00709545184873
Ni 4.7520593923515095 -0.09806711678448586 3.6059187540475683 0.85240065927459 -0.8661267506114309 -0.684443345263589
Ni 4.249531760643551 2.1926943292090346 2.957861309940728 1.0087754106543143 0.1366947564522936 -0.75653810634731
Ni 1.4471886492821637 1.8067519946283013 5.353260959660677 0.7403612394771314 0.5868728085062667 0.6886216450109948
Ni 6.449751014322954 8.954604448287359 8.844835192486808 -1.1396787572358116 -0.9610158838818482 -0.5560051723931327
P 2.4672288116125625 9.095787248214764 6.721731104979636 -0.34007518715759494 -0.20867304656280836 -0.4884473799478169
Ni 7.318717415584871 3.4082247919909654 11.201532049419086 -0.1131431943845987 0.305740418431467 0.31498996205419305
P 5.886699236720775 4.347903214693916 9.467592745652398 0.07196594881534059 -0.026015450227155196 0.6478058965462133
Ni 2.3461248483730452 6.359052941945825 3.49452110830306 -0.5989438807381878 -0.550978922823135 -0.1512579989784492
P 2.6840041635252847 5.558525311206026 9.363107638416428 -0.5546237186645738 0.6758445478509845 0.005751300661480417
P 7.850203480427256 7.085342692676478 5.060228709779804 0.749533907115335 0.5477609301064695 -0.5064440736355535
P 1.1557857172027666 3.9362035554155956 2.63605341485646 -0.330185953068341 0.5937265982033065 0.21792259018553437
Ni 1.3221320130162875 1.460104425931674 7.858537496653255 0.32622002644205755 -0.5634449165006297 -0.3018158865660802
Ni 8.791366475158885 8.556989666131134 12.031549775651081 -1.9994134882779697 -0.8365096990759465 2.3165863169160943
Ni 2.5612671710542196 5.4241808211857245 13.359428010275877 0.7021119661879456 -1.3547314820727185 1.2068164314245733
Ni 6.911285900889004 1.3197195834696833 2.507136891316017 -0.8106330884195007 1.2268988039967452 0.0990265524775585
Ni 2.8231178411877185 8.80457916621413 9.566402148451225 -0.9295581795931992 1.7822100356466466 0.4078440671724524
Ni 6.0262768431421705 2.6440413402282728 4.609803061275865 0.3735275532787696 -1.2882535529551427 -0.8304215839003377
Ni 8.002177263288125 4.3795617132055025 9.025030689612871 -0.536866651791469 -0.7859530691743174 -0.739862702574158
Ni 1.1084185909127162 7.951887385816612 8.339613990404315 0.3899949548061735 1.2533364293629834 -2.084086086026701
Ni 4.828978780587458 7.138787285708934 13.145581904547242 0.20977913514279356 0.7912392572739211 0.18354694091914195
Ni 3.1120712294197945 0.346846130205463 1.8644025657895098 -0.8264471726336219 0.1173196943597915 -0.19781759190554318
Ni 6.422703967675452 8.684783482074888 5.849968141158694 0.22794243631538164 0.7048694743284248 -0.5035855211408359
Ni 7.38958717280395 8.391812470790198 2.774910075986429 -0.5506459649637484 1.6863914485834248 0.0895810907939425
Ni 3.898829454593593 7.296114806448228 1.865529912673788 0.6039436479456244 -0.3118041081270436 0.6069032447945805
Ni 6.792223224188921 6.4340423865444905 2.402542296892932 0.9322740358624654 -2.0022352739974805 -1.0181838484524077
Ni 8.431793851237568 7.487735941050015 0.5550434393649724 0.0016668461794616455 0.9214028974759164 1.612331593353533
Ni 1.7360956446383435 4.224015678900624 6.422370866826517 0.1069406651183126 0.4387780377471476 -0.07382717039379542
Ni 8.769728837840884 1.4973950195770633 0.8985956753818031 -0.35443839785780246 -0.8049872029876329 0.022955580354908852
Ni 8.035589412508589 7.683755120286763 7.292517502851235 0.27109994553946215 0.9185839399698825 1.190410222152408
Ni 1.6839964450068776 2.3291543343702044 0.9036627052871893 0.4650865937346893 1.3221077825004262 0.25306057153924805
Ni 9.864053273056324 6.283608847163376 12.613159631469273 -1.0982397733647344 0.12198856059037055 -0.2244591057524715
Ni 9.265872809825522 9.38732008034667 6.322190090616199 0.07643606877155223 0.05868208722224088 -1.1442861741008357
Ni 0.061252514045791864 4.084122600923133 4.753440044338181 1.236571808310135 -0.7711347732145623 -0.4598600552284274
Ni 5.976070472847271 3.92126504937701 6.425819713220643 0.45667754373538766 0.4178888530029642 1.4411128349824407
Ni 8.081416295318885 1.168219007942956 8.085814339953847 -0.5381293205539764 -0.7061066891696355 0.14866169900618267
Ni 5.56905649403447 2.393473417512737 8.68900337806641 3.5620083765280075 1.2411967086766558 1.6333840431484579
P 2.974803988218031 3.1564135402014113 12.661382242390848 -0.358486342674931 1.1696503638972373 -0.4298390833863049
Ni 8.628787280868139 3.2734906018131356 6.983569712965401 1.369352574420003 0.7506541367627072 0.288441007921071
P 6.727013397829181 8.679244172692878 13.32061665815861 0.16916393272459251 -1.188087230446186 -0.4462614906083863
Ni 5.1151671534161185 2.3381916665947897 11.586827667309825 -1.7497755692670252 1.2521200404573791 -1.2775935021381353
P 7.502897132892902 1.7972043407688572 6.102558793263305 -0.7618325219770299 -1.0927157582227116 -0.8826589439384993
P 0.6864596110587039 0.29316493350593587 10.83122875330297 2.0990270236072495 0.587707131482104 -3.0419400272407997
P 4.049337222576141 5.228941042264032 5.823554821195935 -1.1411964794319183 -0.5694720965313159 -0.431152917101722
Ni 1.5105798749067718 7.355664701948628 1.3166075493545644 -0.00724382604660688 -0.2683234112355895 0.035449599056861535
Ni 9.212094188086612 1.4716284163042974 3.6229347330687878 0.13800370507170426 -0.11672756930174735 -0.3396062179409764
Ni 4.355762167870737 8.374526485231263 7.774992277881806 -0.3663292357581175 -0.16135420687218663 -1.0080261911931154
Ni 8.463906999932938 5.948791461820289 10.613267599482342 -0.9400637071102131 -0.16041652554926566 1.4369553611706414
Ni 2.205637941584083 9.04736236435428 3.9998378797099 0.6959022378328079 0.11646043168328975 0.4899435048773691
Ni 6.9819515294541405 5.930995154626494 13.324663044794278 0.6045769106542491 -0.6248839976427173 -0.24501841796106189
Ni 4.101566322260116 1.9003820967620715 0.26599633752358587 0.5277068396690718 1.4050762530738576 1.3813385431372855
Ni 8.280116982782436 3.3070976011123645 2.5543824682712195 0.28677056219718355 1.1355115132319993 0.382399916067735
Ni 2.7289774174190895 3.565338905501137 4.113856722942545 -0.8568723218926985 0.06417190669221852 1.0644367087723605
Ni 3.55877895284941 1.9020244045687982 8.846207493755818 -2.2376061415664497 -2.1513559149179526 0.6901167414992824
Ni 4.5556876272579485 5.1035039844158065 3.654563540139801 -0.33881020440224224 -0.0655243069550549 0.2421876333804861
Ni 5.32752590354352 9.44382660318828 1.2286030473519707 0.888920608577495 -0.9927296700453613 -0.2902688051584291
Ni 7.25205085292199 4.993478639940308 4.603352595811253 -1.2816776995098376 -0.3782948927604259 -1.8753330781555768
Ni 3.2008022438589236 4.22875703081722 1.7415839218568674 -0.5845991819807416 -0.2838914408771756 0.04721291024037675
Ni 4.557283542188779 5.302167557578641 7.980962728998296 -0.8744568677436811 -0.8376587250787252 2.1246758345236056
Ni 7.039775609971201 3.3175545553393744 0.5425136514429186 -0.0670307162972523 1.4752372874699753 -0.07002039505319554
Ni 0.04286423375556232 8.452772709717843 3.860627704865602 -0.04757826399959548 -1.3345712050747596 0.4266979666541619
Ni 1.6076244927065046 0.2311339470026052 13.370034349563273 -0.7614501989369467 -0.4490315971543557 -0.4944331652176065
Ni 3.836069172081174 9.471291185718846 12.424761873884755 0.5977889411981382 -1.560695614344796 -1.0169471478318293
Ni 6.490966445269164 6.435322829919226 8.932753403740234 0.5703591271219597 0.5939055469833321 -0.6064874974134007
Ni 1.2680379197212837 7.273020432827084 10.750468034942816 2.1743929992430746 -0.12892719669173278 -0.9918608942871627
Ni 0.1118439452106302 5.058901873529172 0.8190513782276458 -0.35844777612751166 -0.7493806693669223 2.1068544900714685
Ni 6.4700618153903235 1.5296287897497636 12.943441649264743 2.2267915674494487 -2.112248150283214 1.4936222177350662
Ni 7.822794569347764 5.58235269226633 6.700967509443519 1.367207245942226 -1.666769560587439 1.2831162317285774
Ni 3.955966920547389 1.2481817688376975 5.226341185498808 -1.8481156372005203 0.29954200293023897 0.23013173065721657
P 8.894015352366884 4.091276382386332 12.57345104113217 -0.33378292639097995 0.24478727578686232 -0.27850986485028806
Ni 5.30856049587714 5.256452017670496 1.336113897953893 -0.74430556883686 -0.14159347930549163 0.11169180665005281
P 2.465391653727072 7.538536140156387 12.79461701481971 0.7309116640284573 0.2792891662184738 -0.19143842785207676
Ni 0.9768669520213678 4.424562802824846 10.723198302491012 0.12694564748532977 0.003022331766091569 0.9181054576715673
P 6.102110638082148 3.848233384141165 2.7629731890183287 0.6000497122078569 -0.8722241217584205 -0.4648559657811219
P 4.6859495441993815 0.6759237889426701 10.393038761887903 0.12873770638874601 -1.4200094773449223 -1.463417669127228
P 0.9541529999825737 0.11970660981752317 1.9262739607997572 -0.8861119354841062 0.5649742086609625 0.683401534262636
Ni 4.566961096100733 7.569823495660803 10.192513906544113 1.3687442514120427 1.130298344462176 -0.9770449123202528
