# total energy = -381166.7137933703 ev
CRYSTAL
PRIMVEC
9.25310739107865 0.00000000000000 0.00000000000000

0.00000000000000 9.25310739107865 0.00000000000000

0.00000000000000 0.00000000000000 13.54285798527071

PRIMCOORD
 96 1
Ni 2.4097312591785855 6.52610565970704 3.3765320145271307 1.0356663215078872 -1.6474893722015886 -0.3566477468042955
Ni 1.6168787458053286 7.636654364877665 5.366695920553018 0.114401492271732 -0.26386126169917784 0.3103277806918333
Ni 7.545687065362318 3.9550834842582883 6.218690595617078 -0.7753853209608 -0.052340975495561465 -1.2324981524613936
Ni 0.3747536283756892 5.472426553033143 3.787653131183276 -1.5824995975937648 -0.4417972841894455 0.09146416674926829
Ni 4.2480368666869195 5.689328645184424 9.101126102892604 1.1075032009445314 0.6504880713640668 1.592993040925921
Ni 2.5174189238881377 2.691201535239753 1.350186607680888 -1.0466619012874425 1.8634635804115005 -1.4582754628046564
Ni 2.719442019231294 1.7945106498635233 12.543164566426848 0.10075022003688454 -0.09943407232862231 -0.8930863099194103
Ni 3.686567558651956 5.440956734535361 6.8829545251326545 -0.11736314600321722 0.11198311263822651 -1.267335828965869
Ni 4.4398630376006265 7.790228189519737 7.098611149018777 -1.0287716512705831 -0.4841567229922629 -2.4245489955410178
Ni 3.9100486102128 1.6139455107380551 2.7716545287395076 1.98669346960814 -1.180785040357818 0.32059085318073816
Ni 4.379727092167788 6.809472822799094 11.679198220921027 -0.4352196309719279 -0.32593849064589675 -0.27422280743916
Ni 6.277937317422268 5.921433592905201 10.463198327115803 -0.28536005500290207 0.5632366571445654 -0.5404407422959725
Ni 6.718755357185376 7.522942927206614 5.691901009060455 -0.3372004367129612 -0.030158011640619032 -0.8108462328715713
Ni 1.1964082893637789 5.408940982696983 5.920409273908523 0.5374353798107454 0.24916972112527414 0.7258841289068789
Ni 6.431723963536098 0.19213800063536993 1.689877435929072 1.079082226599677 1.1856660225992033 0.07232050394128191
Ni 1.9792396873494742 3.3854159230069074 6.439669606918646 1.6977158724573085 -1.46583296343694 0.7584471504445648
Ni 6.100545994158234 3.745361803501973 11.691116223339474 0.19351690764766027 0.4020452011024882 1.172518943694284
Ni 4.153905004417606 7.35488798937753 4.7920455609302595 0.23207754152967774 -0.2851350834762896 -0.10121353282654827
Ni 4.024574321341012 9.315103287773331 9.265346552987056 1.1397754307146757 -1.5744949821217336 1.863220868273075
Ni 0.44960479061447406 0.33782540178268766 4.423205593537203 -1.3266069559223606 -0.13690378713930615 0.19545500521063758
Ni 5.1426920684202475 2.9858667425499164 6.6822222382812475 1.0266530622656835 1.8901426323645836 0.3918188953887897
Ni 8.842445305213731 5.2501761647655085 10.343818435810014 -0.2707479615166821 0.26287755762966986 0.6668372021460516
Ni 7.247117046700769 1.7626799601744996 10.756929895882472 0.37960152738699143 0.5415779412242092 0.45645257220877516
Ni 4.068730150177064 0.5604218562696157 0.6012706244966983 1.5002425512650615 2.0823431351936654 0.7006518367026514
P 8.751672320955208 0.586520245882375 1.097013259566815 -0.9981343860007004 -0.4504372192526307 -0.0998855580437441
Ni 4.228151938738748 3.992993465553617 2.2277735273792225 -1.3469490099138222 1.3294835061392072 2.9574525489196812
P 8.656809463195941 3.3655865137035414 11.618065715813911 -0.5332161995230752 0.16494526665755463 0.45358784906647037
Ni 0.29414055611674284 7.495488957349831 2.605063432511819 -0.05934080385216232 1.5756344950428154 -0.1353402993069282
P 7.409185223998225 6.539106275699215 3.666037689113282 0.9372339509709021 -0.38858496183252433 2.334526189223966
P 4.441944986780868 3.531633527212126 8.665966338346017 0.23727682634243005 0.04144978250435442 0.0665324365045951
P 4.585016534447056 0.6442133709437304 11.929510508206075 0.05254075021119339 -0.08153893721575634 0.13246734863450735
Ni 7.6013815192106415 7.334142522434859 8.528127422952837 -1.308066731026328 -0.24968419886784737 0.7598972526275299
Ni 7.563267969551023 4.209562445836059 3.0223193594190763 -1.150712903562786 2.097717046546574 -0.7076966593645747
Ni 2.6795518729378687 7.173693638944256 8.54279452359995 1.1462908632356903 1.0980945060361218 -0.6361698549691818
Ni 4.1704403074624565 2.3383250288500403 10.498098272551875 0.12099020123284324 -1.981353288342149 -0.1493271005043235
Ni 8.110052596034684 2.2939101130048907 3.8716731976118437 -2.1540028656224965 -3.504096848923204 -1.6588796163164012
Ni 3.8974181185193357 2.069651800416757 5.049386508647802 -0.9619607642936208 0.861688255224103 -0.46010713824222693
Ni 1.8899379471783206 6.251760276396032 10.453230879751555 -0.04157088146325098 -1.092662793497589 0.896006568889999
Ni 7.688860397210651 2.646444254418297 8.0394606391633 2.422979079950737 -0.8605513134061824 -1.3554876435124528
Ni 0.2451305471031139 3.217462769359968 5.038444709067201 1.764259107595181 1.723917984773973 1.0824002352293165
Ni 8.354547454654764 6.152511445697059 6.569450916328919 -0.4061458535344232 0.5390675160975297 -1.2284687195870263
Ni 5.96073154032069 8.530014131565508 10.885234409340894 0.004751398642056333 0.006797482537807648 -0.9667561287997352
Ni 0.04750267780713415 3.0843383122216 1.7910564648458163 0.34407299546307835 0.5122578521038532 1.7129265187594758
Ni 2.6078865556002264 8.805044244829128 3.4951947900041684 0.11266085543154145 1.220857997119304 -0.3637565899349348
Ni 3.496684540306474 4.43661519687945 4.783215320473795 -0.43650055456688047 0.018303426294878154 -1.3416363394516573
Ni 6.4414674856996275 9.273556835243182 7.330274723513343 1.5042262185031579 -0.1870708949120004 -1.7872812795219668
Ni 5.274955986564114 0.2529540494670876 4.897422724705116 0.6261677494511474 -0.5052981329565684 -0.3138666470830272
Ni 1.7965370803989582 0.5942345615782292 1.2778717221990106 -1.2360524454715551 -1.672320058092023 0.5502446157602717
Ni 1.4892691407177334 3.2820124470549183 10.783758355674435 -0.46799296874820695 -0.7554016787500216 -1.4568968372895748
Ni 7.400339253259067 6.882378056537413 12.248215288717427 -0.31427725225788455 -1.4531779936770908 -2.132532354453547
Ni 3.784206348651543 4.409448073354167 10.95285426809364 -0.12262053774741462 1.612703374870655 0.7003258208218003
Ni 2.918689182334128 8.491382407887697 12.859200750744504 -0.2551976724869089 -1.747351533206565 1.415986472228458
Ni 0.5601923792044157 7.668087170945576 12.309090557436935 0.42529311588683527 0.17747836612755885 -0.9607304914309455
Ni 2.355989211005955 0.6131858509829065 5.68374809607063 0.4055814963905209 0.12436605968361161 0.2871035200565701
Ni 4.558552647089321 8.20397163683224 2.125524839239208 -0.47832006170582786 -0.48290690974556194 2.2469731846036463
Ni 4.3412434182094595 0.8906041912839504 7.088331871932865 -1.1921308043879404 0.20649866461930888 -0.4343984206222132
P 1.94565090724158 4.215549206367687 2.979266500993178 0.24345698701121296 -0.5917591900642906 0.5179106795142565
Ni 6.041881292812766 5.504303508259506 7.667519030147057 1.147356328385727 0.1938624639125371 0.2276858402198853
P 2.2556115011959172 7.693616494449069 1.4570220611926612 0.8110426651530935 0.1947808619617484 0.8563326473391446
Ni 7.39491693228297 3.694775064975841 0.37248846766758653 0.33136223276462934 0.8306948921663823 -0.07915783857808947
P 5.538456727922933 7.832903521160952 8.726923034411245 0.7461943012191408 -0.9686273776805191 2.9299394311010762
P 6.050940085023682 5.616987851001636 13.48989163043488 0.2940429274888807 -0.774577480347524 -1.0454259719978123
P 5.924662927411442 2.752364575601511 1.847299627966977 0.8859209025192227 -0.6862503165653407 0.49915448195267587
Ni 5.90264978474569 1.6351813923765173 8.82616538793499 -1.5954435593489424 0.3148398096295739 0.7406440608248728
Ni 0.5204021664716424 7.066690704187316 8.615898699148826 -0.19215216608964972 -0.04980303956505616 0.5150194740093904
Ni 5.618153742542573 5.368495649955493 5.430212026143821 0.4965162729988804 -0.040746328679426604 0.19222467119879796
Ni 0.4381698004058417 1.0098471365992157 10.679058519366217 -0.19184980435788251 0.2654597165345493 0.5282033196895162
Ni 9.110979737034999 4.74742707672082 8.051635877969352 -0.17451414129291234 -0.5221879667333716 0.3694063320215444
Ni 4.222831401944798 6.438506491309951 0.7517696415272406 -0.48627325511463343 -1.5786501419406875 -0.20804903982556427
Ni 5.702995484914275 3.227123013556288 4.092840972305753 0.05518615825384045 -0.40608029040381033 0.18045776047085696
Ni 7.617204332980476 0.03137358618011747 12.387868738485029 1.007826930698116 0.8712810411188606 0.4561851774800014
Ni 8.992012534322273 8.400609423629172 6.719708427254554 -0.37873146607721225 0.8466904962636902 -0.3395951621973829
Ni 2.517844566831654 1.4606862917498862 8.623617641398415 -2.010577218204273 1.4296557421854348 -0.5259240367370362
Ni 6.798470878019952 3.942110627588517 9.476289643929112 -0.8692511551730254 0.4119987127707743 0.4112435797723047
Ni 5.624964029638829 8.043865118317944 13.448477497341518 0.6417674036616173 0.8882050705677091 -1.0733291261659836
Ni 2.194985141067288 4.229132768130328 12.670427179984403 0.4274893522072057 -2.399843265264222 0.7562450005869233
Ni 4.4064778258570225 3.4071144600187564 13.77444134066131 0.8829404797346599 -0.1227328949555628 -3.944178178862807
Ni 5.240886044867898 5.684720597665489 3.2577073096694074 0.001998261376951397 1.1144194684483903 -0.1360589226405076
Ni 8.719832378158715 5.553594811740154 1.4327391312650726 0.3038871672728121 -0.3984639115091331 0.6172041124999563
Ni 6.707734906191299 6.803874692781112 1.778244612245984 -1.3975997421911543 0.28952652767576587 -0.8647866916437688
Ni 0.18122581099866475 5.407608535221628 12.873624494665217 -0.6131911346858213 -0.6152467316632694 -0.9970164703461732
Ni 2.2015918597992536 8.675241653271678 10.895825516148468 -0.1187713392046535 0.45028192462168903 -2.974502819533748
Ni 0.4665213216869954 1.5208037309677895 6.924314064891956 -0.09661408638132393 -0.06711916224600054 0.0572749224620691
Ni 7.519510024336083 8.804396527306388 3.6610002974078455 0.05796834898466791 -0.47493571861462713 0.5716210245535187
Ni 2.2836114043932967 4.591484456567006 8.46211945552097 -0.8457229901440985 -0.17022888365399716 1.1511877863166755
Ni 0.55493939009498 2.113789123037874 13.450076434311942 -0.9001810119826626 3.90807680515456e-05 -2.6588322864727627
Ni 8.273629029849383 0.4964551243451326 8.758937860938877 0.12497438269157185 -0.8235996758824977 0.9478628914396579
Ni 2.123699201135823 5.429223794266267 1.0796146415952246 -1.0702908535602922 0.0786994108844322 1.495721009245624
P 7.762274551859696 1.5086173884327765 5.840845504036418 -0.1670610274489768 -0.5459138495954017 0.40163151060383734
Ni 1.7382054909223286 2.041217001168393 3.4989867134444474 -0.2314386223940982 0.3868093579893403 0.6332256847391933
P 1.8333737012280291 8.800408437987791 7.446567778167893 -0.33333092645522594 0.08882492935420831 0.3294519031157939
Ni 6.20338503055469 1.7057826023553695 13.443020014557046 -0.35570569460600027 -0.07755784108082127 -1.3534065926137078
P 0.74276636796113 2.9204935382903368 8.654441592994948 0.08766356205625547 -0.9222585606079924 0.10712578454592518
P 2.437703403053562 6.22942327496891 12.560080172188622 0.17382894230042967 1.8700486898281858 -0.5331817467407141
P 8.480158388529327 8.223181087935266 10.569225984345643 0.25305928598766736 0.2430486958292008 -0.6471569501083049
Ni 8.25444733806876 7.689785707957426 0.45475321960952436 1.4877865848898957 1.7539268724312373 2.5205627293341815
