# total energy = -340861.78758743167 ev
CRYSTAL
PRIMVEC
9.31809222687271 0.00000000000000 0.00000000000000
0.00000000000000 9.31809222687271 0.00000000000000
0.00000000000000 0.00000000000000 13.63796986122560
PRIMCOORD
 96 1
Ni 5.838036236794703 3.790264380982082 2.101310817111578 -1.1743094599358033 1.1203905984301608 1.1625176095071978
Ni 4.218710251898771 7.17994398617668 12.960885477758948 -0.0035090415945229886 0.16169899180611505 -1.5904473916859319
Ni 3.928843045450829 1.0191010876558602 5.458242919723541 -3.7014709255334255 -0.01908632720748971 3.305198622358972
Ni 2.186937560078406 2.727004855260232 4.569292282307543 -0.06987667038647966 0.17577552450383924 -0.20037429688912586
Ni 0.22738939947759818 7.845060076219359 6.854007377342236 0.07176823098223768 -0.45924710423477677 0.5189612322659578
Ni 4.31780816049379 4.508353824138317 8.928151297179832 1.0735805800551574 1.6977883775664566 0.747296533144384
Ni 7.352533686505495 3.1746273595467898 7.089016180661691 0.5397275182790318 0.6503780281487638 0.6666556822628648
Ni 7.86675259443367 2.715580874448056 11.699836403658976 2.083620202133876 0.4863509024301043 0.7265233051527745
Ni 2.5000627241994238 5.152122165371293 12.670600820788668 1.2271451156795963 1.1103581538948233 -1.2093813639382722
Ni 8.813088701533019 0.8223663472940019 10.057252461089968 0.757195794535967 1.6430801873902992 1.1625294365817398
Ni 3.3596473946255583 3.4257965298503854 1.6308422148190718 0.5012843838114851 -1.065023691624082 1.6784302847548191
Ni 3.462202315358683 0.612920797612495 11.729431595712446 2.28099145053062 0.8564928270660926 1.457673053333967
Ni 6.683541270183971 2.571420672861451 0.44504418822560377 1.64596110848252 -1.0338997165257677 -1.5442824630940952
Ni 8.896923575405081 7.631713041410561 4.319145306698152 0.3918716030035961 1.413728786542533 0.38416574971890616
Ni 4.622043864831109 3.011309160774349 7.319498254879551 -0.3491439822280825 -0.7697990851222742 -0.268118494313635
Ni 7.744816042306315 7.391296949293957 8.809037195124263 4.430264257667299 0.4992755809115724 0.7841540682923657
Ni 1.8061723660099267 1.853163504048919 10.46048637043773 0.37961129757900425 2.1601930535936087 -0.5193826360740926
Ni 6.978421610136767 7.866044419440419 6.523858990916352 0.9996832185450588 0.8876733664339551 -1.426737282987059
Ni 0.2968222303290252 7.6672242900852785 13.17371908569764 0.8144084963015329 0.036355655810898675 0.5419126988558087
Ni 6.433275954805971 4.359627757463649 4.554973170305853 0.9694688997452077 0.210303897298012 -1.4169894595716757
Ni 8.882573713699738 5.412702608611511 3.877737969786571 -0.27814528242201775 -0.41895791769742685 -0.5796292395699759
Ni 6.649343872483574 4.112884680867869 9.701369368133035 -0.03139008427550723 -0.7044794379788577 2.075528940485309
Ni 2.2736889967516194 2.1007452089261793 7.003287870491883 -1.264398857824732 1.0270526116969474 -0.2403323253393022
Ni 7.778528899221857 4.962405811916231 0.8282367452643699 -0.7115553709890327 -2.4736328975518624 1.3873423261292042
P 5.593119506234149 9.10400885237882 7.791795066825686 -0.45652636286950404 3.381175492105919 -1.6611573566069842
P 7.487441022719758 4.721821994143329 12.419784806172496 -0.5846991978937155 -0.6755128755431786 -1.7978400288744198
P 4.73704775649822 5.607366868927312 1.2630711000675416 -0.377537188658795 -0.6438471690087815 -1.2035727276762949
P 2.339977903356694 4.4975821097672934 8.031550506218323 -0.2513867833812509 -1.4505297574209666 -1.3238527902159911
P 2.5082440089898728 8.652491385629384 13.449369679156073 -0.42817686519253356 -0.6094239543339053 -1.1331286148221196
P 0.6966084456306978 1.7247229236940769 3.106947261803658 0.06376104440704504 1.564510874325828 0.2884402365901226
P 4.028322995818523 8.831957837866344 3.1095116007265866 0.3186501845145996 -0.4954613493718048 -0.27874846322365543
P 0.053069329461327086 2.214137070674443 6.7938637524220145 -0.31012749175556914 0.1566640004853689 -0.114059535551281
Ni 1.6904602993495645 6.808422339388526 11.158177578360739 -0.3038619704618315 -0.6956266155739181 -0.2552871468769216
Ni 2.346519203952247 4.522070055586542 10.122305788693659 -1.482456430926234 -0.8066332232314882 2.113867945274824
Ni 5.776890916982713 2.236258221121512 11.737368746492063 -0.08831276560448016 -1.7282451513944173 0.9452761045490882
Ni 5.698609625952458 7.2310350847029135 8.302645484489913 -4.842566617721421 -3.023486705631619 0.6824862215372182
Ni 4.951214783404466 8.86452456946386 0.728774499271507 2.052228575196472 3.0988346835453147 -0.26938887638562636
Ni 8.196007375835176 5.618977211579818 6.265896931532759 -0.39273626499673653 0.045353488434134795 -0.17960621110383906
Ni 8.750592258378642 8.30840220173768 11.05398360524192 -0.4909266947262449 -2.936558479079491 0.3814367808235173
Ni 8.640992860081075 5.460625555852149 10.69765044844059 0.008876733664339552 0.7303496208774002 0.7942302215814451
Ni 6.827580336574362 8.791554590882987 2.91251129474226 -0.038932929619771656 0.21950664684320262 -1.5009544897304214
Ni 9.175087258280353 5.220544915048135 8.34148701925131 0.7654950584302818 0.5439641820681986 0.7813417956545511
Ni 0.42173218561883186 2.1459659094820447 0.8745010721260784 1.4431167527863469 2.4221969503690737 1.311986120685392
Ni 6.116078784473761 1.3155841394354864 6.045207240214993 0.5554554705372498 0.3457809792931206 2.7818117502214927
Ni 5.440200298152075 6.613534444864331 3.0005989458106335 1.6357360883204024 -0.42278860429742676 -0.1318672531566632
Ni 6.233207201120624 9.267233870231097 9.86788926332233 1.432307835096301 0.34153428820162474 0.55048115725111
Ni 1.7335098844655956 5.9039617378111355 1.4263138222946488 -1.5207157315177489 2.08426014971072 -1.1997230149129015
Ni 2.6084414524428343 6.538682211696131 8.488218082425256 0.3907009797342626 0.7458911681564251 0.5946550235548469
Ni 0.42903663795053243 0.8559226602636666 12.51354624346969 0.37687204427097026 -0.5183145998208945 -0.3206548736494542
Ni 4.101190475387217 6.950998465332334 4.53994401969251 -2.4325654380875914 -0.17431050992253852 1.5026717295318444
Ni 3.678698865269043 0.7146436127285501 8.138894926247907 0.5441405597450628 -0.5655295669438002 0.08607513452321305
Ni 5.365730106756551 8.808606699273103 4.856358470295337 0.8346459063943303 -1.7321077196736168 -0.8504430213275869
Ni 3.407337389565785 5.018006866978428 5.7933000770236935 0.10543656976896035 -0.7782605856260661 0.8486468486591127
Ni 4.971900947681 5.1911463347362155 12.115113015128808 1.305543450383842 -0.8536175624008266 -0.6718734790183784
Ni 3.4717719958595845 7.4548370187541755 1.4467838068364014 -1.2536562745962474 -0.8255172046201847 2.1742970970951583
Ni 3.677701829423282 7.832648377653438 6.563927718396319 0.48460075250821694 0.45911134998786085 1.3042789818491214
P 7.001856611558156 6.679814033377388 4.646756376667954 -0.8578511408662001 -1.190924442784665 -0.30835060236080447
P 4.784635252426265 3.278086135205511 5.3039837700095 -0.4293662575149444 -0.5126646006239687 -1.2512065275041744
P 1.7512142592968636 4.027475049445026 0.5406170626107974 -1.766464599886932 -1.8859378502546167 -0.28054335034054906
P 8.848143363698929 6.5983645910615385 1.3093223816004274 1.712616700828541 2.027047447945154 0.7322591791952873
P 0.7822752563931961 7.5376655386884615 9.257767620551578 -1.8485079875429327 -0.42571709079813136 -0.1336081471071699
P 7.417424879308101 9.493831231887295 4.787186546020371 0.5533260828990728 -0.069175530554397 0.11758991730204264
P 3.932616872717494 2.846397568267095 11.091679014685294 -3.2315306032508606 1.0760524386344177 -0.21434978523261147
P 6.895024686589477 5.438122363632406 8.251776156553671 1.0167370887035523 0.45290162163272324 -2.115685200989221
Ni 3.3596567127175745 5.117803632474682 3.1070842377563 1.6913943011146548 1.392764782696356 1.0955185177788296
Ni 1.2067022342231872 0.18500326251313892 8.50181504229567 0.3086694191528039 0.8166885505849613 -1.5606071683960479
Ni 2.095638894501161 0.3234673144500838 3.6956848152058424 0.9075443943262693 -0.405957648783017 1.575499512126848
Ni 0.9996169572494488 3.19947871095468 12.31090010553259 -0.22345971795367967 0.4007683912725936 -0.5271067441912277
Ni 1.8216124444811956 9.022568728154987 10.657854741056706 -1.5815256637162698 -1.6309780048101268 0.19787544172667212
Ni 6.957092497511097 6.715539598168484 12.865705826856848 0.5707622760976493 0.8343330031396019 -2.8790218183156027
Ni 8.03073237773928 0.7168259098788042 7.956036688516957 -0.3605090295319146 -0.3802849266072612 -2.3376549646609357
Ni 8.690518519148544 3.1383520273267225 4.654298440346074 1.587384693600208 -1.8218381915612298 2.0926725421441312
Ni 0.09687740726749763 0.539024600685185 5.136850744365521 1.2308336202747772 1.1664542255574428 0.2368381961431147
Ni 4.277367641142367 3.344170043786223 13.193057853868591 -0.5584626327946898 -0.790259152748839 0.08140575407200175
Ni 7.42400345227172 0.5286833821653211 12.714938166221373 -0.757405853664244 -0.8614473428578906 -0.8934971722045838
Ni 1.992878975743674 7.2658754307524465 3.3559499757134277 -0.4716799306814909 0.17149052397524014 0.2952014665733561
Ni 1.3517290183673227 4.263865725810521 2.847471944276592 -1.7885755728533586 -2.5235858324312215 0.3490172268422312
Ni 6.217860303569521 6.682395144865946 10.527298953814128 -0.4679893692037811 -0.13085552406269718 0.7073446753417947
Ni 6.393711336104095 1.9410890203162063 3.855781749568193 4.352677877341388 1.0576034879006109 -0.4568132979823035
Ni 5.128743072502003 2.1982497237863843 9.485903399199694 -1.5222949030794104 -0.6289717945588458 -1.1906207955013173
Ni 4.043278533504936 8.436069380455155 9.99608570966634 0.007820267375367177 -1.1008322166822588 -0.2674034705244814
Ni 9.023947805773423 3.198966215893775 9.792580443645324 1.178179741524487 0.6366239117874649 -0.7111535075649236
Ni 2.596849745974362 1.417971334512315 0.24677662172703843 1.1864720634402663 0.9202513003699763 -0.02247375562248388
Ni 1.3013554129263567 9.03381566521885 1.5472002254517494 -1.1177405624018233 -0.31184267467446297 0.04194831940732776
Ni 5.724029380973352 5.489241416434688 6.339337473760464 -0.5647448662589758 0.7866693785150516 1.2049492963088473
Ni 4.394291059764869 1.7676886459819596 3.565770112693997 -3.0479654074992735 0.8543675531929737 -3.886550243936694
Ni 1.02962121354244 4.436203837654891 6.365168156639284 -0.5058398643926514 -1.3772330056093443 -0.38420097383221574
Ni 6.72977764276963 7.110309884537698 1.2553501290227056 0.16203066411392095 0.7215549054039057 1.3178572347541884
P 5.669145818996421 8.776347464712128 11.981883867286708 -0.6514676616685167 -0.6422492283940424 0.0887591091132794
P 1.637142176831398 5.892314122790565 4.941254674848074 -0.7697780020763517 0.1912851901036641 -1.3046417645051789
P 7.856195196179025 3.5421515448598835 2.868924055716879 -0.9430855246556726 0.9646640221573967 -2.17936628408795
P 1.9366908808844387 9.058899968927152 6.253391120237472 0.7550124137314028 1.033698142037923 0.18576888827112523
P 7.1749960793159415 2.0399353404267813 9.37789087197253 1.1172047445030113 0.1788161111023759 0.301873479276893
P 8.283662667433985 0.8300267507407312 0.9591242565827336 -2.2916065070423053 -2.5021942541293227 0.6471772618232791
P 3.8238374665173755 6.279592663178548 10.63130190604661 0.1564426285031822 0.031986837319241686 -0.49529551321790183
P 4.816065176797774 1.8661249700438105 1.2315647673414976 -0.38242357021681883 -0.9192058898245975 0.27755470002587035
