# total energy = -381167.4874598172 ev
CRYSTAL
PRIMVEC
9.27754594035260 0.00000000000000 0.00000000000000

0.00000000000000 9.27754594035260 0.00000000000000

0.00000000000000 0.00000000000000 13.57862627243143

PRIMCOORD
 96 1
Ni 0.5994537861660442 3.659370273640317 5.157039874278752 -0.18403082253409597 -0.7683672377717541 -0.7570728958048575
Ni 4.80148256530073 1.0430281011325437 4.900703135753762 0.7926201967818478 1.0862574041918776 0.08272858664848333
Ni 4.696572075929088 9.03709049417292 2.8438804807127673 0.23306870179835346 -0.34372538231567257 0.5504716441694132
Ni 5.869903309642522 7.975729962283536 4.939931383207787 -2.258887419542729 0.1763761342023156 0.24116510565324273
Ni 1.1527907470253536 0.7507584994677147 5.189181004397173 0.006505148108369442 -0.6690869174121767 -1.0003259943353806
Ni 6.535789891191886 1.628339196283543 13.33302937647055 -0.14954178761829084 2.787176356967516 -0.8679758880050278
Ni 2.639192768132318 1.370785243732593 6.939763929112585 0.29235345560159975 2.1145176630436806 0.012007823094153514
Ni 5.152470682908436 6.079260411089327 11.450814774597134 -0.3885397104168857 0.17385902420741672 -0.22231120617153324
Ni 9.08409054185215 7.67587040029372 7.3380795917708355 2.1588056863277787 1.025516634668395 -1.1998469420852755
Ni 7.370602029026963 3.378251354428245 1.7792069371719303 -1.3076342714745997 0.36690876241067133 -0.06444058697257289
Ni 3.3189492808463976 3.410629989722464 1.4371076363193505 -0.997447901456637 -0.29611832196067067 -0.3252088115687238
Ni 6.897577072261617 3.5319617353894546 4.408763118347198 -0.6083106666650684 0.6413783957533148 0.6195502441346298
Ni 6.853471618912415 8.270041551807465 7.303915956639766 0.10638299284262968 0.7869717402468188 -0.3297961738290901
Ni 4.449214146354741 4.152972827277461 7.983933168394466 -0.612944565892654 1.2310585918013894 0.7066610190112088
Ni 8.29897821756181 4.101157733260781 13.073012235475298 0.22530242758937327 0.030013258532638632 1.4159003402725552
Ni 8.485280617373618 5.287496086367479 4.027393821083911 -0.12385749547830927 -0.791996704265236 -0.6671686173435413
Ni 6.487760035914472 3.1601919148994986 9.381921104547168 0.39548297450393827 0.5768905004825742 -0.818129911017178
Ni 2.242373573632508 4.259989319575117 3.4995654727579693 -0.021197974233853813 0.7594920467693114 0.6608390755810877
Ni 4.255823701452736 1.5041128562865247 8.763957686497028 -1.0408082707201431 1.9148455344279023 1.611915845972353
Ni 6.385660642959492 0.6975536290707842 8.945449678744351 1.2245110204908587 0.15817503781325665 0.633094815588284
Ni 3.6472445211103617 3.2455731700893837 5.581195357860057 0.18379582370515443 -1.0512610906223507 -0.6521196934302189
Ni 4.757905932069512 4.286096333820942 3.346927576106219 -0.06674738072887859 0.6133009207908082 -0.127981802059328
Ni 1.897415860879026 4.3429862454611 6.811392381594231 2.4921720940066305 -0.6914742839684414 0.27121076008571354
Ni 4.534456238355682 9.133011041538802 7.259799370235447 0.8151764848158091 0.10801975711510428 -0.3458570839466947
P 7.111276065203463 8.019649864714147 11.34822831048085 -0.5995385768993933 1.2914401782132403 -0.9045338896347197
Ni 7.090132538029962 6.539649350298589 8.884820916094574 -2.2498448497244867 2.5696216916443615 1.134279440597111
P 6.258753092188827 5.930133137817327 4.590566836137756 -0.49571691702603654 -2.0312987670223404 -0.10263586709537162
Ni 5.544131561871401 4.986152117028933 0.3633476642950872 1.6493133127842046 1.9539746392188797 0.6782832391994642
P 1.0112432287778177 9.126442539020664 0.39324826707151656 -0.2997397207633419 1.5344330811038414 1.00549956811652
P 0.45641907730599723 5.760567430862473 11.922386867669907 1.07426912148175 -1.225856735885476 -0.011365561524464296
P 4.418672465154578 6.0695560980469905 9.265402549708442 -0.7473109313220873 -0.20836091463902826 0.8442263509939137
Ni 1.454737756849323 1.820560670398421 13.093339338606997 0.13776099293327887 -0.03617979235466672 -0.3968867968300003
Ni 7.540177013527746 6.073183618505454 11.738885358974237 0.005375662489616548 -0.9971920766920891 0.5714181645140932
Ni 8.84205792364138 1.5513170099762057 0.3078382514892501 -1.1087918378489678 2.717481463574539 2.7592750025715578
Ni 9.108017332804527 1.8698337168303973 9.572510658333034 -1.2295125874705082 -1.1920261604892761 -1.410377610682113
Ni 3.365773055152966 6.632035152665304 3.7619446769468916 0.3729868502839512 0.43293417737186085 -1.0792213232807026
Ni 7.896954319795508 3.1956414178964074 6.7209585748911 1.8229381094936283 0.8857784634040873 0.03349350377175522
Ni 2.7287118088067936 8.008516809598655 1.8654185327225123 -0.4893482944955314 -0.5696746994604254 -0.8414361898432863
Ni 2.9132236422541946 2.1117735595818714 3.404826884743515 1.9267101470759722 -0.4555891957672153 0.9826445178952173
Ni 1.2505296933934331 3.9168407282779008 0.3287359236956192 -0.6795549068230361 1.0615982108823008 0.012743415708597407
Ni 2.77229771958394 6.917412465459051 11.688807021555572 -0.4993064341495078 -0.9283219931932528 -0.5211687814402378
Ni 0.041568972292056715 6.453961936093028 9.209988695625679 1.5882375285188066 -2.3325376980390278 0.28569455552418543
Ni 0.24124124354297707 3.242288918830314 2.2741482406867117 1.3934641227562259 1.3336124407059162 0.004013234924451153
Ni 7.338817156672237 0.44409014652018414 1.8439911126435644 -0.30693238185703914 0.19212722638898522 0.5177972938648437
Ni 8.848737756710674 8.753457360013932 9.365110191322776 -1.5905522926949123 1.9223883797721664 -2.340173874428047
Ni 8.730040834087685 2.0029201131901604 3.9673625323919985 -1.280054819194434 -0.4463483938952378 0.8676329028433122
Ni 1.1566594836779867 7.081059098110836 0.06304463560983846 3.5646134182510223 -2.8242172117708977 -2.7071937084952857
Ni 1.4486795193573103 0.4153381039298362 10.411574695467635 0.8302626897249702 0.5252534930325727 0.9703898688975803
Ni 8.83904272121427 7.659337813447217 1.19108474560427 -2.704416145750149 1.0907900019549084 2.4350907756126063
Ni 4.219520664230307 3.892078958191864 10.744237804355244 0.5088192587359495 -0.7948524285464762 -1.8056448696308194
Ni 1.434336433350186 2.8439203741602643 10.803766250057771 0.9990679535585631 1.1150056799691637 0.1304940269582204
Ni 1.0987675970774344 6.712471475874724 5.174108703279985 0.423183268632684 0.05588344143118117 0.08559279557015582
Ni 5.107632303430797 8.757353929304356 11.905698418051784 0.2513615865702703 -0.5639509096027707 2.1495589709185303
Ni 7.946691243523963 7.003322540766921 5.442761384026486 0.21593924120691843 0.5958999517055416 0.16852347092711623
Ni 5.712602518406566 1.6351674700877104 10.987267758753443 -0.9670489774498056 0.026234251106180623 0.6314161423342802
Ni 6.673283121868197 7.160150177160468 0.29547128276512574 0.20094431045998296 -0.11892791938717581 0.2780702062097082
P 8.11206349971865 5.60211622393125 1.5275136103846934 0.19883369187488337 -0.9409353110818892 0.1834073300174841
Ni 7.245512877258494 7.203253655549277 2.949467303182675 -1.561793732504981 -0.5503199490828974 -0.3907511162459077
P 6.57876348393768 1.6120107154474896 3.523965418552754 -0.5584279229020125 -0.47642207335216663 0.15710957266321973
Ni 2.682379744434493 5.653727211937479 1.5365165409547537 1.702795600973061 -0.7096362995894488 -1.573182433957897
P 2.0479718762241794 8.72466913499446 7.308206821632194 -0.9141616425324708 -1.1386737130100648 0.2154260490159258
P 1.814743649100577 8.21656577706939 3.7419840368794097 -1.1121496985776074 1.1528309783470534 0.7958950108783777
P 4.864486379708478 6.2396599026657595 2.0747598623412364 -0.2986724558410921 0.6316087179610607 0.0051524907352169325
Ni 3.1868370268092403 0.7202993884263249 1.070570351733675 -0.023491141143404705 2.303909492779374 0.4260778165716597
Ni 5.428746723145269 9.290905595714252 0.6006125516526482 -1.6803426712861835 -2.2894719771978056 0.020257464697455436
Ni 1.0134512847090567 6.197382125864683 2.810938698380623 -1.802149454883051 0.9384359416988032 -0.1788153397714275
Ni 7.557860016069518 0.2000628559345555 5.281637316112953 0.393407065811516 0.7901997602658134 0.004678636422591942
Ni 2.2004483435767557 7.665850650689778 9.388235402306838 0.3187759114591865 0.5424310332531239 -0.17008541609759742
Ni 6.372319531912762 3.8771049990615287 11.742062918455115 -1.034668219260676 -0.35209072356123233 0.6929223292688776
Ni 8.768542649695423 8.844655636501662 3.447369071603584 1.8459721084949563 -0.8163681911310651 0.5700734775607409
Ni -0.07858545279647065 5.358942467571143 6.742235698725989 -1.2983027096610287 0.13978059446646893 0.34182405152790163
Ni 8.409019189832508 4.174710117390457 10.723855963702558 1.6079740877157853 0.07692663525472558 -1.8422810327966144
Ni 3.332744991643677 2.1054741058956896 12.262395937424554 3.1122596987019686 -0.01251510174787522 -1.4650855437479542
Ni 5.007731688861126 6.8833453168056495 7.351535744387092 -1.5328726785952569 -0.3945262670176238 0.36694861450967126
Ni 2.3463099206815445 5.225883903849168 9.869543352078107 -0.3644266194187659 0.24530252486038398 -0.044876291687400136
Ni 7.953705068246723 9.118909171725848 13.062163073265252 -0.6551726213239297 -2.414447388330642 -1.588215931252252
Ni 8.233024143548457 1.942996444031031 11.526325648672543 -0.8789285303617895 -0.09106256043547542 1.689908460597748
Ni 0.49614831224021916 3.757174162829904 8.594944921279575 -0.12742772932807087 0.7624470156325772 0.023847753151875057
Ni 2.4393080410796104 6.550921568603023 7.245582458852965 0.21639458357678212 0.5848755755705798 0.06645041831375006
Ni 0.15193187540650993 1.3790144269721265 7.272956785872772 -0.38870683212236923 -0.7712741270059039 0.09912682550084864
Ni 2.6785481179655783 9.038222354776329 12.612955432410313 0.5300737972393516 -0.5729471995641101 -0.7256481016366728
Ni 3.3020084819789925 8.604506360114597 5.398616964984379 -0.8824627687672931 -0.9964659971593418 -0.4704897670281316
Ni 5.130918943714031 2.0438897560151665 1.7989235777814647 0.8634985689599644 -0.0865261060177026 1.0175315595803898
Ni 0.02202953280977741 7.7190480990499655 11.106243935508914 1.1267000855879563 -0.4719768930966194 3.481717195676423
Ni 3.8986845708937214 5.478956801716133 5.539536393372483 0.790225471297426 0.1806343952580373 1.1886659857677917
Ni 2.9735462458882957 4.499581943206408 12.545958562234476 0.2087308963839373 1.096695568806066 0.36972643436512453
Ni 5.721833676606494 2.760171967053985 6.7581912222156735 -1.6953787396836995 -1.288954178566593 -0.7481514249455116
Ni 5.366281006401437 8.039513090549368 9.796164458057314 -0.32315167192937894 -0.3918566906052607 -1.339932469386673
P 7.794771428927162 4.806381109551546 8.392229614963755 1.3000410325083738 -3.432898888622139 -0.11452799054726727
Ni 6.275879441974824 5.101360682382404 6.811243013104765 1.2884055051519747 -0.11470282556223471 -1.27474009184974
P 2.65359151941502 3.3723137250333166 8.724470595511567 -0.6755946366237074 -1.6778661847212326 0.5047939396266403
Ni 1.125737423094711 1.118936981928332 2.6990236618321517 0.04476213470703904 -1.7824578899913948 -1.7779044662927574
P 3.6422439238543207 0.33450284624544346 10.655637240727796 -0.1869456821880458 0.5154311076255124 -0.8918557799464187
P 7.114356210452082 1.2046151185879632 7.08787994987826 0.8462986601419101 -0.27702608121591 -0.07088762814949726
P 4.78443043588217 3.2724409431014347 13.45368942781224 -0.5423305031195176 -3.3048106428919337 -1.7732232587670043
Ni 4.267949453982692 6.964672284424309 0.015156726785147762 -0.7413966227201811 0.8768734476049738 0.3663024962852401
