# total energy = -381175.34933978185 ev
CRYSTAL
PRIMVEC
9.18199163873592 0.00000000000000 0.00000000000000

0.00000000000000 9.18199163873592 0.00000000000000

0.00000000000000 0.00000000000000 13.43877289322667

PRIMCOORD
 96 1
Ni 8.634010099375983 6.667043913940893 5.4801971587658995 -0.17179648525143315 2.14433628906701 -0.6676273021475148
Ni 4.2877695892528065 3.978621122735142 7.586415588506242 0.6939764815650048 -0.022795143517644615 0.43279739468368045
Ni 2.078545744231687 3.7458484602061297 7.993825135377905 -0.9022067841634397 -1.0603026319993287 -0.5207018691061484
Ni 7.2187530457588975 2.6486831326745075 1.775315989333533 0.14188478529366533 0.9161627321228997 1.0341609406069545
Ni 3.2803674090875052 1.7683505307009542 6.545072177342617 -0.30711184485769694 0.38293290575306954 1.4044468470199747
Ni 2.3634537536045994 1.5272130740587342 9.068469792743265 -0.8787079297105512 -0.9046092229573452 0.022627764701844903
Ni 7.830815406672525 6.080571762899394 3.1871389781884454 2.266952713049367 -0.1090487126002509 -0.2059772448982001
Ni 7.090792814406907 0.6385735245174323 0.7510501638682128 -0.1469722271189017 -0.26986967267678685 -1.5569034942922155
Ni 2.82586801961476 7.516791302751883 4.753549055090069 -0.11324552429041787 0.5447751080052682 -0.10019537597467906
Ni 1.5466238037572209 7.204493413203671 10.93913433477689 -1.3881825626423125 -0.5149497971137196 0.5848390659056896
Ni 3.2299307306420055 5.6464747581901475 10.448928017370617 -0.4686172325957671 0.28863538332006416 0.651870039313258
Ni 5.2903879519285555 2.165646114108623 13.312354054373595 0.4936911448452595 -0.6934838581993025 -0.8894849657213972
Ni 1.9644044098504732 0.535148492232294 5.05770894571124 -0.2374364918487459 -0.30017603696981204 1.3535264060210237
Ni 6.670744256452005 2.1657287520307076 9.204551495437881 -0.4282560551699011 -0.6768346796783956 -0.12207829209069943
Ni 7.051778533191737 8.051587206516619 2.165147531978714 0.7245114169290684 -0.5349825473948787 0.445069270072498
Ni 8.101004683923076 1.9173467042190904 6.850992255704185 0.42296395353302635 0.09462328120354026 -0.6171408633621889
Ni 2.482305449544623 7.237732221864276 2.3391930960788945 1.1055920999647477 0.11859984662379575 -0.07420897921324639
Ni 8.9663890039907 1.1189541929878708 9.976313477177843 0.46175341559639826 1.2507154468003685 0.5940981226101123
Ni 2.182513432205179 0.292216874481709 2.7750796709008347 -0.7369061910489954 -0.0660935491949636 -0.6594463089986191
Ni 3.3066921782670513 8.128385382107034 9.71365251462918 0.2446954874040044 -0.19435123062349755 -0.09267104257317589
Ni 0.5854373406171762 5.016103506539157 6.329204479074667 0.4168807234534239 -2.2422099588870483 1.1205615767903863
Ni 2.1140433227625994 9.089987789454904 0.38239872065325825 -0.2175132705622576 -0.9546585742052526 0.036469298570627515
Ni 0.9236899650938246 4.88045794843332 9.98498127700536 -1.3088244351279588 -0.6756925956541524 1.6405751615802584
Ni 5.322561649593408 5.802302333267259 11.316400322269574 1.1176446602539076 0.5966113759502693 0.3107926361433938
P 0.053164648073418495 8.041046280455188 1.3240440698177498 0.36912531044601593 0.4657527665637785 0.5681392366525054
Ni 3.7427816750976652 4.22880284084993 12.488678011781094 0.07298641966005494 0.23187699548309743 -0.03788957595692184
P 4.319318911506354 2.158621890731451 8.935762471867093 1.1916505223174123 2.150957908148586 -0.5281675813555742
Ni 8.604811366906167 0.5023513373552724 2.8625932303881925 -0.3189553744598443 0.7668729126144148 -0.04916951974611532
P 0.9725657050110638 2.684768358651353 6.243438252539826 0.5097669673611995 -0.3631462100444455 -0.03303713296062697
P 4.634940681920627 3.1950483455310543 2.306523570881536 0.3457367563187465 0.5219977050994364 -0.16241324426432027
P 6.968332595869198 6.783095102521391 9.6970551470781 0.07996902162547519 -1.3308901566787468 -0.8221657716494485
Ni 3.728742410334663 7.959087825730169 12.20807635634791 1.2895815277379468 0.4274448721225155 -1.0267325093533672
Ni 4.974858001427709 0.2393882872914337 8.416112262822159 0.9874272839958412 -0.2781231709348307 -1.749683266663535
Ni 0.8441454558928035 2.2632415000902757 12.343216904929898 0.786062341058672 -0.5925060955326441 -1.5701935265329023
Ni 4.6796202517942485 7.427955536511175 6.449468365283199 -0.1350425655608513 0.6813729338683814 -0.42804008250435316
Ni 7.571892432799479 5.176090523694516 12.124622155233164 0.25366915165752446 -0.125352591966597 -1.4434983044954817
Ni 5.593751763900314 6.246150612782462 1.9744779725525592 -0.2371194748289594 0.252372801443604 -0.18999295365480182
Ni 4.864453737522978 8.556027446902355 0.8649371570892335 -1.0305423700177605 -0.3776163786361626 0.5029311753862887
Ni 6.9111379717954655 9.056032785469567 4.475043648280428 -0.5180400060032692 -0.2250455743835608 0.07686158634474505
Ni 3.498366247546098 1.9259869580725795 3.715726937606374 0.19007188652185328 1.2629045326673927 -0.25729389289430526
Ni 2.187462525538899 0.43304750309877454 11.482114147425381 -0.9046639874546807 -0.03649500960224037 -0.5976349321187772
Ni 0.7387086493044779 0.6457143591846569 7.548746469022778 0.9583532494480205 -0.14378277364732658 0.695138620193906
Ni 4.3918107331570395 1.2562525095353962 10.929995498793492 1.139324459220186 0.03211924913204791 0.16805013083512352
Ni 6.802083460618112 4.5549839013083195 9.356261865596922 -0.04203213737038567 1.165325254159322 0.7468586742760169
Ni 2.973642988284316 8.739107172284628 7.3734650088878695 -1.3410017911914518 -0.9479806479644447 -0.5424181777373175
Ni 7.494864707425495 4.672798032226615 5.229806091248498 -0.0843740926717063 -0.40823153241885823 0.29345054532052045
Ni 7.021367777864684 7.899772161656269 6.704320962394023 -0.669033438466422 -1.329323326412259 -1.335973227628609
Ni 1.4165976243531209 5.6913930598386795 4.14458469805547 -0.31507300868630256 0.014834493909671228 0.2371842666286238
Ni 8.797495455232914 3.4772476674578683 8.41689089568802 0.3227194694879668 0.11282977690923794 0.6101294650413621
Ni 1.1457931536826087 5.566306791776957 1.6024530657182934 -1.3599397657465353 -0.21064945356288883 -0.015018070675387038
Ni 2.264857530566592 3.8850382669702537 2.9926533831602606 0.33618330830235654 -0.36766389540914096 1.1578317739957544
Ni 5.353312138600139 2.5258280885090634 5.5235508490896335 0.8618250379122835 -0.9476847139905807 -0.582964474590796
Ni 8.97923460987915 6.922799100800706 12.930007671070989 1.5319676502824844 0.37227362626701044 -0.5355841855346196
Ni 9.032765619407142 0.18311094415283688 12.783686211630984 -0.6679512611458367 -1.3291562047067753 -1.2067616669272379
Ni 7.584591126826446 5.7812021171617145 7.452914943578061 -0.21880653545238446 -1.080663197933552 0.1519164584980545
Ni 4.715062738377105 6.388333748724309 8.76881275067656 0.7513439637408802 -0.32690573965517244 -0.5213991522834891
P 1.293127386767715 7.228541048530224 6.720017576594383 0.12553873983547414 0.3906739831510691 -0.6406240340857935
Ni 0.9387208849218389 2.1572262280473593 3.8150393559691125 -0.2575317199367242 -0.3637583897071477 0.9715496935336363
P 3.0744153432705454 2.1066518197317188 12.549945767214451 0.7128391227974626 -0.2048223053581505 -0.21387156004461233
Ni 8.920313771432987 4.010482632694342 3.2935343846729497 -0.4132829787998366 0.3044749214554821 -0.6858101437041285
P 8.76144695722144 3.3256438083984023 10.907055211622868 -0.42827328156108174 0.9291187780629352 -1.0743287710750917
P 4.548574871351108 7.936665402871273 3.195780150241068 -0.07314917049016434 -0.14597463909232278 -0.031004933021946606
P 9.221106625828785 3.7486489675656562 1.0833868313227537 -0.5289067735144439 -0.829762867270416 0.07560971621551493
Ni 4.136716649673903 5.578674934115585 3.939267107840292 -0.6752750485007596 0.05413123462676484 -0.04464206418940699
Ni 7.541463313489742 2.20651515757502 4.338304515005673 0.038078552039276355 0.4402157986349386 0.04671848710246147
Ni 7.9369959545596105 5.49299777289677 0.9456780797622094 -0.6476197486773363 -0.29796283136857715 0.9286912036072135
Ni 7.846544157842587 8.3241913474903 10.846473350942809 0.760561111463774 0.2147799307914946 0.9110341526470827
Ni 6.623401909088997 3.5831252096306443 7.125250991517825 -0.2986811975918405 0.6297927477982443 0.8509140474267345
Ni 0.3462703393171017 1.5651806082608353 1.029732783110769 0.07742131550295699 0.8000370580712093 2.04623430528625
Ni 6.089349746623023 3.453998865378129 11.304279175498063 -0.9882490085661882 -0.7068803341108665 -0.30366656662157376
Ni 5.578445384332018 0.7063017290595213 2.7091897010255557 -0.028003170081145324 1.1829409103585564 -0.03787286378637349
Ni 6.7044972566278025 7.484691061017774 13.25302186271528 -0.4629713471638994 -0.4656473513341658 -0.8964390284417272
Ni 3.4740615164619486 5.044833957450493 1.4860189880988053 1.7481557742754152 0.2715799704996742 -0.08551540536500112
Ni 2.850705306196787 3.4035346409586014 10.376936614248109 0.36619425284215 -0.9008039902786422 0.5372381761982747
Ni 3.4323569117833643 3.6796738485992275 5.297496649626082 -1.3417808354493215 0.9979567227722554 -0.8318151218137545
Ni 2.427360413349853 6.449348081196609 13.224384149916505 -1.416127882902329 -0.17315094239679857 0.06993066355286666
Ni 6.160914187148096 4.328712088649945 3.389298881580866 -0.28910203854383765 -0.8609650039048334 -0.6124249459437582
Ni 2.204339025626798 3.2363489425905585 0.7676236582418022 -0.9778075015178902 0.4585241100258232 -0.43627018372362936
Ni 7.741336901037828 9.133840980107681 8.340168930625747 -0.1679344311928656 0.684391408979731 1.4052042940112897
Ni 0.4633664385123991 7.892766302261783 3.728130889711239 0.5157828345379762 -0.7862114650420267 -0.7316737390054625
Ni 8.899691018877263 -0.004419292433245767 5.611668583607341 0.020597107425061302 -0.3948823648054619 -0.39019267263927637
Ni 5.500986105364926 8.201033297610547 10.23793871110305 0.7581630435452427 0.31252838788757786 1.7462562432598572
Ni 3.6234066056511076 1.5628116544944164 1.2610032718561137 -0.2386585371813051 -1.3072758596939162 0.8971165141247259
Ni 4.426243200692198 0.2848253714508284 4.882346684052514 0.713435875841197 -1.4305039491183429 1.1233825911789492
Ni 7.708153184325278 2.753835297531209 12.79019073429816 0.6176805379157426 -0.25001741383755005 0.5240777275569168
Ni 2.0277785140978497 5.989449680814351 8.489017274083267 1.4629546134478806 1.7571399800518965 -0.8926754476342369
Ni 6.2082014425630465 6.812844754471768 4.38961348262873 -1.5063653763333475 0.02016387654238463 1.2333224481349019
Ni 2.920754718150313 5.677684346764015 6.310927725307005 0.6758926274801005 0.21542913433971933 -0.06072945666957282
P 4.534553970570792 6.277452021269757 13.41100812395706 1.6424330407246037 0.21082583123975304 -0.2820032227155272
Ni 0.9356540998133742 4.515280970742446 12.624610966215958 -0.5243847172743743 1.9170952496940272 -0.6575187529586031
P 6.391180166040549 0.6943201485564204 6.483777794134364 -1.4022269565505205 1.045254993637587 -0.3009471108078817
Ni 9.086030351186196 6.928758213182124 8.610382999252923 0.35218456882661925 1.4414169964864207 1.2680763066763194
P 5.55709725446022 5.5870948201768496 6.76611300953305 -0.021910941140478393 -0.8047210938104399 -0.3900576897233089
P 1.3300665379394327 8.798514656271953 9.52631601806043 -1.6873620400268101 0.2676256138376165 -0.7503592312301077
P 6.6580731083990665 0.940988836783488 11.878006722555883 -0.13938233058678576 -0.6184241009499866 -0.011635270246083186
Ni 5.973417923929981 4.332357339213 0.3704575409120654 -0.9928844504556708 0.8406131797213586 0.028861404316382552
