# total energy = -340858.55912286154 ev
CRYSTAL
PRIMVEC
9.38158034579003 0.00000000000000 0.00000000000000

0.00000000000000 9.38158034579003 0.00000000000000

0.00000000000000 0.00000000000000 13.73089114073973

PRIMCOORD
 96 1
Ni 2.5715567633215497 0.7125356957416388 0.10100865794618209 -0.033625401363929185 0.7183217431785888 1.137058803114461
Ni 7.924611288368958 5.002943339085733 2.428404171465643 0.39351890879903195 0.17880197003498885 0.8603258276589377
Ni 0.9990350781605305 2.8527508622210194 5.567945245087166 0.37396335526460756 2.5604618795219647 2.1158551509081818
Ni 5.762935757520561 6.2000986247850145 10.610133609846546 -0.1852289566072552 0.1075775273713631 -0.7836372765569471
Ni 1.2534635291715606 1.8291266627441203 9.314995225767863 0.7450609589456458 1.514645871174585 0.6138429093372073
Ni 5.362680026180789 8.307998938775182 7.009167026630012 -1.0291565454138274 -0.31385893377354335 0.9700738803190584
Ni 1.163756860714058 8.0216637340072 1.162004381560339 -0.8853066659739913 -0.10894458292221881 -1.4430884706515728
Ni 7.495619777329821 8.690673589097448 1.3037572416724836 -0.21835376418568198 -0.5831771048222344 -0.33187053985961557
Ni 5.147438435047086 4.841242425308958 13.43673425583054 -0.44503276040760775 1.1445121740687128 -1.49062276878711
Ni 7.370019183593255 7.890725021221029 8.489438696981424 -1.0629326134230082 -1.4477748203836485 0.6842625967113507
Ni 7.501061093759999 9.401938080742038 6.503457644715408 0.29601393517232244 1.6653351421337577 -0.5761556791990787
Ni 2.5062046766791153 5.8426791879628075 13.284389591839656 0.18501349816233942 0.32247572890827686 0.6122591097898552
Ni 8.943188197777864 1.09288840500103 10.523849341792026 -1.5553682885946116 -0.9393839074343694 1.7470576561152298
Ni 3.721231872377512 9.449221244204264 5.5929621664539075 0.3258474735939872 1.210093045293316 2.9983094350350425
Ni 0.45202235190886253 6.018668248158823 4.520250725670777 2.328682843069312 1.816912729235155 -0.7244332553929653
Ni 1.888540209213621 8.205345689845878 12.416116852760318 -0.20810251877131902 -0.4378910071565039 -0.7472553954938034
Ni 9.110752599087157 2.758109482656149 2.0625169204884752 0.8175496130336759 2.760423514353704 2.2190052386358103
Ni 8.637911582884836 3.5915784360584695 6.951551929056486 0.790620906963632 1.1153481509102467 1.0382004007836507
Ni 0.44413901019114244 4.874500126593402 10.864677454292217 0.5133827097369159 1.2640083072545327 -1.8151648933061124
Ni 4.228540813690988 3.4184413761982717 6.15174127040683 -0.8563187633820737 1.7279613016054112 -1.3386600304321528
Ni 7.701629893692329 2.7707746157263884 9.53198460526526 -0.20067177352488666 1.2700578558827225 0.28941159936445643
Ni 9.293149278458708 9.222402783286357 8.55223055042766 0.561580095377749 -0.18035080257934746 0.0657690759760093
Ni 7.122945891343017 7.414365912499197 3.3514362551506696 1.1644976160517042 0.6866020434778046 -0.5184161583957653
Ni 2.500200465445816 3.3160883378306343 7.754012884070839 -0.07052921636881403 -0.31355837181398905 0.44615299005498005
P 3.0610969920164823 8.891495691691183 7.837523957061983 2.6902455106767214 -2.39533663564312 0.442263939413219
P 6.150854711091913 0.28093704360604366 4.579182997083608 0.026090269329148614 -0.6149631389845797 -0.13817956852793623
P 6.528463308186086 3.6314782960197496 11.37786958445632 0.37452796951882594 -0.5872314773972661 -0.8950339205640844
P 3.2382587497190003 3.5403081010741304 9.990485876358054 -1.0882368965157516 -3.5003872612821003 -0.8806717383051414
P 4.267408699846545 6.554506574410519 12.282762383110748 0.999233275491834 0.7230196628748903 0.13206291410723706
P 0.5598504803948646 8.346782390710269 3.3477699336663367 -0.010804803924987843 0.3649490675811392 -0.5932530010009976
P 1.0998683005597396 3.014601881278626 13.686182964149953 0.3973231130364706 0.2870508124417637 1.6399735234405177
P 3.781865024253776 6.29356730684338 1.5942522390355347 -0.5328721859200951 -2.39116990585994 -0.5529635573533316
Ni 3.215939970775223 0.25843438569324656 3.5353752662827738 -1.8730962184052578 0.025668865521013856 -0.6136251368994464
Ni 2.142602778602622 4.233550577438772 3.747654154436047 -1.7428253632014372 -0.969081434498802 1.029629114174872
Ni 6.946544041624713 2.5083155321908213 5.374724098651585 -2.3140931181805953 0.5558683897049524 -0.33214179124313126
Ni 5.528283677259208 0.20989221418803744 0.35682745912092295 -0.8493760135156533 0.864661478919814 0.35387738314800987
Ni 4.85290372931363 3.7970162760378035 8.609776224308801 0.5568402666999184 0.6286825454532011 0.2692657205442008
Ni 8.881917098458063 1.5591998414871382 4.994570278889297 -0.9945045025575969 -2.4182389941625897 -1.2058849207492393
Ni 2.6811992893896144 3.4279918246912375 1.4117551767574272 -0.03173101255469374 -0.32186843434158113 0.2921056012568518
Ni 6.542385572983298 4.592686843410498 6.982363852421364 0.4046687547682644 -3.22076513720424 -1.4608992735807484
Ni 2.3190421546411337 3.8514294403395724 12.098150712688915 -0.38169440536027816 -0.0858920719781295 -0.8918588652702125
Ni 0.6774335758189666 6.651587164788916 8.676151841334914 0.33780593150744403 -1.7593590991904022 0.9552095616127163
Ni 6.580859432776669 0.9759845359726949 8.35375009021491 -0.8954175291557482 -0.47892195695588485 1.3149709143453288
Ni 2.510098032400707 7.451395008964556 2.868575711452782 1.1033107601297385 0.7455713229231612 2.9035997647652834
Ni 1.7238653345603534 0.8978622425634379 7.302169720340971 -1.2907341532851513 1.4174270613297266 -2.4515036697529906
Ni 3.896695564090613 2.6771183020669813 13.221214031769291 1.8215512564484306 -0.9805963771169369 0.3410442359390836
Ni 7.525031030792933 0.2427877864824724 12.666403336178377 0.014871774905509871 -0.7281824380227524 -1.077128702417732
Ni 3.533178100234588 8.005245968916148 0.5807592078568219 0.7368144026661374 0.9046341626580098 -1.4040161872404595
Ni 8.706528459385378 7.027235011652215 10.906144038122187 -0.23298334117339872 0.7091141085373917 -1.2919813954286912
Ni 5.473832986637231 3.749414138853808 1.6286347917682162 -0.7445163992960855 -1.2807001660879167 1.5941178985589837
Ni 1.692164975564547 7.814565354358655 6.565274751994238 1.692628687742388 -0.05568032428143959 0.02238068168804533
Ni 0.004771471614462018 0.5412580650477533 1.8381404848581098 0.547613863005644 -0.5286465778745219 0.9941795151180104
Ni 1.6165212956050359 1.494466939128137 11.83328150123798 -0.5461249371649433 0.47844810264325993 -1.090487126002509
Ni 7.844370634183952 5.24353395952002 9.158215888886383 -0.03549665024471307 0.030486855734947495 0.03732496170270346
Ni 4.560170286950165 7.629063371989885 4.513027847188719 0.08915223078664 -0.4879712116423467 0.17918763550918174
Ni 7.374831934159947 5.362023315577147 12.15665799852539 1.0642760148247798 0.8402658236842689 -0.08404859101148751
P 3.9381152400203217 1.0881600886548073 1.8073426338633087 0.48126191794297113 0.8903388290812603 -1.0124783134271982
P 2.793346697331571 2.206744641418345 5.060094048446683 1.9814959845676008 -1.9986311015859903 1.2667622158505862
P 0.34897132398535374 0.2797624697835296 13.046377967761671 -1.0881289101829776 -1.2124916274324797 1.2609741484138994
P 3.728915386440124 1.17144037477667 11.608822507703158 1.3819008433986588 0.10073376497665233 0.937675923604327
P 2.8084416596352852 5.9593954253901025 4.989050157186682 -1.1194110081257107 1.3326328504014662 0.7455628382827288
P 7.441722599930914 6.576168642750654 0.8416468767336742 -0.33190499264197676 -1.2541432415349951 0.7597800103233754
P 9.380735709824451 3.964590058927148 3.9319637379802064 -0.3823212403109996 -0.7563812690544716 -1.0297790094891748
P 7.337314995531882 8.865039635944463 10.530261651757586 -0.5826669979550352 -0.05640691803481898 0.1999912025180943
Ni 9.21155767674621 8.301009661636419 5.362187493228058 -0.232741914586554 1.393970372968683 -3.414769783121596
Ni 4.727509530338209 5.95184325344822 6.062984956008598 -0.013146564684287036 -0.5308070758609504 0.3313473203662939
Ni 3.7653628249422573 1.3108225096096668 8.687178012370062 1.7235189495633414 1.8748867346467777 -0.08730026517956578
Ni 4.07824790125748 5.108326627810176 3.5363912914024085 0.593149642653914 0.7712751554471685 -0.2703245008260183
Ni 8.38031215781622 1.9203343840099476 0.2812813475939531 -0.46766052510945266 -1.7842849158978042 -2.1008771894421105
Ni 4.984180178981674 8.562990284589333 2.5476843947211565 1.5963647856116314 0.07330112268699635 -1.3666899399861752
Ni 9.179904225650665 3.168919491554453 12.07387399798828 -1.9202299386682669 -0.44491731787566596 -0.6612810482145127
Ni 5.347481866496502 8.467823536541548 12.013582335625909 -0.6061614815325496 -0.4226965588042527 -0.19580287546835956
Ni 3.8154416992599884 6.491040185358542 8.623630941729639 0.5624041339409411 1.2426599234857438 -0.3498536067005975
Ni 3.0068339329955456 9.195393214316564 10.23691465405872 -1.8720919455104597 -1.8176169543910308 -0.28942522621121125
Ni 3.4231415478043385 5.392991911328896 10.611863573208142 -0.6349514091810484 2.9141906529072523 1.0322850637404801
Ni 2.22761865703411 5.592247290053942 7.08925851369219 -0.11236235035451617 -0.8889566040217529 -0.5227857482183706
Ni 4.467752341857627 2.5128937432562117 3.8193434984036276 1.0311113551473534 -0.08210586546281988 -1.5359621161538581
Ni 5.717444475848271 5.9774831117304155 2.272380051778351 1.4344511066915488 2.2322240513189295 -1.9603574028167723
Ni 5.182591215502038 8.611352329757542 9.615344634817566 0.6748456742728248 -0.2689803280932981 -0.9176537148461293
Ni 7.991173598838105 5.013413182423797 5.17584585944463 -2.4869306431020335 -0.5453826596822802 -0.6702608831156198
Ni 1.6203208355261078 5.6550100606020175 1.8769989894336145 0.2824914752058554 -1.1937380009740601 0.1315018993974445
Ni 0.040699170581712796 5.248768881189052 0.3676856998731414 0.9609747462312676 -0.028800983392092333 -0.8271940781019753
Ni 5.820838869601684 1.271579360252029 10.867340884868987 0.4085518918727544 0.9562256615820564 0.15666194360283986
Ni 7.621389239507325 4.030495658792653 0.2517668967502695 -2.331567620816275 -0.8649967507720459 0.4588357277289711
Ni 6.826825698580769 1.3371096969154526 2.44096798347132 -0.30124972964996505 0.2525530357752102 0.3991457680675061
Ni 7.059244962789738 7.4139437413968565 5.55915751905243 -0.9642467321143199 -1.946730556061957 0.8138099434855856
Ni 8.829098802765138 7.273201277456314 13.1860903342125 0.5108211196573268 1.6591025309604845 -0.2565192195118098
Ni 1.6267003099614876 1.9879380498648695 3.3532206316765656 -1.0639993641246257 -0.8761267992469364 -1.4674039074684857
P 8.592410919632496 1.6865641722734854 7.674098708871644 0.5527794663669835 -1.403349500190738 0.17607377247054837
P 9.027200247143787 7.435249309695014 7.14411355041441 -1.7760129056969995 -0.17590690787538094 0.12819931738677276
P 5.5586987597878865 2.3093978903476478 7.125604631129761 1.1844480910317021 -0.3671296201722258 1.139467926776586
P 6.010121628731425 4.369968132975327 3.632191296103704 2.258237444663556 -1.4912352055601286 2.1135365300773343
P 6.128104379465742 2.2909724671254628 0.34012824662831104 0.886173641959977 -0.8059999605228635 -0.794857827863115
P 1.6308751130846406 7.293127753486824 10.400586637804425 0.6759263089315133 0.16627195588877816 1.3272389330794045
P 5.887382416910727 6.123995247402954 7.948070867447062 -0.7237192600450763 3.1308698576039884 2.7716474080939815
P 0.7718676224646865 4.273900753242549 8.612343962769042 -1.2069547567746506 0.7171248946570101 0.015281865859734971
