# total energy = -381160.25308892265 ev
CRYSTAL
PRIMVEC
9.36063497837760 0.00000000000000 0.00000000000000
0.00000000000000 9.36063497837760 0.00000000000000
0.00000000000000 0.00000000000000 13.70023547834853
PRIMCOORD
 96 1
Ni 8.721818174598223 4.952618207574066 4.579207512816535 -1.425133943055681 0.12960108283030583 1.1869795992043042
Ni 2.3336249492234398 8.121492590092094 8.946623177287934 0.6474071184458978 -1.1394224182506312 -0.8739909838508562
Ni 8.031405841845686 1.1216848547763147 12.620396153975639 -2.7141076620063 -0.6176314298453621 0.2098902067993611
Ni 5.553084201600529 3.755823620053654 8.650328199288342 1.1835291787618583 3.217893986304032 -2.1711217846909703
Ni 5.567677431080595 5.1017705607077195 2.0598853565703306 -0.3115598533267215 -1.1213794447059913 0.5105346987651594
Ni 2.6748481655395624 0.5886818910165496 7.471368429040777 0.11262280310475443 -1.0563899272084838 -1.8870035725149696
Ni 1.5648734647591185 2.775924298910794 6.4382061604543495 0.4061787636548876 1.111425418817073 0.43977999664910067
Ni 1.42569954820388 6.012419906421764 8.708293929599634 1.0696241665105708 -0.4722152343596706 -0.46371028221245303
Ni 7.218191342608874 1.7597993215217154 4.634528863828202 -0.5479493919681917 -0.7068697925879052 -0.7713255490691296
Ni 9.464444127645699 6.869620028061928 6.328699839482254 -1.6272005400455651 -0.41538639829608465 -1.3875392726313587
Ni 3.542841098976082 1.6302949406001572 11.985253688743978 0.20571962036143926 -1.2994494216709622 0.7592022834430344
Ni 7.218874668941166 6.244076893703782 3.382012290131437 -1.0042034750129158 -0.11559165592509126 -0.6091503889575445
Ni 2.7095480383314827 7.769551447057129 4.274664879592514 -0.3495530447410432 -0.12166537292299692 -1.5884930961730384
Ni 8.568228880622009 2.9620417984310934 6.063820087562231 -0.42777937264379867 -0.7862983683288781 -0.04885867337391585
Ni 6.357303130901264 6.108076232308095 9.949658243127992 0.34840813250332253 -0.6660599576603947 -0.1716825853813882
Ni 4.287198769441011 2.159751159876281 7.434665380425422 0.37529107293709557 0.24896171887952606 -0.2754247981670611
Ni 6.431570406523356 6.9249320184389065 7.408689619163599 -0.25582425032731426 -0.16739398530836333 0.49892771065385044
Ni 1.9019686411774166 3.481210680184066 12.75789170873115 -1.9539031625509964 -0.3931540692604455 2.8159822254556146
Ni 7.011854872160453 1.9688971792033754 8.472239316140751 1.0637569090965162 0.40299470949995114 0.9223572909693857
Ni 6.7998739389945975 2.6826081316966985 0.5077919663520287 -0.48150848673613844 -0.1922724937175979 0.3165508787834097
Ni 9.505818132970836 9.343514088099214 9.776405999924178 -1.9426072779222026 -0.9451532058179786 0.10899703342670904
Ni 8.660889803407878 0.013644997186075555 4.347837897019468 -0.41862007474203394 -1.4361326081590298 0.6477336485473812
Ni 5.855413980784084 -0.10371957660738945 1.09731069810977 -0.20794748125069348 1.1842015222385347 0.02255114582763858
Ni 9.298517517149454 3.0966290039887485 13.671683419510272 -2.044581857284492 -0.05413457706087452 0.7301380190872264
P 0.08835690295589242 7.173447508795714 3.9461337478511322 0.04250162080763648 0.5022084382876512 0.5463635355383107
Ni 4.414063451380287 7.810869288574134 5.8090910078989 1.0930600289360077 0.04924228196557971 2.41928697581113
P 3.241615874685823 4.256289953698115 7.234299122781611 0.40805181230788434 0.9034457987768635 -0.30362568608130935
Ni 1.369591903878342 9.300576856781023 5.453173467248072 0.04779346533419511 0.7213731284104028 0.8180388939652686
P 7.464479001909713 4.272334081554967 11.030155369209476 -0.9965097059130836 0.13724985762481523 -0.2720512537091379
P 7.20739853081252 4.6544726320964696 7.289470703638254 -0.6436651349049624 0.15554479927926115 -0.1694678371182565
P 4.463674815231697 1.579710070741097 0.3944768031250015 0.4713459443808398 -1.5207612400437034 0.9974849253421596
Ni 2.051102273041693 2.2121987960384417 4.0823824660660755 -1.7133402092581265 -2.135713837505322 -0.9216425242905482
Ni 9.06309755472248 0.21085484881277503 0.7896256998206693 1.9559291918420896 1.5572598491903695 -0.062471893281976276
Ni 4.715372921382747 2.5686330437241005 10.094963375404488 0.1148123545569055 -2.355397890466653 1.3655841085165061
Ni 2.3630641453201724 8.57522127473465 11.158005725981498 -0.6090586005746865 -0.1912347964817029 1.9083902657208618
Ni 1.2593423485119442 1.9672684287674989 1.5397008459536068 -0.22423104890206544 -0.30450577469341755 1.000375359516077
Ni 8.204034666779213 8.957884020818735 7.0529499305718595 0.7838560774359726 1.2569128338603321 -0.42672239213419416
Ni 2.8002900310061185 3.1883913058444793 8.954980351938223 0.24988011692873738 1.0778473257513115 0.9766579612944792
Ni 8.744461549910781 5.181504446988156 9.445175261138505 -2.0159120001536253 -1.4300257239303438 4.14975150345437
Ni 1.3176403813546955 -0.09401821481576655 3.0249986191585325 -0.005318326889119873 -0.017937301204711043 -0.6201981621312739
Ni 1.689220135967068 4.122882188111266 1.5416871726346013 -0.4175818632855067 0.5294436198545205 -0.4376976601987752
Ni 2.0698048211502056 0.9459763810301225 9.530636919785106 1.481750663108461 0.7140205447000736 1.1298872250666863
Ni 6.529847710122593 8.90698088938025 9.098312262422292 0.1853053183711454 -0.6223216362321798 -0.8487849168988736
Ni 4.310927978377488 7.167915373694548 10.514711083999234 -0.10322182150582868 0.31216740500373336 -0.2906889234149832
Ni 4.06552021873741 3.527396051739322 13.52702323496384 1.7164448163253794 -0.45051332390620474 1.889601415149133
Ni 2.181158931409899 7.268579639139466 6.574824623739506 1.4602351576341885 0.2784838967083591 0.38431178837846713
Ni 4.815250893513793 5.741981809623445 12.407522216260457 3.0448147776854335 -0.06056619161883118 -2.4853198469714877
Ni 7.060202550328855 7.725528382115019 5.251081108567618 0.19375679157260825 0.42834964332497194 0.15763382059780595
Ni 3.4840563131295057 3.246708059956609 5.368670337593617 2.8489525097340485 1.014961227750052 -0.6854044236252776
Ni 7.606199011100345 8.032285741506445 11.017578420441412 0.7076699198916974 0.28798258022741374 0.3292937802713748
Ni 5.477412830775094 2.0670808764557225 2.897531112345289 2.7046547441235163 1.5700618860510445 -0.3511227032210082
Ni 2.1502969188404464 0.26372464959940695 0.5659140192626279 2.0932145306905303 -0.5285815289645412 -1.3494314100160438
Ni 1.5019044752065838 4.515813550449123 4.3730058355076356 1.948156489875206 0.2966191728564892 -0.11081634602363495
Ni 0.20840704284161585 5.682382648558931 2.333931041977768 -0.8160133788948076 0.5770375675833997 1.634547981549572
Ni 3.3867525155379195 2.997696455961286 2.3234911261091877 1.5837339842214984 0.4960051376904167 -0.020946006124047796
Ni -0.08940903829492988 4.384755304169199 7.642196267860153 1.3963103339557694 0.19577587888516607 -3.0600868733531557
P 5.099449123304862 7.114063642329046 3.8973610968678516 1.0731869441611646 0.7127295938027919 -1.8560122663397778
Ni 3.909459717203313 6.208366072365455 8.08220694236606 0.24260209521008538 -0.16975554356200442 -0.22305734030893845
P 7.547432946523147 8.366685055134328 13.83367575524675 -1.5212227530611542 -1.54396004675767 -1.706820405861738
Ni 3.8607656955514202 0.7114728247391962 2.823577417985277 -2.615794076435366 -1.4141085384794547 -1.0955347157287456
P 0.46535084867235077 1.2376069547642132 7.238518896899388 -1.1033102459091064 -1.8759629984300916 0.14450576785628017
P 1.779381769290989 2.424881776805967 10.979436642274365 0.3160132611123848 1.9959430132308655 -1.983396801134739
P 0.28612745660045974 6.783352418768609 10.496476567625171 -0.19995135041909437 2.0956015428654684 0.5190841309970674
Ni 9.3650341872491 7.740645807137667 12.835257354435281 0.45294404483488443 -0.2750111076684102 -1.7007713714541803
Ni 8.56119904397061 7.143596444772668 8.442591377890453 -0.12176024662964835 1.17019543776743 0.9702816254544903
Ni 1.6974668551280288 5.278817605214432 11.281705577332442 -1.3016153189740294 2.03768435883371 -0.23004431314973284
Ni 5.7052413184693345 0.5753055440460467 11.665051649748818 0.9678398487822171 0.5647055283806081 0.11104903085973133
Ni 3.4400332481873956 3.993321643381574 11.429557738307802 3.335274872919062 0.7423083359011732 -3.070712728498118
Ni 0.6747351417754925 2.6218763338348214 8.965379081014174 -2.473177812292315 0.3269178238400305 -0.6594889893110965
Ni 0.8274052214252525 1.1766692229391795 12.216718783014873 1.6689305727944999 -2.844378774320437 2.123751008716491
Ni 5.901636794878096 3.1022173028980493 12.01542114221951 0.29481194444442127 0.47109654737419515 -0.04314182549479667
Ni 3.791440835045091 8.0672102695309 1.6043116908305828 -0.29680454939441786 -1.3377534594574831 0.2615575532666657
Ni 3.1900762200884896 5.541196195545568 13.642899467841763 -3.0479273551724866 0.8109789017946936 1.6786493427441609
Ni 8.065459830844068 8.092483983191054 2.2252334798427977 -0.10917315399325714 -0.287957126306117 0.8931796409641649
Ni 5.797883519985826 6.805640089962987 0.4626680907704991 1.0640428157680515 0.74663267430814 0.31496965033921887
Ni 4.283688531432657 0.600322776315722 5.082677674132678 -0.6946912482438422 1.3675234916310641 0.5961385500789088
Ni 7.725069711015261 5.141394127346025 0.8210081636788272 -0.3267357897362115 -0.08522769892125322 -0.22928198106241154
Ni 6.1108750620800905 3.124617301708695 6.049900823779769 -0.7483535136539886 0.6868277863353656 0.6159972366760488
Ni 4.223443486574605 0.23268291284392656 9.937204854737818 0.2277858561328593 -0.8741989860966042 -1.0883849920578417
Ni 3.22717241536078 5.6735742913166325 2.2971596607291844 0.05224481623732938 0.5144934263025913 0.9697542921961104
Ni 8.897189665495613 2.6014982321169877 11.082997088092043 -1.1381065276526852 1.789446405494086 -0.9942921294364747
Ni 5.990693873308722 5.491491225347269 5.511742022433333 1.4833696867691226 -0.259622798137798 0.08784919570450031
Ni 1.139928731785069 7.642724207656609 1.1931982316729188 0.7715096400554778 -0.8294155112333264 0.8522222247151969
Ni 6.03721622771278 9.20394702488704 3.589955045492481 0.2558841570309722 -0.8928253429485398 0.007374438087200203
Ni 3.835417096813756 5.705222597199957 4.795411028290574 -1.7337431983945109 -1.6468661367952926 -0.018259203320504038
Ni 0.6768478370247875 5.532846509403029 13.846553180388334 -0.36961613403950533 0.2598598538492686 -2.376059532581063
Ni 8.545548062770694 1.5202513191969163 2.6211293551866435 -0.7842913652011783 -1.8601882520943382 -0.3024203529192985
Ni 6.110098129400908 0.8750171537071039 6.769039072265743 -0.3138507062434272 -2.123741495634794 -1.1595590410995062
P 7.4550809246820124 0.9843549832547983 10.41779575274724 0.5137516630405603 -0.13031893483293688 0.25680846861745454
Ni 7.697455838682872 3.5609258451951242 2.59708469286115 -4.300928255572922 2.4414784243065046 -0.3696243615696215
P 2.4302266992133554 7.399675327958145 13.00322177510331 -0.3311652862624748 0.9175081904072004 0.5482270711096107
Ni 7.456653511309755 5.977879164419556 12.262313498521255 -0.01004864248525366 0.2802438168222593 0.5223941692069067
P 4.727925532500623 8.341411341474176 8.038009769618736 -0.906579973530471 -0.06088629396241128 0.22720350126682806
P 5.297295498090409 3.8880893882084515 4.035390207800632 -0.18745630327587717 0.3319080779657703 -0.011987254268863226
P 0.13099927428138272 3.2587364755319035 3.212978884981932 4.4871668843916135 0.5951466184792847 1.234212821159655
Ni 4.482723706823701 8.415163782188374 12.859588452182257 -1.2584912340910455 -0.3799627673811521 -0.02841506080758332
