# total energy = -340894.21158507897 ev
CRYSTAL
PRIMVEC
9.04655473306078 0.00000000000000 0.00000000000000

0.00000000000000 9.04655473306078 0.00000000000000

0.00000000000000 0.00000000000000 13.24054729160639

PRIMCOORD
 96 1
Ni 6.410198743962239 1.8817648145553867 11.461083877457924 0.00015169508651586777 0.696552212711981 -0.4221154894898021
Ni 4.717660715873087 0.2773764163044999 5.899855448799467 0.47656631223951473 -0.36030616949248917 -0.6336452887751152
Ni 2.758837347647509 1.4863037186245656 4.9512499977006605 1.3169542633239448 0.4262606220064272 -1.5530761501263253
Ni 3.260993510728628 4.468319572851509 4.844451799825799 0.6958497873283178 -0.2885235403325483 -0.08455946920963502
Ni 5.066414449441946 4.5622951839721875 2.997302722504929 1.0141166203615697 0.10563608737427613 -0.21613258816464714
Ni 7.382368660968549 6.0661311257727135 2.6154983056795933 -1.0696195385248806 0.1955683908600503 0.11310977004350198
Ni 5.172458164647626 4.500009654268117 11.550709000381845 0.012385261038230282 -1.2841739835691304 -1.1721759585325684
Ni 5.533406654068493 7.727024305219188 12.289492278387794 0.20275102465141856 -0.046010662402159466 0.7213394469589899
Ni 1.8098175643394876 6.310532849880941 0.39779148844378676 0.5255864508919593 0.4793101935332391 0.19683234517413842
Ni 2.884313062534284 1.552913501516514 0.3487917290989613 -0.42207846560427953 0.47970614342007706 0.6265557289181855
Ni 0.7321874349112177 0.03915348911535421 4.788933997757403 -0.09753402709243203 0.07358754357916358 -0.5603961023719768
Ni 8.5279791263389 2.2657729721266793 1.2549407939299144 0.564151455649351 1.2063991413814965 0.7930570272089502
Ni 6.8599120289468445 0.8832486160447686 4.671754878265196 -0.5261551789112358 -1.2452474817072618 0.7298449133268399
Ni 0.6145641295790006 7.1910249806823066 2.469124144580854 0.25386738371125955 1.3691828816113583 -0.40854186457042546
Ni 7.549413295098636 3.933098252026254 3.789153090887652 0.6351252157547513 -0.9520977554566119 0.6526169447816116
Ni 7.730353437380567 4.102359292078998 12.512661738412442 -0.08466976953525418 -1.292946844665754 0.29824590982663474
Ni 8.102203025318996 8.731264258943135 6.796915440036567 -0.745059159173433 1.030490947954535 0.37901043077021174
Ni 7.016869754490143 0.5410735371165489 0.2975837057307861 -1.5586215054245867 -0.5010002769121629 0.6356936866637116
Ni 1.7252865564157651 6.852294829816731 9.39996749564109 -0.38587990419653545 -1.7142532079906991 -0.8606191905296403
Ni -0.010289551414002744 4.850201790048007 1.4098404282593169 0.8413989088474476 -0.8364094260526563 -0.5695975663655868
Ni 6.551750186704371 1.79307239142994 6.89616700190865 0.11106445747869904 0.44873026386385295 0.7478341508154088
Ni 3.571679341756495 4.4482271746710085 1.1050999930370435 0.4030924114200799 -0.4080600398380005 -1.6361433510611498
Ni 6.206696494043133 5.784674713259566 4.960107479491983 -0.6247140477237564 -0.8988815764449487 -1.3777719088319498
Ni 5.255994051544849 3.030107339471218 8.941672648786145 0.18893751580709398 -0.6613463542348095 0.6441472167477035
P 0.14826489104908772 5.756666579641004 12.190717469952952 0.9775470487676519 -1.0349253295768048 -0.621826184653
P 3.9336139056490764 5.726975786832179 12.645146723947686 -0.7122192298252766 2.2012476575420736 0.5993634847741097
P 2.3338663900035903 8.376422194003057 1.482040982009234 -0.1772392535335593 -0.05771715220581028 -0.7755868954486449
P 6.404617019659057 7.786541589158632 5.813845329168175 -0.1493849503254524 0.439454752099198 -0.3633251588244711
P 4.81609627850344 0.796349220077978 12.589866846270171 0.4478895131301125 0.9797232304833643 0.1538725537831608
P 3.8511455122166436 6.197749451359425 8.38031311721667 0.37336505955897636 0.022497409771567705 -0.5081016638436346
P 4.700372749676359 1.1384546405343428 3.6603889533360356 0.33122133631139083 -0.43079373399009036 0.6358474386327565
P 0.2329243600507762 5.419600994856119 3.648115492457385 -0.0197661268833337 0.5331151551688367 0.523446264620505
Ni 1.5289220382230946 1.0998077584870245 2.490004497683245 -0.4098716391254425 0.308207649025037 0.587739013161304
Ni 1.8915350937246524 6.605522908354478 4.793289913887033 0.0786821844932516 0.575560468817241 0.2239649397248723
Ni 5.956839697398731 5.393329799756538 8.93137133685092 -0.15387461066568983 0.863165611100578 0.9849173730897939
Ni 8.545999863473323 2.4907879293277437 10.135321224727532 0.41020665386735805 -0.9993831708061368 0.7615571568284563
Ni 2.3734088809747584 5.209892808353572 7.046632919737259 -0.8104772795679269 0.403778124633195 0.2324081853962191
Ni 0.43058163092241725 8.984459234303701 9.266675557418901 0.06887445437421041 0.5394665513081612 0.0014187347243975565
Ni 1.483607845298231 1.2189599315781359 11.538832683258315 -0.6563185620029148 -0.20850849596048607 -0.09588106487004133
Ni 4.091566752218874 6.896613901715096 1.5675752528587632 0.2267576719786611 0.20018249259329396 -0.591024368780795
Ni 5.450902074416915 7.937926636953534 7.937324136404763 1.011176049676007 -0.5544769086740645 0.5080666968406412
Ni 5.31022814748906 2.7851537755210223 4.937903615424348 -1.1450032547725184 0.7986548330117019 -0.05985476737410337
Ni 0.9337672919382234 7.527059258221547 6.9636669657915755 0.8746340167514938 -0.7874520223173471 0.14633767885869636
Ni 4.734071166255539 4.617044933539221 6.923720998476937 2.412384849374658 0.6266845411865659 -0.22620822723309428
Ni 8.224729563345418 6.928493960782219 9.372983432024343 0.10779761380196919 0.10580012375596617 -0.6338406926153729
Ni 4.727322436384917 0.30999467424218957 10.302615543769724 -1.192915505072765 -0.5395747947512514 0.3583557306343377
Ni 8.354900440166313 7.248895791650634 4.661175837098029 -0.6968818281372579 -0.3083999675415011 0.4445079982523893
Ni 7.228351065730816 6.144175753914618 6.982918939032423 1.3367245039723366 -0.2555352583319857 1.3128261000881842
Ni 2.204989170517145 5.304185048891773 2.6981060160557355 -0.30772813828545714 0.04496268075361934 0.01670625701108736
Ni 2.204726820428341 5.434274506719591 11.391239951229851 0.0844720517021513 -0.3604390955259276 0.03183642778430647
Ni 1.2048473061114184 3.2962117485119165 3.7013019973573362 -1.150377117489922 -0.20925128766378154 -0.10438344591409765
Ni 3.5002296520538456 2.7440190909074555 2.7791911912613343 -0.07657953632795199 -0.2851037160177219 0.06078550671848887
Ni 1.2349994732143472 3.105184697643197 8.02141457711039 -1.3059010908335766 1.428398729849882 1.1317988402671024
Ni 3.4613927923560137 2.893775758840814 7.215158474885872 0.0183767027349748 -1.873051995430884 -0.3958809812733053
Ni 4.179607823399703 6.724702221109949 6.062197683751605 -0.4003724413857557 1.3023252005568604 -0.4799856223337088
Ni 0.9505124648477706 7.78972597644343 11.69669958755764 -0.2824140850007007 -0.5936877745455711 -0.2997669744568515
P 0.3547090805847176 5.645656305857615 8.005870786676471 -0.5112466372305194 -0.48786656774368237 -0.2011818803920858
P 8.46256348867875 1.5321064255078924 8.183796616903589 0.4397005495614169 0.1565966375825432 -1.7685747042513993
P 1.8115183166393227 3.104786649232597 10.51345816824248 0.06428709211384412 0.24856319788952674 -0.3863643000321217
P 3.9058952617836775 6.320348361824139 3.691331789327292 0.35967856321081926 -0.7314762782826758 0.8936169856118997
P 6.886590319011812 3.8869698691706183 10.35854405942542 -0.06800824971917319 0.4693569389752691 -1.0379322347239286
P 6.326879974379889 7.702535281412518 10.069833214629092 -0.9368166609278255 -0.12965507599669285 -0.13156514853521212
P 2.670533926377876 8.552350544933347 5.885846858712792 -1.43711682644917 -0.8702073484387078 0.21463003547719167
P 7.018796670659637 4.025002202100858 1.6654888292779437 -1.5404137241673084 -0.670976935346038 -0.9431554586616595
Ni 5.259359369925374 2.730793027809802 0.48179055894607115 0.10807555005370419 0.3635239050988384 -0.36071883154987555
Ni 1.4286319318615381 1.1201986929754737 6.886051144346545 -0.6908356219431779 -1.177161841782934 0.8608912132441044
Ni 6.671743689390613 0.7305273921079213 9.186688633964366 1.2656507279539622 0.10031981736768528 -0.41224013935761905
Ni 2.7287846926472303 1.5278183585391591 9.132628231872054 0.19647547605535196 0.4884540648160361 0.9841319010740214
Ni 6.337392071041636 1.9505638637056337 2.482562801715988 0.6977431476962888 0.7570173599765736 0.23342891335124963
Ni 3.8674474039416595 6.968751129581509 10.521164023609499 1.3592589376294268 -0.6486695300980893 -0.0944733858892373
Ni 8.173336085604124 7.0267304992072726 0.18377714186293312 -0.6431629984575633 1.2675682566916493 1.2224394826738105
Ni 7.912958145743189 3.809902268945641 7.9488702542785905 -0.44910538781508463 0.2436040541120385 0.39370891332265096
Ni 3.1561982200834655 8.423581884104337 12.519043178158737 -0.17204305404460046 -0.7043092309495806 0.43252588618984866
Ni 0.23969299234192873 4.7542268903195435 10.137439927858496 -0.41256075592183145 0.268614203003131 -0.2045399982310413
Ni 8.616517758032979 2.471220231324853 5.687913667920167 0.45738742531821874 -0.3587555371759176 0.21834039444924336
Ni 3.8805920480462364 2.443067352829709 11.375920515354634 -0.6180559189772904 0.21522087498365514 -0.3085100107568042
Ni 1.1587912956940738 3.484904788245756 12.6100723263855 -0.7975065783398716 0.154854715190772 -0.41173311781421346
Ni 3.1241553230301875 8.451698576380336 8.215189971323205 0.2239212309711305 -0.6878932514854024 -1.422290560069615
Ni 5.615422719761608 7.813138460230522 3.57677526606765 0.3969366762313293 0.22753157403020813 0.34113396743941254
Ni 3.2722836111020013 8.482429722989592 3.6330737858141084 -0.8408062695687714 -0.2250355470812318 -0.13531715937847666
Ni 3.120391956239063 4.341604479959003 9.386726958055776 0.9573682598269319 0.13131369464603837 -0.491342956328057
Ni 7.094778684310251 6.059138138922859 11.33706013461436 0.018676493363580737 0.004997710324907522 -0.46237973632648754
Ni 0.3593382026688966 0.13992939546893815 0.5357776839446153 0.9850251023122518 -0.6127373349778543 -0.6235380251377841
Ni 4.697432619370792 0.300636013315703 1.645839712281976 -0.16476117567120657 -0.3725837013082615 -0.9652656602971376
Ni 5.939189869010549 5.477227548845215 0.36539034782096963 0.25825522836631004 0.5911374973198916 1.1403207616951845
Ni 7.772383730917983 8.640409709223748 11.385626563984918 0.3964540801679559 0.6465619968367833 -0.10315008772762879
Ni 0.2577191574092242 4.8892014877319925 5.779750673489352 -0.5658658672372964 -0.20729159283424944 0.30289677833508477
Ni 7.785275071488542 8.838701143585913 2.6554976476674717 1.0487460375099809 -0.11687849305731482 -0.21377900033080602
P 8.552983803768392 1.5737205775251357 3.6345040461258313 0.9803050711287634 0.8327805710508173 -0.6591943408888131
P 1.7179588470388156 3.2708633020005435 1.3989302831869699 0.5885864487632636 -0.7046313901756898 1.2646842502756348
P 4.705447866911504 1.0691399377612734 7.940899334856332 -0.1804266501226054 0.7513308511147577 1.2113713977851073
P 8.411902781875149 1.772581944838841 12.356158149919418 0.8477459341113981 -0.7573361767685731 -0.14249336541194169
P 6.448764207016479 7.661328224360662 1.481723447936233 -1.3748657909287483 -0.27869344161600396 -1.4029381236849323
P 1.7881239259618027 3.124191509249333 5.825430347227584 -0.6603652212684626 0.8588006492636628 1.0277635217210428
P 6.857541831592819 3.89237970893286 5.983363291376851 -0.09308961816783322 0.8856758763879521 0.5133086619658709
P 2.44987036202905 8.641721459667771 10.295584561389767 -0.3336782824923157 1.1812424396102108 1.0238814130578173
