# total energy = -381171.53098111786 ev
CRYSTAL
PRIMVEC
9.23818653891034 0.00000000000000 0.00000000000000
0.00000000000000 9.23818653891034 0.00000000000000
0.00000000000000 0.00000000000000 13.52101980989753
PRIMCOORD
 96 1
Ni 8.31012730470356 0.24288115490896056 5.932753052879848 1.9433963494824014 0.3986500593780102 -2.026743286441174
Ni 6.846392121241716 7.856994268748879 6.775586042667309 -1.611144772134283 0.7221737699348272 0.09211439873875749
Ni 8.730150681109585 8.658453117561281 12.439445979591557 -0.8470476224927929 -0.6228258295621081 1.138404261398762
Ni 3.757946358772455 4.357245977701141 9.609456030243612 -0.24767745285046378 -0.3116693823213923 -0.12663994331945286
Ni 3.6287226093956133 4.347379594777602 6.282298306323625 1.2103491271681799 -0.03398021360018664 1.812084454608576
Ni 8.370073895331693 3.6883828162497485 7.741094755411945 0.335376496130345 -0.39242773261738223 -0.03818833814426326
Ni 7.168176624980216 6.719533347546921 9.456060566522726 0.43054742230723914 -0.1253981004925518 -0.7121374687447477
Ni 2.2840768849855895 2.1235449223804013 2.0919447824663018 -0.46271757928188056 2.3224394332627614 -0.7049314379146118
Ni 5.58411406550798 4.64797169924026 4.398441821681421 1.0468830161593132 -1.1845074835147278 2.9584653064549116
Ni 4.125894079242159 7.991437593361488 3.198072547337016 0.6892207120475743 1.626388071446599 -0.49825176763274837
Ni 8.165854549912444 1.7784339983404622 12.382576628805964 -0.37687615803602836 0.25729260734272463 -0.37431405373580695
Ni 0.3870134892689553 4.371980884782644 12.098527344475498 -0.4241458896562696 -0.4854790413481123 1.2351296765469697
Ni 4.189563658932264 8.800148418386417 5.434570925456677 1.1018452313278055 -0.4764372428608181 0.8340612375354539
Ni 7.013058239522213 5.659922621941091 7.308584122640988 0.04076484062218786 -1.316678898175371 0.7750387362546588
Ni 8.661631053634032 4.314676415424298 10.086031887646582 -1.4241553811924956 2.1699874139762114 -0.6696502461148145
Ni 2.2807234233739373 1.3861990861984876 6.720987438063929 1.1906827590875042 0.935606442669808 -1.051875327167582
Ni 9.066448375459396 8.032935526032404 10.260980039907373 -0.5658203587113417 0.934422706774352 0.48482520981419724
Ni 1.5168547544453186 7.182689815591527 8.978064799891902 1.8278733420117166 1.7032296031866863 0.888952747367011
Ni 7.804512132617206 2.155823145165838 9.854362195580325 0.36955699866679576 -1.336247821446234 -0.9665165019851033
Ni 8.063246015144887 6.1142658602955695 11.691598173271554 -0.44464220983740843 1.8968910068320102 0.3901733893655668
Ni 3.4924316475314057 7.100802532600654 12.671845488372197 -0.7096872074320423 1.229967672730056 -0.054371375662028945
Ni 3.027436780421458 0.24222616750326867 0.18980685103815043 -0.16660619929974532 0.24489191968552662 -0.07468154797429073
Ni 9.13685259293158 -0.004324394987367709 2.771876214873399 0.42508434231013886 1.4722548078028839 1.3267295975431537
Ni 3.6184774608354964 1.436962919686173 11.63763607970135 0.8893494685847974 -2.2236620206815316 -0.673040502743286
P 1.4087587370405128 8.789265834974499 7.064150952440683 -0.10619915896659775 -1.6308934155161203 0.3474905057850596
Ni 1.1627643133626078 6.946681871258515 2.724796570065402 -0.4473812060351263 0.33369833709697366 0.5866149268591897
P 5.588068009226402 8.736201693108573 9.062422373888161 1.3068539416651492 0.2173957711477869 -1.2778087034727348
Ni 1.106152707973611 2.833758205522582 9.798601427145691 0.5346341629165244 -1.5584896078324126 -0.19217864845221097
P 3.127338526615422 6.379946858889264 10.671261748904342 0.5213618712876505 -1.0601020859527486 -1.0885839954425252
P 6.408215708838729 0.2602914407307789 5.224900126326585 -2.367192054888104 -0.23304941852464378 -0.44167181435517483
P 2.661188886223225 2.9891906893133564 8.083555243814464 0.6715050399353661 0.6012645584515645 0.7358862344249134
Ni 1.726875680834589 9.16164788484804 11.705687331133625 0.9208912479468204 -1.0496886039289082 0.11183270310329128
Ni 8.538652318167596 7.4919381005779275 4.365477201657015 -0.562115913276561 0.15737053963409028 -1.1398643908840562
Ni 6.858050712299306 1.2294363035865616 7.530788369067302 -0.98035443630946 -0.19409026365262702 0.5022187227002963
Ni 0.416939669833106 4.720981085237199 2.4857585006397676 -0.571179566140726 -0.32582716187901306 -0.3809233315222085
Ni 2.1958614444079902 5.224286710759054 0.018587230751087012 -0.5228916776686157 -0.10464466999528428 -1.8425697676816268
Ni 4.696518368026027 1.7245199433388003 6.400404822357594 0.2773744656942642 0.44044308415439637 0.10978379099406255
Ni 5.809451904713007 3.3565194513037753 8.230717703267082 0.009536478735525511 0.49420459414656825 0.14531797934493038
Ni 2.0617322181281534 8.110988961726209 4.726299509065927 -1.196918712694887 0.46544783372885 0.4281010176492756
Ni 2.2264306027356975 9.224412122284862 2.3549014399325126 -0.09175855806123553 -2.4244050137639857 0.4419793182932646
Ni 8.54679116026089 8.631496090060452 8.131676032213738 -0.554066046388891 -2.9871855572077393 1.004456471563986
Ni 0.19423009461847868 7.011441556927064 6.370698510626384 0.6295166113187223 -0.14467031845860245 0.6771478400434402
Ni 6.749890027590695 3.3589768088484018 5.958619050583609 0.017360345655318486 -0.7935774184887946 0.5477817560420759
Ni 3.401287701910021 1.2586012576030534 3.9225292660517748 2.1429615202066703 0.4544995622474624 0.850871110003941
Ni 6.781429195475491 4.340774291603135 12.229464777403198 0.8923985398237664 -1.855034732917857 1.0090417769418234
Ni 2.532731906305797 6.623003539337126 7.013379728403991 1.0521542918605815 -0.38293881929034046 -1.8436797129163538
Ni 6.416289883628218 8.750132877985628 2.99702836653464 0.22196667834792094 1.1115498602100793 1.1518549875870292
Ni 6.0746340412487685 6.971052206607108 4.638250355840971 0.06640156735368564 0.45190711892993785 -0.15230006708971836
Ni 5.408708623027419 5.888503064522675 11.025674602687458 -0.32692090916382405 0.4309899091612965 -0.8206084544646578
Ni 8.1164672061772 5.1921747753262615 5.334866876448635 0.7330577638371827 -0.5397961667334381 -1.509415733123897
Ni 2.196083160878182 2.95410405790549 11.964817531851772 -1.1943424673272787 1.1646359414017813 0.5555642282009722
Ni 1.4096640792937964 4.839737969583732 8.668204023156596 2.133930006132022 -1.482548476419408 0.385721010021168
Ni 0.03271980808856858 5.9294005150868205 0.5243696140087103 -0.3883340221639829 -0.9224308245197985 -0.9760126144009964
Ni 3.4941684265479083 3.8641023570630817 4.13449760210423 -0.009543677824377112 -1.207629671354488 -1.8770294920213935
Ni 1.255515703392883 3.5983289766068083 4.2850135231685 -0.5138442227543667 -0.9294069987273155 -1.6326245392746142
Ni 6.973537278710508 5.532186220551787 0.7802415064336642 -0.38244593881432204 -0.0060122676323509355 0.7681060136905674
P 7.629005070087807 5.836316550351258 3.154088618744074 -0.4085012411404771 0.08274941258408974 -0.35142660761467215
Ni 3.606911251640486 8.711249352025726 7.881645444959714 0.692573173459575 0.1593189216097127 -0.9373429657449405
P 1.4893526739552658 5.86944468627243 4.624418943375501 -0.3369646665530713 -0.14888564209153068 0.7297667517907368
Ni 3.1441889783500057 4.388997623869872 1.734909207604542 0.58980669432361 -1.9299278826823214 1.8563159136231258
P 6.446674278230765 3.7835176583345866 10.257072287120241 -1.4124961996870125 0.17386570907563606 -0.5598564278184229
P 5.096254687409494 6.08831579509686 6.51792933265731 -1.328719374279673 0.0692179537565582 -0.41671925817489525
P 7.002914711010934 7.4467264170312975 13.266202677652856 -0.293077735362134 0.3036645097390448 -0.36373087890332195
Ni 6.687633890398063 8.527538780099226 10.9346784680462 -0.031132202628430253 -0.2633804654080174 0.542333074222679
Ni 2.2746724113749504 0.6644685562484641 9.246592083671683 -1.7950203000374378 0.4893089566171637 0.9207333822127175
Ni 5.8771678099841145 1.5107298369562676 11.252570923914208 0.6382215952918879 1.119057481441034 -0.14617312825637405
Ni 5.23181583255932 5.616373811920901 2.5867734482778197 -0.27131463265342953 1.4979912933370396 -2.3926791434156143
Ni 5.12014463707267 9.116214484831218 12.836193745720562 0.7579321584813592 0.2216000390371216 -0.8947881231018654
Ni 1.3148063827966983 1.1783768481386203 4.447063319775877 -2.4088356985708193 0.28960160388807543 0.3301651271327346
Ni 3.6864335589493114 6.356583485842793 4.518034761884302 -0.3582557147213637 -2.0991686913914367 1.7077169495340783
Ni 6.016276418657012 2.251198180093384 0.1272319964196177 1.2021624775923296 -0.06583129667251242 -0.5059915594791673
Ni 4.475180663470712 1.5066373204439756 9.22737942771093 0.4292682984844994 0.34328829477825396 -0.42941099470995076
Ni 0.5801350015364746 0.7463844776167363 0.6244127044524213 -0.2937819605180102 1.9384413194699714 -0.3995679432065892
Ni 5.192941544785675 3.194934335465175 2.112592128752922 -1.2282674022094977 0.16041112623262693 0.3862475719485993
Ni 1.15441299298538 7.838564087164178 0.536155692036661 1.492379603577217 -0.13362563060866664 -0.5059542784833286
Ni 4.526979173819293 3.6311430141952084 11.765247765576174 0.42634212597663995 0.07432724995866555 -1.1559785228370996
Ni 0.04299267120745961 1.26990879758284 7.670271124283648 1.6496681250204621 4.196024161268664 0.4994604432288689
Ni 7.144388295365878 0.2908541323281056 0.7964813140565945 -0.11513888465838881 0.5196783129376406 -0.47365170969588105
Ni 8.07521870453525 7.605022738562051 1.8150209111966276 -0.14851514612598937 -2.4859518241285317 -0.9456108621806875
Ni 1.2430533901308471 4.151409949686743 6.36196380551945 -0.356908713775166 0.5696291909344706 2.0329823253723505
Ni 4.684841300595921 0.7552365076891475 1.923256425213929 0.07021836999661456 0.5970890869176362 -0.5719259573884473
Ni 4.357689410641525 6.6665246347985425 8.747612700774448 0.7309779984900185 -0.7499573678059986 -0.6738917949999877
Ni 8.319956734882068 3.294124741317273 0.6653230884773287 -1.436070901683159 0.5862086925597065 0.7358186144117715
Ni 5.741717523069384 2.144552557931083 4.221965673413558 -0.17940566505725877 -0.8465958796673548 -0.642958595756241
Ni 4.8228136123590835 5.350979197101204 13.247380796970814 -0.2836849812933243 -0.4935746738720531 2.224091909130099
Ni 1.189083906011637 6.573847150258331 11.53735094877768 0.4401242673623968 0.07122701376678701 0.8745705105034098
Ni 5.0869425956614345 7.700111389715599 1.060037529810949 1.0385549559095921 -0.7380274491376322 0.05758679727553308
Ni 3.1565219570044296 6.5456522057989295 1.691709601024903 -0.20510178427178224 1.54038904157696 -0.9385876367853191
P 8.832703786759593 2.7132922567183204 5.636588811090647 0.521086763249393 -0.24780266557441843 0.45588384418949873
Ni 4.081578499762554 8.336566993773943 10.467607780484084 -0.8447326012063711 0.799624910234455 1.3638434716763157
P 1.0556475437011494 2.9799617412416195 0.38078602791244043 2.2595322522155796 0.2307068864343962 -0.27576032712960896
Ni 7.254285759090992 3.666340503838171 2.8580324637340913 0.8454131722131634 0.6169811978558729 0.8426705764710197
P 7.841566497698027 1.683216012579302 2.340813205889069 -0.22058599595031045 -0.2883826438793098 -0.4320895699833784
P 0.22659330871748862 1.0421320772057021 10.851739879459167 -0.15360130239964515 0.011572278218631682 -1.11968534483302
P 9.119401659090226 6.060702856371711 8.341400412824127 -3.912904822670822 0.334364767036379 -0.05209440670239415
Ni 3.8895443220176014 2.6960445629746426 0.20960151273315744 -1.8980688291901957 -0.4010944071534447 0.47655165695149543
