# total energy = -381165.63519411505 ev
CRYSTAL
PRIMVEC
9.27875036266809 0.00000000000000 0.00000000000000

0.00000000000000 9.27875036266809 0.00000000000000

0.00000000000000 0.00000000000000 13.58038906622968

PRIMCOORD
 96 1
Ni 2.4734271985575957 5.040625448019921 12.41879079591351 0.7835873971556182 -0.04566407769601813 -0.37819461973713575
Ni 2.9546603060306746 4.903986570558705 9.834156846693112 -0.8373602200016999 1.0066961595277824 -1.0111063727803362
Ni 3.4551839354541722 7.673517249867514 0.9329347362489 0.9627076697619743 -0.04990665502245599 -1.8119870097987631
Ni 4.0454980318878695 8.640427986225045 3.1932652266941735 -0.6474510843099559 0.06738501431287751 0.08109927857517645
Ni 9.093370183920912 7.130070121385507 7.093226987422771 -0.46520203626663104 -1.3981383883034437 -2.166511796722785
Ni 4.32414818325537 0.747100852376463 1.222900323652252 -2.317353534099422 1.096145095619235 1.8338740396798416
Ni 1.6868953687494344 2.4879577215851842 1.4038322437217037 0.022170622559768267 0.19522489147770247 0.361595577727874
Ni 4.430788860877382 9.029318970345278 12.583520162144666 0.5289504822681859 -0.27750096396979945 -0.16912279507401196
Ni 2.7305692066441574 1.0651448661743137 12.855182486633444 -0.9147799928427599 -0.08374982882414608 2.382152789962994
Ni 7.208243592973905 5.581233278898836 0.07371503205151694 1.3148827255068967 1.722590267101485 0.6620544360454275
Ni 7.307544779079429 4.148807638138935 1.8659047317490802 0.719544045621464 -1.062220674957648 0.24052927184145675
Ni 0.20997440862395464 4.598956931983392 6.0177149734970365 1.5769814959890132 1.1741374531343134 0.3701028438679368
Ni 1.1692617237046896 2.4953436068533574 4.19843132281572 -0.7863245935811232 0.8526264021321509 -0.8317631855298966
Ni 6.7219442878168785 3.3705617323816273 13.288139183978657 2.7467203058349985 -2.503106738641263 -1.4421011670376391
Ni 6.80435814830924 5.390332269467416 11.379021456160556 -1.3858659986939939 -0.41425254180195753 -0.4848658332441456
Ni 9.128963470213266 0.5356325649482672 6.749724866325562 1.7989965110763662 -0.5373713593420294 -1.7750790810288204
Ni 7.797314336862458 7.825261932877206 12.17957162197771 0.500742652375402 -0.7654747467153076 -0.11191549262508468
Ni 0.6645496663791144 4.810688735921157 0.4864050829108679 0.875954278224814 -1.1881808186012568 1.809489697298206
Ni 2.363028627049137 7.612425957649351 9.433413186892523 0.20180048781269114 -1.7947817016640704 1.7878317527087983
Ni 2.5170002101396864 3.8358168317745607 5.443481879272224 0.08674824933083769 -0.07267377351564258 1.481944267176506
Ni 4.804722499454528 6.2668958137945365 2.260021508059055 0.6882056405194986 0.4599027355409047 -1.5507413313455616
Ni 5.085896470913666 4.5653771345141445 13.54228229995633 -3.2434337824463495 3.2232686203523846 -0.7575369799254696
Ni 5.556375506746275 6.960714370236374 12.810706652643571 -0.6935419651307475 0.01457301271816845 0.185804369494751
Ni 8.7753410161236 0.9032139710447696 4.413001496481542 -0.7033291264244985 -0.5958480154216834 1.7037859899107881
P 7.513950580323812 8.949698013704323 7.7880003272742755 -0.6762348413108676 -1.5545324229568775 1.7628542568278545
Ni 6.1273619662282055 3.16764474126392 6.891042089706645 0.44668906506410816 1.285165143837806 0.6045041484347847
P 5.014162452059077 4.919166606109877 5.525615521504412 -0.45958289030764077 -0.9137937176700907 0.9886984373987813
Ni 1.8176700759977293 8.82637414297656 1.9519094686218237 -0.2690492336580205 1.4771054510269659 -1.5500689878688851
P 7.658504231822406 5.238893785218841 8.083169437866562 1.3955603431636223 0.22044689926928487 -0.4249524447179649
P 7.149434873338621 7.393762927209922 2.5785897712509405 -1.0578971078816297 -0.3574694713746424 -0.40342691194136326
P 5.063219205090278 8.978387909746024 5.3262689935163445 0.14719359910108842 0.817284018077115 -0.7340892904254905
Ni 2.276541395158875 0.38415139844814183 10.796518211760464 -0.6638783766280438 0.33829469821840447 -1.9464155959246994
Ni 7.5822700190544206 8.078432635819574 5.257566342396823 -0.022558344916490183 -0.8224239104068417 -0.014672000189877958
Ni 7.51308765654248 1.9016242090460176 8.216936542098509 -0.0416313023875412 -0.33621236176807906 1.432009844239908
Ni 2.7264030477428887 7.347916621795289 4.7749599798738815 1.0642726723906701 -0.7424348341767085 0.2663583170894187
Ni 5.447609995297112 2.280633324057449 4.911007800938638 -0.4519441428154603 0.19933197166754058 -1.9324383078090006
Ni 2.247693760361447 6.646387423823486 2.6191685300993135 -0.926426575942753 -0.25803385638412335 0.420443758214334
Ni 8.238324061625068 3.9530631210316534 9.713169365300182 -1.0575708348904627 -0.008839195558184777 -0.0007031967146116922
Ni 7.012267107108201 1.5100516660784216 1.4318485024889454 -1.9919837714728017 1.442424868925645 -0.058455573033731584
Ni 2.7404974695046422 7.699544144562522 11.977781071150902 0.6729428008231572 -0.7629872044067634 -0.3558800154003355
Ni 8.037958726850007 8.816436601365739 0.7395405266019552 0.6680872725030688 -1.690320608434502 0.5744096430422494
Ni 2.54014141347992 9.197997372719817 7.972231770963529 0.8239974255415486 0.12543795259155172 0.6018602830540345
Ni 7.036651662993579 0.8558821377011995 6.093099252734163 -3.100752469393318 1.213394084642091 -0.6308772391116747
Ni 4.319239724327149 1.181695249156138 6.788048888842068 3.1076437971965123 0.2828069495637452 1.3345830321493015
Ni 0.17740135556626063 8.324931917269708 8.79892388797987 -0.2216764008010118 1.2964934243664317 2.776157637259509
Ni 5.1875637383551 6.853368507588756 4.462542600280329 0.4538259332192055 0.793478431017085 1.5214752353915928
Ni 2.413764833891317 6.09805967266427 6.810646357412558 -0.5839648908308523 0.3305142829420372 0.4332015721006346
Ni 5.354005961898446 8.69070025555038 8.397719074287537 0.8699988319723274 2.195852197558115 0.36965135815281497
Ni 4.655891344050622 0.741964136189954 10.319398374311733 -0.34924554080295334 0.9034761377941666 0.31737208913312437
Ni 1.6186965537732056 0.009239779585486886 4.107307499382108 0.22127865114196088 0.47721243046394596 0.5908649603847953
Ni 8.594256924548622 4.897547117824894 3.871578991323048 0.6376523530519792 -0.19203209557201767 -2.1355842539059933
Ni 4.6671000744576 2.297409304666567 13.3420802711872 0.04592067379151447 0.44982761069308974 -0.9015328980248667
Ni 6.043463505681939 4.8759090720392395 3.614311720106938 0.896323071689153 -1.2374328707588496 0.9869148631357972
Ni 1.1243525720740846 7.52431494445013 13.523120752635593 -0.6382704462519524 -1.3536120237562945 0.48927424672448644
Ni 6.311628669168741 0.0648965077313254 3.634927247605467 0.7676013061400071 0.5615050191654394 -1.0990311589177781
Ni 3.2512091667980583 1.7597613951451248 3.4808164832598636 0.8666378859198944 0.0009983593575273128 -0.33291646462562663
P 4.564625555736855 4.453401175448413 11.040191185857978 1.7386730315959604 -0.3911984881959714 2.1397478983653793
Ni 6.15909529238041 6.667904845854761 7.530937188565577 0.3758294619390689 -0.7120109704692125 -0.327552629210552
P 0.8518523764298829 2.5743521659720776 6.646174940440771 -0.680516499405357 -0.2673353362907073 -0.5622102727625802
Ni 0.7423696175796767 1.2661411559722822 8.608663112321697 0.36857586570044915 2.3447481240622907 2.2488243788797724
P 1.5354290482498483 8.36008910229623 6.255289952873139 -0.28509008917096706 -1.378254504895323 -0.2053925760393237
P 1.2981528446345936 6.366187721149724 11.15897867554603 -0.6447457695636509 -0.9690354117522149 -0.06116705842762369
P 7.330147814900122 2.225897975820064 3.6323468271367747 -1.6595583875509805 0.05062013614971282 -2.469119068841909
Ni 3.0476333844064314 4.899402867892276 1.368508969064152 -0.6659164901039951 -0.6662815867528977 -1.3254777274139238
Ni 2.370210379809899 1.0976019348527963 6.074807124319993 -2.293823312187966 1.9258064043147802 -2.0179161750678474
Ni 5.892618861454926 8.649604670308243 0.9971186359543514 -0.11336019549141121 -2.7477855138747196 0.8965290170523722
Ni 6.101121660275448 2.5854588301253485 11.092325700375929 -0.47101812872777593 0.7434326793136035 -1.160233955679344
Ni 4.244722080371489 7.584951577901784 6.689495570013698 -1.6449668628900511 0.13752059478769862 -0.8963480113898176
Ni 9.099067336627769 6.520632520507455 1.6557206233675115 -1.1870803864482267 -0.4314920456086956 0.7726051871125017
Ni 5.8101122134591945 4.567715379599044 9.139235046836218 -0.717054446430391 -0.34442626503743906 0.07015769196200822
Ni 7.303304390175465 7.048055247157632 9.6205646533128 0.6123511552830293 -0.4461658455707865 -0.1299587232800407
Ni 4.8051678794707 3.485386267800788 2.0430203018049644 0.5346236213935632 -1.1196637475664653 -0.04054732529474307
Ni 8.980689039829574 4.85305550995945 12.119193865660455 0.11769996051734569 0.30045962964850187 -2.2767370461296403
Ni 0.5574933007420079 5.915917803550886 9.113717555534704 -0.52371623045244 -0.49658954943897704 0.49472318565419954
Ni 3.2958956284205776 2.6506234937414104 11.380623896343739 0.6884565801880401 1.1566066433394016 -1.2295082165951343
Ni 1.3153370902585357 2.921618676080967 12.559876978411205 -0.6485386609471798 -0.24102112387621075 0.8912137754870457
Ni 1.597596675507091 4.20491624142618 7.765999482350448 0.027084772031934 -0.3882774578944345 1.5255645749696178
Ni 7.223256611019012 0.0010930367896870407 10.480230665401388 0.6610190528023777 1.2901381715723652 -1.2349160178742669
Ni 7.621194376717723 5.7441217410631475 5.683420156359135 -2.418497132919983 -0.12950518068238986 0.8607621438654078
Ni 3.940685268082226 3.749162582378234 7.324420042317152 0.3113762765610057 1.1820631357392932 -0.5107802391170623
Ni 5.231081077435169 7.843244151030122 10.532786435184635 -0.4686804817335347 -1.7444875813952088 0.9345168091500551
Ni 3.5536685915300485 4.641295869770675 3.673509219381339 0.17347644405701737 0.6177694980851232 0.14540333996988508
Ni 8.489499833245 2.1908892507989335 11.65558574445232 -0.3018997045291381 -0.07057318223287201 0.12181963911267407
Ni 1.0393870552390743 3.3092663076560536 10.191511214168282 0.39276069047676876 0.14389281686262959 0.6700155998740331
Ni 6.413063967851752 0.684386706724377 12.612405839818475 1.5456490044243185 0.7083273509700382 0.35518761731900117
Ni 0.37206489825929345 6.924638588926499 4.641600212781726 0.745593177300032 -0.9334757694800504 0.8525906637982091
Ni 2.772397813162911 2.5744820684767937 8.87326337992906 1.2725932207100663 -2.11749500050445 0.6187344331015537
Ni 0.551907493039193 0.4260950614710731 13.413594383658806 0.4027841361510418 1.8888565665633081 -1.0607014100996441
P 8.653455351698057 2.8457834495774676 0.43581640819904516 1.7236212794691608 -0.35538353537989115 -0.04740317187431191
Ni 9.025755930215908 1.110805596582208 2.2524296345334016 2.221807483971296 1.714466866663402 -1.4269314012757361
P 0.17261444826745295 0.24800893412994912 11.156832500593104 -1.1807942963291989 0.022850165125296133 0.03765946222398676
Ni 9.034273823025183 8.31932755206622 3.0331251303796516 -0.807334620173887 -0.29213953981858076 0.1285808690959076
P 4.193577608514486 6.791367897837578 8.753688124337407 0.6065777431343617 -0.955279238508387 0.1248730812270172
P 1.2578737894221024 4.625856029210071 2.8887932410141093 0.47678691289075315 -0.5710386696874875 -0.6279940040266088
P 5.09921147764712 2.2179553655316764 8.819973660994165 0.45542978737121564 0.7022837158791195 -0.7254048752776152
Ni 8.00159530427969 3.0917445635080627 5.338396320206676 -0.12648696268135637 -0.3655327079987511 1.08786177256452
