# total energy = -381167.07826223766 ev
CRYSTAL
PRIMVEC
9.32470034102448 0.00000000000000 0.00000000000000
0.00000000000000 9.32470034102448 0.00000000000000
0.00000000000000 0.00000000000000 13.64764150424844
PRIMCOORD
 96 1
Ni 9.368153485212325 3.529650861283385 6.7361896647095945 -0.9591927146301802 -0.15155084762851964 -1.7432035724764623
Ni 2.2257407081458256 1.3593081981036632 6.271664795687808 -1.1059122023083274 -0.2973761056271717 0.04192106571381812
Ni 2.809858589439667 8.81065762350748 10.019866119571187 -1.3876531725014036 -0.2097138291224969 -0.1327555692988875
Ni 4.5451573563235455 4.3587286215975185 0.803646504963847 -1.2779603985592505 0.30950682745243474 0.6220269878098964
Ni 5.207192434004656 0.9213242237775546 3.714492532004491 0.7418025999093483 -0.40403754894216865 0.005113924187797645
Ni 3.83142613972776 4.789772221429726 4.025876914191936 -0.6063172903841236 1.5122154073562213 -1.3443262275789944
Ni 7.9296412820687525 5.478802306715091 1.3376096203160646 -0.6529367900148755 -1.1290855551009973 2.5643208482567386
Ni 5.037958446781995 2.1242786432954333 1.7474982723929102 -0.6909027277356875 0.09526682832481012 -0.3017927466376286
Ni 5.801576810418457 3.300142010795129 4.585088520766964 -0.3773404992669566 -1.4032607971316737 1.4563368510210466
Ni 0.9089111826297886 5.647924397533174 7.244987278672396 -0.45314381955051636 1.0193691270097605 0.7064298768370092
Ni 2.1148047477078955 0.03921595992416235 12.396753693609803 -0.4642193606383876 -0.4062152733197778 0.6379768262709336
Ni 2.975772983326537 6.792288927144384 8.456160489106471 1.4849707127076557 -0.12256937279450503 -0.594533153265002
Ni 3.526415190251027 8.989561325025688 7.761918828777922 -0.01386415957660193 0.9760473242936739 -0.9049588929872802
Ni 7.44052344826097 2.014927881922347 6.071358109384091 0.3734589048243633 -0.6864187238224049 -0.8502105936018068
Ni 8.45394121041569 6.500444454606235 9.615718685519191 -1.5710162795445137 0.6947298147912615 0.24074190207289506
Ni 0.4665697758154354 3.3787399103102436 2.4200404224638215 -2.4102912000704233 -0.04132559822166431 0.6670809427257415
Ni 0.5618560916032035 4.059918597874439 13.821512896160797 -0.7707830463020984 1.53025118181201 -1.1381245253748142
Ni 2.7807189007476825 0.8294871146608793 1.5788955673860725 0.4810438883948942 -0.9484696717857214 0.9424442915272478
Ni 4.174453892659604 2.4609562752675194 11.303604148373587 0.28540453508759234 -0.07422286317031733 -0.6624642698893365
Ni 1.8327978340721616 2.2637295374997914 11.459815259043538 -2.182265717122932 -2.6656559942628157 -0.04554503561965059
Ni 3.286919585654254 1.8412739867188859 4.099628766918818 0.9836732162700478 1.1902731823539112 0.35676576043939845
Ni 7.820756755714738 4.348350230072982 8.834186639979954 -0.20411499487848073 -1.1431857419478053 -0.25716379507434417
Ni 2.6654189805312414 3.2114734348680654 2.2751439032367053 1.5460899486164792 -0.021792156174426987 -1.3858888815121293
Ni 5.284111887451113 5.219417116204718 9.682196339478514 -0.07804686490209785 0.028373923157002743 -0.006713150354117471
P 2.521315060836547 3.4739264518039303 9.742833001118909 -0.21356868409221283 0.28338570488535064 -1.0018735413281585
Ni 1.7613799538507522 3.532121906884465 4.491397661214459 -1.2495175698375254 0.3859806914404578 1.2271697982699445
P 8.593513325725006 5.73160425875617 3.3095124022084326 1.2888418213584447 0.47000228586875187 1.3926652810040145
Ni 1.2949770901721445 6.1946968537993685 9.779340135582267 -0.020078001696797677 -1.4185197801732732 0.16898781215804443
P 0.9425500392558148 9.089736581223441 0.9416436783787393 0.43043197977529746 -1.1873112715121101 -0.35909955077889766
P 0.9802218287968116 7.84916911777697 8.386830409300465 0.7208946461120874 0.17266783211279293 0.08463685941478973
P 3.5576156377273076 6.264352365648687 10.754873505027293 1.0421334172894696 -0.22551711470334065 -0.8708113005712937
Ni 5.896707403709856 3.8938456840810853 6.976810760642406 -0.19252780426151359 0.9945932056166612 -0.00744977140982588
Ni 4.653277257246283 2.840667399499927 8.995911445985445 -0.03210305118213181 0.1874593885996707 -0.8349796355846651
Ni 0.4303311927230652 2.8123296350407467 8.76563424018576 1.8544680617811096 1.7079943715651809 0.5738026055858698
Ni 4.854392395073069 5.217766644237203 12.358935506272818 0.02329676574441149 0.054971471139873065 -1.0119255262475217
Ni 2.849031655742074 7.799393867140871 2.7145974503429287 -0.6496619759183457 0.2901579906121777 -0.6052379412770157
Ni 3.3018204568637874 7.407597931214123 0.06950351923310084 -0.21998255803835662 -0.7186117636151818 0.9232564057448873
Ni 9.288529868655251 1.0378764512552232 2.4357898414080648 -0.31203139364650134 -0.5977174645302544 0.8993428323520835
Ni 1.0555374337776606 1.8640262556495868 0.2969003250849615 -0.18548375293053862 -0.4241680011434566 -0.13442498658151045
Ni 8.13992260037049 4.0165773905015305 4.572055387043832 0.4088519396116765 0.12243361854758916 0.2255291988881987
Ni 8.394169880970692 7.704459092557483 7.44122653066973 -0.1762851171504061 0.48137658914396453 0.2914545979364142
Ni 9.003641622601656 1.565589219941765 10.326079022927086 -0.2436757878902384 -0.3524861592274381 0.8419753501762081
Ni 7.141237864818438 1.2130316232200953 0.8404380427888363 -0.3366155107437686 -1.0693089492629972 -0.8935570789082418
Ni 8.919859189674462 0.5963696051250083 12.466001716052453 -0.10641693140435865 -1.1072453192974543 0.5573220914323433
Ni 4.355241183654862 6.1851390359083975 2.25884805685011 -0.6306962334491203 0.5909734609382016 -1.0170055118735906
Ni 6.087929034431939 7.0266186477298405 11.240184063669334 2.1207253345162895 -0.1602460614096724 0.4432291315399657
Ni 1.8277345217650425 7.989123545801926 6.203904062955997 -0.7832968624983929 -0.2657014002317101 0.5562869652996096
Ni 0.8353532836708399 6.115576771062893 4.946314358963216 0.6417414355196883 -0.7631471270233953 -0.6464568387174866
Ni 6.8867854408098435 2.625891575614339 10.1778927494054 0.4436405080457714 1.4577944094031796 -1.1730056535227154
Ni 1.857275172573428 6.714884589278093 11.850615316969547 -0.5810878263933735 0.8300953109091703 2.0192230668047286
Ni 4.810482380976892 7.523112319539338 4.053826771115248 0.9182797784659025 -0.46466441859560614 -0.7170415909145844
Ni 4.366915708532419 0.20820377505675333 13.415494927212285 1.4688498958863927 0.8354714876194193 0.2865491902149968
Ni 3.353236854767019 2.331837149085791 13.435038566741733 -0.27016817775381213 0.9144416356667348 0.7253336557200476
Ni 7.169062770756638 9.297714698530966 10.020071262979577 -0.6613414691388029 -0.30002408477298004 0.41621069396959287
Ni 0.5148847783718018 6.630402803822292 1.0808222913319594 1.8807650478044253 0.46611606344046824 -1.3766776473265063
Ni 6.21004531062721 9.177109023797488 5.446037174514805 1.0400644505755832 -1.0066107989028277 0.43819799687396144
P 7.660008245839182 5.590316398576669 7.209639204466453 0.38950875919837435 1.0231807874463668 -2.067157942812795
Ni 2.386004333601546 3.76923038818359 7.176994360901087 -0.08194028641923308 -1.8351431362002524 1.6926592838700076
P 7.773340654275142 3.2567448552199316 0.7005917812883056 0.3586568068145242 0.9960394511448847 1.0212082371010285
Ni 0.32367340482013723 0.6009209913811867 8.082228814170477 -0.06012601875761903 -0.899370086045593 -0.46271860772314505
P 7.222689122650271 5.156223621719733 10.837783145998781 -0.029373053845478447 -0.4464784917151988 0.027184016613959635
P 0.2981302530652728 1.8119011805173662 4.798579400939992 0.2875786599207757 2.953728305990558 -0.5482790073934686
P 6.732573545901674 2.298771761533223 8.058631727385217 0.14295719242223767 -0.542975078682052 0.2920217832937938
Ni 3.369937393150169 5.588554030204578 6.427820890625506 0.9411379140109986 1.9358067100606016 -1.0790963676670642
Ni 7.119921599746477 9.002783750166563 3.257924429818183 1.5724059608031888 0.9398109676694589 0.9873527220041639
Ni 7.6655471178657555 5.227650826641525 12.961192727218664 -0.6555395177450453 -0.7012840709700116 -3.617797972693802
Ni 4.6170414715640264 1.6173692811598726 6.677613761853498 0.4912545103793088 0.7318593726537074 -0.4874834733726508
Ni 5.811759383234984 5.785715495069637 5.380063986846115 0.25747798388065335 0.3314941303568033 0.42707077661254833
Ni 5.910563908476668 6.608862745941178 0.5657491540124526 0.06994557595120213 0.15396562771759936 -1.0313355553430175
Ni 2.5352461632064105 1.5056593705902832 8.903611831729851 -0.3789759779878506 0.3994890103395378 -0.3758274050565398
Ni 8.383250656824032 2.785409225039545 12.357980656953758 -1.0075063141339036 -0.7451195800977232 0.8697183246174313
Ni 8.004938237648838 7.0163055291079734 5.302723056942418 -1.0540815907902814 -0.42669719532321354 -1.3075633090273482
Ni 5.813046191887622 2.986440440562898 13.254999116717066 0.3912177714696811 1.2258569929957919 0.7638549517236973
Ni 1.7701731463104453 5.382851139790126 2.758651997295017 0.14585019769931656 0.8869557715416402 -0.3361758521031888
Ni 0.073546709318491 8.602297193484318 10.405931094643504 2.344260385792595 0.578075779039927 -1.8457000857804924
Ni 0.3763132034134132 7.763232679061667 3.1472691428617336 -0.5252694338721728 0.20477628261156341 0.307552017718909
Ni 8.44445799012777 7.661257755690296 12.068404884018413 -1.3091612496420875 -1.6475261389767948 1.8452354874392478
Ni 6.53940305279987 0.11915568382416507 7.71842376384872 0.16857849253476773 0.4488809305091043 0.1864592294699305
Ni 9.170786876938873 9.259380855262886 5.209482580418337 -1.1021167398216374 -1.8497248906691692 0.7711430007446783
Ni 8.169444601778112 8.38473328418468 1.1803830497745773 0.2864530309567647 -0.6838321940421513 -0.13512021287632212
Ni 4.267253310855644 8.206640831599657 11.565079936709479 -0.3760801444972942 0.0941406851401669 0.6725195972428095
Ni 6.2076395379288 1.5201965784849403 11.815104060506929 0.38862095727678236 -4.393820155907652 0.6317038487780282
Ni 3.897295823222216 8.821679419358334 5.452369578543836 -0.9897628741075535 1.3735486147792215 0.6648924197148549
Ni 7.241851381934119 2.526061333330697 2.8005777151500246 0.5180909138458626 0.049288561822482854 0.153475061234426
Ni -0.024902544838659876 4.15168297432814 10.954838907297047 0.5249231062763475 1.496212604170062 -1.2386569729739376
Ni 2.510787474105907 4.257080062739498 11.755914592365734 0.4132510971206367 3.235342777908099 1.0884484983059257
Ni 6.693652246509565 6.813549244014054 2.8315580996973035 0.5036909363704487 -0.45444556908107536 0.8483732832827519
Ni 5.38690738445605 8.758112936858094 1.8061152039306858 -0.978926702723998 -0.4580556550298369 -0.6073210490582897
P 3.8598571511907553 3.582820302858326 5.581421566882819 0.22742538746964702 -2.3446295962065555 2.615683776109747
Ni 5.761909534995834 4.457178808224708 2.7747566873237934 1.490450504875304 0.6585068279034854 -1.5026203074686186
P 2.4660848604773085 4.884548476106629 0.4418900913158918 0.7011061506312506 1.1089509891346516 0.44998496220656053
Ni 1.9308563832833303 0.17237920866131884 3.9441543075790024 -1.035143873345514 -0.7744566384989436 0.6794096394944235
P 4.93354977661107 7.317073739911154 6.962726733186287 -0.6780616101069613 0.32437011771751234 -0.5774767120033474
P 6.644287282690249 8.461261100215115 13.312113839023393 -0.8305131151728794 0.7316174318462303 -1.0147892209485618
P 4.8029946465706 0.8229989881354769 9.846527399240617 -0.08593012430491653 -1.1359894813096822 0.5983597260999437
Ni 5.139401862231625 7.9761062640694425 9.141217319559306 0.4547379035105136 -0.37814011235011646 0.34570384619828204
