# total energy = -340890.80930520926 ev
CRYSTAL
PRIMVEC
9.10028635041471 0.00000000000000 0.00000000000000

0.00000000000000 9.10028635041471 0.00000000000000

0.00000000000000 0.00000000000000 13.31918894487155

PRIMCOORD
 96 1
Ni 6.488859101348837 2.1949344735571703 11.638120556188793 -0.45470473627973307 0.3633339005752194 -0.5855854571534109
Ni 4.614473115302043 0.395417453601582 6.119115375687417 0.08502201066835036 -0.3269473915263853 -0.36763407061247005
Ni 2.8192687210627607 1.5888554005333493 4.874583870865376 -0.07912544267825727 -0.5062301578525346 0.31417235124890414
Ni 3.20456574617921 4.293606117768305 4.900821816561206 0.8328481910639592 0.7302249223740779 -0.42585875858231825
Ni 5.311964565030433 4.48196384529754 2.943646885185179 -1.9119131912724556 -0.07099690003385192 -0.8425463921883296
Ni 7.178560705934458 6.183890304123997 2.6587897208639832 0.5359639374715415 0.1268003801567171 -0.9432012242979304
Ni 5.18431484795378 4.572830204819205 11.500693491423602 0.09959476627620266 -0.9691912206037889 -0.08253472547012237
Ni 5.714197223103299 7.796324546672433 12.826991979414206 -0.5302879701326868 -0.1087358093455224 -0.5065723716833017
Ni 2.029200057972939 6.474708156025232 0.40773651127654215 -1.1772348611127144 -0.4784540161805309 -0.8076354392437575
Ni 2.7870719078441675 1.730282951191956 0.274166147879929 -0.6609349777290037 -1.244011809527948 -0.2447836762424365
Ni 0.687459294021161 9.13022632393498 4.742243866187573 -0.415699044440497 0.06411611375361861 -0.060337363437476726
Ni 8.757879006339744 2.2267399744613483 1.3825719288893648 0.2954074119365751 0.9262828512760368 -0.2338657437783521
Ni 6.966924445840735 0.7692735986789097 4.897638536384873 -0.19388740361320156 0.10535969378443791 -0.4150513835541691
Ni 1.1497301814689127 7.51917532491657 2.7437527246098132 -1.7642071713113228 -0.6186310747544701 -1.0183018620875106
Ni 7.539323358965739 3.9764793379374628 3.7939576240648365 1.8896456381235067 -0.15276132299685305 0.6065399479178909
Ni 7.771571767714102 3.864591316873981 12.813219606004083 0.38240891492879947 0.07260049707554593 0.31797526993476205
Ni 7.58270442414749 8.77956498878743 7.244573273318955 2.236677201994277 0.9777306255333679 0.5554696116046369
Ni 6.703289149361754 0.7828093646431082 0.35734094535174765 1.1780208473491194 -0.14783406089856474 0.35239745616837376
Ni 1.9155283807786363 6.4405820820937105 9.153226387736186 -0.8095154298752897 -0.1521997940664282 -1.210601095277986
Ni -0.0066777901469201205 4.9226816144787815 1.3850353764129013 0.14212569765987781 -0.32042398858557075 0.4885291410283457
Ni 6.390284799261839 1.7343598794909751 7.139910879642574 0.7452388792844068 1.4844904306371274 -0.33032659241126333
Ni 3.615789487197235 4.136262166228037 0.18220775399245578 -1.7084936797991028 1.5557079313222175 -0.3412614941562123
Ni 6.135276574272748 5.751908809869226 4.7741567504710565 -0.47740732008357134 -0.33354072847318683 1.384450606403706
Ni 5.534220859331646 2.963908672814121 9.211644766135123 -0.7775972410104544 0.3960121075345309 0.4785427192395952
P 0.21855884794431243 5.6863230459160325 12.627975996474678 0.027271691231759484 -0.00782849490548329 -0.1576785577928123
P 4.040900265233794 6.061764460881059 12.490562582139058 -0.8555590023979136 1.350091926418178 0.6296816761416769
P 2.512106754819922 8.510178311315189 1.1590798156975113 -1.6151307533652246 1.5811471973309283 0.5673385951280809
P 6.338667974904616 7.9827166123432125 5.761095548971592 -0.44449128608184096 -1.215763870425848 -0.04248799396088166
P 4.744343302255841 1.2275740311783085 12.5933193758471 0.46398204781660096 -1.042907833561649 -0.3190425348570118
P 3.9419528514051447 6.155652115481462 8.117566476005099 0.49037339332593616 0.6881645028689181 0.09069926355878573
P 4.730483566096452 1.2244981343812809 3.723313010912035 0.5944922727247375 -0.5681587770365312 0.0638237793241804
P 0.2320500225052406 5.500021983109071 3.665920234788321 0.32482288898421474 0.49906423623171464 -0.2983076163025056
Ni 1.5063704047692665 1.1174059642409755 2.6436859755562105 -0.778050526497789 0.015241756650418912 -0.9708513819150312
Ni 1.9867472220021263 6.684642662565571 4.8709473964272325 -0.3449929361741865 -0.9897446192751082 -0.8308545576726981
Ni 5.950841070174042 5.4833866596032514 9.51335020066347 -0.13117099842058697 1.3254119071729948 -1.7171030187346685
Ni 8.80316203137528 2.1125768818024317 10.379191488282205 -0.025378845084420808 1.37977222709143 -0.23919229819758808
Ni 2.3420315026316003 5.15805142145608 6.996157295784795 -0.5361259169707024 0.2219430241988371 0.07001936661193103
Ni 1.000458183949247 8.775670066216044 9.058699893031788 -2.3040938408760385 0.405555785358908 -0.30059641233668233
Ni 1.6848270207151692 1.2020750287366757 11.4044625130799 -0.3075962406932831 -1.1562682861633764 0.5967314464679013
Ni 3.8861862964578475 6.966997248131789 1.5954258073009648 2.592895831680954 -0.7586968045615256 0.4269039120173809
Ni 5.743900557853296 7.730292868686534 8.291594892597647 -1.1200740956310062 0.18680684261733635 0.08067170411945462
Ni 5.296357573885751 3.075814894450366 4.855830000689887 0.392047466459828 -1.0111117720969747 0.0428147811726811
Ni 0.7130056179519789 7.446555039590292 6.768638305869022 -0.06250763161591814 0.6706594041056192 0.5838126815237042
Ni 5.280259167276454 4.772390384884361 7.0813068554014515 0.25196990957823057 0.14280215490161213 -0.009152870143861656
Ni 8.143991887600391 6.932270555299072 9.270208749116167 -0.16803727531931703 1.040958680255078 -0.24485001070399764
Ni 4.687502913515499 0.2925523664855946 10.45521710077253 -0.6862814269135923 -0.2489244378836874 0.3572265021259009
Ni 8.130468862037127 7.058236719395104 4.769694880058089 1.2968430943963665 1.095886956861842 -0.1171137489965725
Ni 7.334321207644304 6.4592194686035125 7.08703366562148 0.0214280879667889 -1.9351528785266867 -0.8560148589884097
Ni 2.2214072066416493 5.142808441766667 2.7075645257841896 0.3125769817373262 0.13912753426350233 -0.7701904070234219
Ni 2.0857674381218287 5.699400157446592 11.337946699858493 0.7174547671926031 -1.0256017381830336 0.9628182271979095
Ni 1.2897016863064412 3.2255965080074094 3.9439449040941073 -1.8919627162924577 0.46399773154588475 0.6898010100310765
Ni 3.3542199557269092 2.689289330672381 2.7958309334865916 0.9260427102407729 0.791944767981378 -0.7494305487682513
Ni 0.9197750448887484 3.1473795465563623 8.303581789819672 -0.18533848560192598 0.45150679816772565 -0.5301882113300288
Ni 4.077501617061148 2.739950624959523 6.91910517099061 -1.3401407287427372 -0.07093236534450365 0.4543154712611144
Ni 4.259634748705274 7.0849733607846535 5.644845760645342 -0.2583128210771229 -0.3976833245893667 1.9159225695421649
Ni 0.3064448636759574 7.38893202622112 11.250718634832248 0.9394805809132336 0.8962251126587081 0.41567641873267763
P 0.20530064071475682 5.6187989209635285 7.816086728579017 0.34880819615521863 0.06302442335133661 2.0080850479100385
P 8.637618721805064 1.355405753982597 8.278315754709412 -0.2417052944274289 -0.0760599163790561 -0.43568242954095937
P 1.8420617688188567 3.44438559319718 10.323503195797791 0.3107895508196002 -0.5023202812751671 -0.5085557206619177
P 4.054678098815746 6.172323840132806 3.6755365074079043 -0.5836671570847753 -0.3701267551273367 0.1361429977138817
P 7.151878666263199 4.05239392693393 10.511317636230036 0.032390757625879694 -0.9493019378790297 0.5448776950214035
P 6.337676043689005 7.659802050373583 10.390339339099835 -0.13078918960113603 0.16176275516451494 0.6127062246296029
P 2.583198192034067 8.565553553948071 5.807193049638291 -0.5282580841868515 -0.18516442191790689 0.11102871914475719
P 6.911549203207852 4.038443187910724 1.6515527335889786 0.8187883705367834 -0.7582879991588811 -1.3328074283061178
Ni 5.097762024177059 2.6861224310115364 0.8164822443128191 2.032466819188513 0.7785089541914463 0.6866010150365401
Ni 1.668519307519093 0.9078818806164536 7.10091251238227 -0.6432915536156276 1.0482588134609172 -0.4891773161353059
Ni 6.69442547042594 0.9888462185261478 9.467266350426344 0.9074235524776887 -0.7855869440841503 -1.4659250089301141
Ni 2.638700838676294 1.542243733686082 9.21191049449747 0.9946199450895387 0.48459123942652027 0.11743873643615906
Ni 6.677990353220519 1.9434116582522847 2.7086301693194916 -1.5202750444359043 0.5160528003699113 -0.6099880543674915
Ni 4.024283142300738 6.895323392589212 10.275488264790457 1.6924924192748398 -0.3662978682995498 0.8107649860116747
Ni 7.939144441147445 7.354724049712162 0.3139717105422938 0.296922820139837 -0.5871499734270533 0.476478894732031
Ni 7.595808836537194 3.944591934455849 8.30162431821896 0.558106792117168 0.21845892230497857 -0.9740032972804517
Ni 3.366232333750805 8.505346059246486 12.445810103799579 -0.32362809734516523 -0.38056697662405425 0.0724868543158171
Ni 0.049359953334552654 4.968901969011633 10.154629181411858 0.2101331760481026 -1.077564247293254 0.02770466500412003
Ni 8.610508968673862 2.276109028082283 6.012268913279418 1.057951615268649 0.17798358789875154 0.33501731301871335
Ni 3.7473159262725093 2.693393559830546 11.366036553833007 -0.20332412354606919 0.1100910378218362 -0.797021411173337
Ni 1.247294351767537 3.4711131343003476 12.354280333400684 -0.843511070094444 0.16710833574714445 1.0489393844677097
Ni 3.3368111078786424 8.35607406172682 8.217726047979793 0.021089473680447553 0.06851964213795296 -0.6619904155767116
Ni 5.381954867592388 8.050868657056055 3.768171962602179 1.1045240637115494 0.48157173587390606 -1.217207287740594
Ni 3.078444877214689 8.568756854754444 3.2706729565420773 0.9070209177226316 0.5887381438497795 1.8197913363345304
Ni 3.4870477357547727 4.237493751938502 9.105290629220377 -0.21672085656794934 0.1816741493764613 0.46604998608922316
Ni 7.314910296792055 6.071947681342225 11.698217027396524 -0.43494298027177347 -0.2705350741749276 -0.7730613008133138
Ni 0.5423361170629301 8.886229445467793 0.2744045753831305 0.5368933912643463 0.8696087956227604 -0.09445924482185022
Ni 4.500046114338056 0.528620165428373 1.459330114433419 0.44883285087998837 -1.609616251304899 0.9948261475630737
Ni 5.737339251372062 5.424826316736761 0.39452198542161887 0.7869835673213608 0.27476813841966874 0.7806015750544169
Ni 7.717443264315518 0.07251108188969681 11.272375496363512 0.6030499324867613 -1.0650830841071077 1.3983998694949464
Ni 9.036020159311217 4.880383483376458 5.843700668515914 -0.12994818175707942 -0.6682898754321781 -0.7545642704503908
Ni 8.115289584352388 9.054302634652132 2.5889577632850704 1.2089738440872082 -0.5741214223778692 0.23042329375570636
P 8.613703169193853 1.8691260205181486 3.6537194808363234 0.7889149800161187 -1.0151687157751679 1.0055337637885648
P 1.8679429832885226 3.340141812694359 1.2590228008563225 -0.9455072467232879 0.7678429898371679 1.420925047180656
P 4.623455097960819 1.103782835527512 8.259641967054083 0.3231485866055854 -0.23414239447850646 0.8113442555539122
P 8.721705367972332 1.6214981277846472 12.623687941531601 -0.20356375036070104 -0.353961458221384 -0.9805560107973048
P 6.459537978626874 8.037955350680368 1.785171328503415 -1.3611942069789267 0.24487983550066858 -1.3440367213630335
P 1.9168297217312247 3.1358858848562257 6.28392702223254 -0.3941274889173083 -0.8260766766680806 -0.6365588628774843
P 6.988191815114859 3.8232578161281223 5.997697534724978 -0.31601788909807516 0.17364947929977192 0.5058308655315868
P 2.4766429387902846 8.319873122500262 10.407134827645974 -0.7282364311891394 0.9880944852661951 0.7764147906665789
