# total energy = -340867.7981961341 ev
CRYSTAL
PRIMVEC
9.22776326796568 0.00000000000000 0.00000000000000
0.00000000000000 9.22776326796568 0.00000000000000
0.00000000000000 0.00000000000000 13.50576429927132
PRIMCOORD
 96 1
Ni 7.239632276662647 1.0775258918766033 4.409051025187448 1.0235656815896115 0.15700904252961348 3.2867321881236684
Ni 2.7864153319436427 0.7208064099253124 12.351088629468382 -1.27596805071957 -1.1952066150997869 1.6098587063330079
Ni 3.419735165901637 7.101926368600006 13.355296252771584 -1.0341992500440575 0.24970528191376998 -1.0346692477019406
Ni 5.753824008438691 6.303235792941912 12.973353603287059 0.1620949416929531 0.7724043839556053 0.6177101056020974
Ni 4.392433669478864 2.3591975858084098 8.27733114319593 -0.15660795043645287 0.5557161803978041 0.10843730426849711
Ni 3.0130953313779902 8.877910873836479 4.171971336790653 0.08495799019963432 -0.2662917255175414 -1.1445666814557318
Ni 8.263157299144185 4.878801376793586 13.056305656489386 0.9488249982426111 -0.24543313690097732 1.5114250502444424
Ni 0.29107871223924975 5.722477297342478 6.563733698418474 0.8425142533988136 -2.2302085635507978 0.12240122264775694
Ni 6.811823953691924 7.593793822695224 5.266681169027389 0.1551287947877651 0.22694870494354463 -1.2030595354853022
Ni 5.0289555372167785 3.5860748227224617 4.165974213581519 0.4949568989315604 0.3720206297159399 -0.5263498114205452
Ni 0.3098793566865341 8.389374642203943 10.220122230063787 -0.1385184399245937 -0.4054375146134888 1.2307886259694545
Ni 4.696128579366256 6.781261602455346 10.87138360372869 0.1853667677367001 -0.31356402824094387 0.054956558741537605
Ni 2.911340788175769 8.626454330600739 10.387283157796462 -0.5522037963691716 -1.3199470274036815 -0.7615008496692239
Ni 7.032505907140832 3.597268099307597 7.495644566518405 -0.9939126346098689 -1.6427289746984675 0.2905958494805447
Ni 3.6516657625140083 4.794441166949141 12.489833583650963 0.011668951697496032 -0.6733292376282984 -0.7674958909103944
Ni 3.388406910331533 2.7750005890451983 0.6894763088025974 0.41107362985334367 -0.5334278013132491 -0.6722953970471454
Ni 4.5199521271293115 1.0554623104132397 10.597473144652378 1.6080368226329211 1.2412635573588493 -0.17901151494263365
Ni 4.7501109932352135 8.24001406940344 8.511359210350594 0.9425173108570283 0.7566774601386517 2.2600351599939272
Ni 8.356071645340172 7.194720753876285 13.212324060333726 0.2849949583539995 1.2773826716789098 0.42196533706518297
Ni 9.179363437301623 0.6306234815934633 12.89649187370072 -0.5459457312746018 -1.1512374086076882 -0.9903609127028687
Ni 8.466020442134809 3.9364529859026844 5.359627812394068 -1.8629635008466303 -2.5903599526329772 1.1830296134176206
Ni 3.0589665415220217 4.534162882233276 9.831872404531499 1.056078309505336 -0.807202465471397 -0.09094943189637886
Ni 1.445750548804273 4.094506111500547 4.970769877276485 1.9707847687976834 0.9274285348447061 -0.40996188484640367
Ni 5.019506307848947 6.071415929486195 3.589022170242076 -0.933044852590219 -0.35876042227192406 2.1290348828232495
P 8.189039906290258 5.795607319549569 1.5314727764755658 -0.48568241560817 0.6967393890221226 0.15780248496518628
P 2.805092324365996 2.0842102467836368 4.355082452963073 0.6460891709654228 -0.7155233544978451 -0.1190850137903304
P 6.205615287588118 1.7070162041669712 8.940707646975115 -0.08323329419904375 1.2082719329241773 0.18775069458784438
P 1.2270156533598693 8.136976867136642 13.432886975639232 0.5622714650178188 0.3576471346030873 0.037622695448780365
P 6.887159411269047 5.5597549236390265 11.331579529468174 -1.3483150370234134 0.23795791156985469 -0.5673450228859841
P 4.1123526052479935 5.408613392569 1.7036849817042885 0.18006361035623183 0.3736633075256855 -1.008180714493109
P 5.970897906533281 2.601795476511809 0.9257135024325139 -1.2837862612124085 -1.6322635563907695 0.11668874564401195
P 4.495083305697373 8.574335924868794 12.115454008765928 1.2171841478121426 0.14246662593906434 -0.26409317520432585
Ni 4.243599079172468 8.115171663038804 6.272346778893203 1.2266663762709649 -1.5966607195854954 -1.653575173384352
Ni 1.1794188515246418 2.014263802830355 6.0163990833788255 -0.5488618764801322 -0.21274798796313038 -0.2584884274230387
Ni 7.16630847143141 1.2017131270643684 2.3474229601508387 -2.0085355051838953 0.5689715027458137 -3.163963554834164
Ni 7.443113679777924 0.14785275631739372 9.040056512349022 1.3772252922998605 -1.0488136575231228 0.9488088002926949
Ni 4.543427556340017 1.6442766431592721 2.8232580987151294 -0.09613611830364088 -0.04018017176331144 -0.967583766907353
Ni 7.4457159089593 5.758770089435916 7.417014797530817 0.5867357687077701 1.6776476409525236 -0.8211483861285278
Ni 9.083025591012408 0.19606781827727426 1.7863805030936981 1.6650083549219583 1.0036051793072844 -2.2099603548247226
Ni 8.731983028892259 2.5374964235478954 8.739647608885345 -0.5191856895719381 0.8710745815350094 1.6454882826111599
Ni 5.357897606821345 5.129492015695802 8.465318209366359 -1.3261256454105677 0.47617319056615404 0.8191475536484152
Ni 8.919887967971503 5.970353468513063 11.069256372459428 0.07471162988127777 1.1512412652624302 -0.18454504316635315
Ni 1.5334973476897282 1.6434184611952014 10.244513976145806 0.7681461228998835 -1.0900446391484517 1.9508746601373175
Ni 6.720247633138842 7.0416229370387 9.338654928701404 0.4399044380421069 -0.46760396083990435 0.13861099963839998
Ni 8.18553335632954 7.6048671383606505 2.816451700686114 -0.0816564366302271 -0.9336115237269662 1.5783066425583399
Ni 1.3646477393180736 7.113036595317651 1.8722097728164238 -2.0549256624126606 1.5189696953609195 -1.5255087820310178
Ni 3.713888568790654 7.652851506244168 2.0068345307951594 0.31201108193152716 0.10279553260168747 1.657986157967854
Ni 1.8440484855266315 6.989135420784577 5.70170098882522 1.4237907987642253 0.9912399728737122 -0.8490505118554346
Ni 5.307421742913106 4.0659461848467995 10.615719200540086 0.03211230715351244 -0.6245057883676922 -0.5520469590763332
Ni 6.285223199459484 4.503665125338079 1.9339850325849253 -0.43864588304465746 -0.43129689887875394 -0.8114725536016605
Ni 2.0817648895741883 5.0643993751092 0.7871457213005808 -0.11227210463355504 -0.4814403525023644 0.39728737470252873
Ni 5.071569347002563 0.7766703646810867 5.029276663371076 -1.3751524689312318 0.6528205761519853 -0.10285106842997126
Ni 0.7484241819711932 1.9877985783899845 3.457327227033151 0.1536475822565483 0.1449099452732343 -0.14793741924564843
Ni 4.386260295995388 0.23639591115445435 0.612002778525742 1.4476033278027909 0.45576351656155056 -0.16114131953043215
Ni 3.6203559624700126 3.117332142841877 6.111385062380555 0.3334813359901611 -1.607444954685193 -1.3965404476887044
Ni 0.8530098028785412 3.891559918642432 10.315621272691347 -0.7962210267592288 0.3624916071795822 0.7813644213623704
P 8.0251825177311 2.994621349742836 3.326686094365053 -1.1891951187983842 0.5538292477877365 0.4622684075596039
P 5.869577068194623 2.7279482252301874 5.954232566456813 0.13489755534255476 -0.8260612500491128 -0.10365376683692472
P 7.315179972790023 8.945199722030058 0.6037199384080025 -1.14008396309403 0.1385004422024647 -0.760201157021194
P 3.4871808860671427 6.61746880823757 9.093268408002928 -0.6545617272128083 -2.0582601261025326 -0.14534111927338195
P 5.585961770713871 8.420186143042994 3.5217766925348535 -0.49936171286747544 0.39867114242393276 0.09168913827588081
P 9.146198856883668 5.755272767238251 4.533412665096943 2.583058533875558 1.8165206360030586 -0.9057219964055498
P 3.457532083372962 5.357039424857274 5.148465219312206 0.6398599022262593 -0.4236213846113673 1.441891622129994
P 0.8301166455165763 4.2772250477431495 8.21211208225548 0.5286725460164509 -1.6177843889379881 -1.2220242495132632
Ni 3.0113605119237397 4.742009017273343 7.3882066440509035 -0.9757938135219711 2.1008026274504332 0.987420599127622
Ni 7.711466257166496 4.755601512252655 9.444972600734085 -0.24860767797421704 -0.8338851169689058 0.5261500367049132
Ni 9.103391264073739 8.879756426447383 5.3533879990166 -0.5443691308161013 0.29442525052896384 1.5456808861035185
Ni 2.411980390480279 0.017083357742837677 6.308947778272661 -2.016275297030315 2.11565203375844 0.7552229870803122
Ni 6.006895410208973 7.032773512269414 1.827667360552243 1.6678273124279919 0.8029591168140107 -1.4953060331953925
Ni 0.488829674497669 0.5446954748060542 8.418872109584031 0.5390009245256524 -1.5072428938422946 -2.4022189645852503
Ni 8.246335087095789 2.6105157125983327 0.47434946871251216 0.18570872445715111 0.02524180528592427 0.538066328526525
Ni 6.0892531954705875 3.9766306662420754 12.75099404251484 -1.3768681660707578 -0.8885251729112891 2.15817268072947
Ni 6.610271153055042 1.4099006893374526 12.43730915634462 -0.43208314222547517 -0.9450511330224757 0.8055088798190578
Ni 7.18236477914628 8.355370335348029 11.222182552904199 -0.17006844681673292 0.286387724936468 1.065739229633868
Ni 0.40588038962425993 4.387764421373275 2.4941093272181414 -0.9360805540927492 0.645111894653818 0.6361472292613625
Ni 6.3326354460336205 0.3480730679692032 6.975551230792013 -1.3446049351616778 -0.7093930732303911 -0.03837242913061133
Ni 2.4053271733179686 6.168187480638974 3.5295962989472556 0.16192473466367596 -0.42468196466539765 0.33136506097810675
Ni 1.1757000630136691 2.621238373267688 12.597096178620427 0.18126971484919105 1.2350818540281696 -0.3461591885681458
Ni 7.308572894442984 5.336046263908235 3.866889494116166 -1.4811287132537458 0.1748625257712666 -1.1847406825714564
Ni 8.065618575436018 1.6561158631582245 6.753408522451575 1.1683784391633492 0.00676431530702706 -1.3268296134561277
Ni 0.4723821096292879 6.217279180089034 8.734217993104064 -1.3626196265715436 0.48635115954042046 3.3114070651625296
Ni 2.4590235265322358 0.5264734111022884 1.9339038282700454 -1.2373012302769917 0.5498378672401563 -0.44689912419238514
Ni 2.0277732479421764 2.3494161569706162 8.192150585215938 0.8152042527299509 1.0184242465979878 -1.2512255536675678
Ni 7.809225178966108 3.246889936127374 11.499577415309895 1.6067738967600973 -0.9377173183652238 -1.8962428317250504
Ni 1.869535567083223 7.7862572767234015 8.076798010376573 1.176206162737884 -0.5070853067639783 -0.011779766243747455
Ni 5.502764259014295 5.1159548872948175 6.135087494562401 -0.6749564888190763 0.4266576003345297 -1.1939650293832018
Ni 1.8953363925836682 6.446450675548102 10.725494515389299 0.9717867492451071 0.644350076787129 0.38118121316928544
Ni 2.891076620508038 3.868167539299217 2.9125311696098026 0.2516436365870634 -0.7036955086249816 -0.4239263174462957
P 5.991189757490176 7.24490132936678 7.16031042544597 0.1564950790076724 -0.6522248515495155 0.2260341635490752
P 3.067400716953855 0.24612197341392117 8.377139551169952 -0.6321687042295887 3.6201348483570945 -0.09793254808243133
P 3.2701069879725533 2.599128652989052 11.647965381884452 0.4842199721300306 2.1626039770279464 -0.7282153481432168
P 1.3295637841847787 4.933180584473888 12.201228834686631 -0.03787132112447671 0.28916194524749556 0.13656285886011965
P 0.8238934421126062 8.9907848715194 3.5407120623227337 1.7840992822495594 -1.3557586377856523 -0.15834293084968862
P 1.2131740087780856 2.842114109740741 1.260481058853401 0.7216163547694605 -1.0557201548349688 0.22295243929995798
P 8.68699768400146 1.3312893758759747 10.785244281167332 -0.6588894080538845 -0.7818876408556922 -0.1418243643693751
P 9.063601149782638 7.69176498304509 7.267343249115378 -0.722873367105013 1.520528555207607 -0.04250933411712034
