# total energy = -381172.6700002578 ev
CRYSTAL
PRIMVEC
9.18219044337717 0.00000000000000 0.00000000000000
0.00000000000000 9.18219044337717 0.00000000000000
0.00000000000000 0.00000000000000 13.43906386391649
PRIMCOORD
 96 1
Ni 9.004110914402288 5.60953779527361 13.24542063149457 -0.2044250699197318 1.3172095738678604 -2.1027080720032627
Ni 3.025871449286856 7.4959361554363255 6.84513372547391 -0.2686075181349116 0.7889532894532219 -0.44728298989436516
Ni 5.761567320291567 0.06589139768852201 4.013092804387456 0.018349191931149044 -0.33190627819355745 -0.8850948070735014
Ni 0.21925509495900714 3.774972899429694 11.513890929594696 2.225122407277142 0.3204550989338223 -2.971439607227392
Ni 1.4575441615782092 0.7813970499129143 4.3168157862579015 -1.7857167632483244 1.2282954272339557 2.49056361186893
Ni 3.8811098372615813 6.3489244880649345 10.482483038268244 1.2888770454717544 -0.3013831699040358 -0.28636304234611976
Ni 1.3405997857475214 4.508721727368628 6.145629876308574 0.5186344450541583 0.24882750729450692 0.7358394403473778
Ni 4.787153284240013 0.4227911983206089 7.806497114433116 -0.9752076020011979 -0.42569086554588625 -0.5161705568946983
Ni 9.049122011318277 6.222660189066207 7.769230276827397 -0.1498032688097936 -0.7938828655443554 1.162916130497197
Ni 8.243752098935296 7.954109087691324 0.7620914947791186 0.012825433899442427 0.6299948365067215 0.8471584370390443
Ni 3.5898874892837154 4.0512466415774435 0.8529676323102364 -1.1253574555171328 0.3878501405490288 0.5060730634493801
Ni 2.922085152175183 4.284171263255918 9.966785520138236 0.04097875640520684 -1.7372311569431114 0.37937449897784986
Ni 8.558131930883404 7.266482401696293 11.655606100233678 1.680570213915957 -0.15619168883464069 0.07570330437058574
Ni 2.232934222588137 5.2102410673077415 12.586973109877267 -0.20491820750606643 -0.2761092258285955 -0.9067548085454382
Ni 6.446632175189177 6.754722206772646 -0.012451050064887939 0.9359072617396786 -1.5315665581893236 -0.09835780854530803
Ni 0.33635189514889646 7.012613203913092 5.468637084915421 0.5318895102918517 -0.3236694921060619 1.5609547815434537
Ni 3.3933059768654372 5.4588305056607735 2.811572900658989 -0.1196470569413875 1.3263922688083931 -1.3499019218945592
Ni 4.081336679234256 5.1702709928737764 7.084080027559873 0.49194048070273994 -1.391124675989772 -0.8140693677945593
Ni 2.414640586698806 0.6879324529324659 8.41043456325528 -0.3086869026543006 -0.1701520076694747 0.08020736288852638
Ni 8.320910044138285 4.888937863863378 1.7270671574075918 -0.6224651037885796 -0.2986652567522405 2.1341313235095503
Ni 7.18455889972068 1.849522683864346 4.116828599452406 1.6840761701866866 0.11976867012091631 0.7075830166048459
Ni 1.0785492563951342 9.26262630048404 2.330213101424746 -0.5970803451668879 0.8592624193914298 -3.689583944287852
Ni 5.491528285366575 4.730545080958276 9.84776964217286 -0.9696295936927881 -0.5726019004095493 -0.10863013700559357
Ni 5.054713127780403 8.683918755985836 9.910973412756668 0.5221321737947717 -0.5689164811381622 -0.14090313810668637
P 1.6048264942041697 2.480173878965108 9.851492102125889 0.8191866344164666 -0.5036950501355067 0.8151744279332801
Ni 5.035586625357717 8.157090586758 12.31378366545577 -1.581084205303477 -0.02202586945178787 0.9003571325492106
P 8.393522805136172 6.231842379379546 3.715135319814756 0.7851490852157833 -0.2531500459292608 -1.445420718329175
Ni 2.809777782452732 7.5443722093391905 12.027061508950469 -2.5860027041055464 0.5420726214724407 1.1027080935487332
P 5.074794577995676 0.9325340660324145 11.439411429306109 0.022486868248606434 1.506697819972102 1.0871850582124694
P 8.240106769380901 5.540092889933826 9.837931843471148 0.4699724610720809 0.9838015143177958 -0.7184263870772529
P 4.884888517935194 5.045117738902963 4.431181803048604 1.0598354625549231 -1.7675730024597622 0.2998466786548513
Ni 8.050567996932953 2.354129952533901 6.57141997798552 -1.6820498837852773 0.24181868007684162 1.008391030731702
Ni 6.687370840824304 2.8984869230699015 2.0360313335088915 1.0440807708238276 -1.1500708991034128 -1.5350336908023177
Ni 0.14864037857330345 8.454217083107343 7.930780814981255 0.1268399751454009 0.7849644800088029 -0.5907034951062665
Ni 6.349952893380029 1.3554841162454443 0.08158284271498735 -0.3514350922551044 -0.23573442155597465 1.915686285161643
Ni 2.3761488449052885 5.956780686353158 8.39694225280886 -0.3518269283768844 0.42015142378489584 -0.10390779182925974
Ni 1.1787453170942914 2.146419625455855 6.765828984175662 0.3242302497055384 -0.8291884828241849 -0.5084665033822211
Ni 6.270673862214658 3.933521779570121 6.0501185691072825 -3.5340172906317204 -1.3880326673280095 0.4282892224006818
Ni 5.731532375776634 3.721514187425433 13.445380271729125 0.61026907594302 0.6491441557416626 -1.1312995320331807
Ni 9.170556478212188 1.546648136378853 8.79691570820082 0.2809822376501806 0.1574381596472321 -0.48981366416772415
Ni 7.490059553635789 3.5408545930104847 9.505758763133853 0.5395267151221353 -1.4105187642456674 -0.8795509944371367
Ni 5.37429007944586 8.644352697925658 1.3497388197663878 0.7835411172987151 0.4617796408486434 1.1579055646564833
Ni 3.4558091463283365 0.8961817745819047 3.3197850972455614 0.6340319826905725 0.39446018966637875 -1.0679467788081478
Ni 6.421840261343161 6.7994762023598625 11.02636161668892 -0.7884251848638938 0.04222008501147568 -1.783644196990012
Ni 6.686470986173596 5.498975041710693 7.790450318641524 0.05064404740911278 -0.14026987539806166 0.7664445668277446
Ni 1.0747202830344718 8.767954161733517 10.211430289532661 -1.3227245901488187 -1.4713762618526725 -0.14177165675456874
Ni 8.282574399580094 8.56194253986344 3.807663333383244 0.15031080457383147 0.3886790642082274 -1.5647970381076792
Ni 8.805105303741287 1.205777685376762 11.035218757465167 -0.5730834680316582 0.8496860885569044 0.8307676543858468
Ni 8.190651492353256 3.3863458766079257 13.166506133284638 -1.266940136189347 -0.3739687545812463 2.7019347740891915
Ni 2.9645527823743767 0.5540864193920146 10.95955659106422 2.4270357665186135 0.3232707140057465 -0.44237141152536075
Ni 8.20705088425288 4.865908930557523 6.086874876931579 1.768378014859561 -0.20128318185664043 -0.8544598557964638
Ni 5.040554190317234 2.761855931207414 3.6394997817657186 -0.7204724709730044 0.4409102535988019 0.9992983244018145
Ni 4.802239622924828 7.038047871081041 8.181876991289828 0.487206051341548 -0.21624623092437598 1.0797388863470694
Ni 3.7026447863315206 2.903454488029418 12.24750294289796 0.3275636849541455 -1.5809294248931676 -0.9030454780146513
Ni 1.1755315504846229 5.915203728614358 10.380748960691603 -0.742051996915993 0.8537011232535685 0.6541143552627444
Ni 0.8723521542807269 4.870619394188265 3.6951916024541833 -0.7521392059486659 0.13754142072330508 0.5861279599204422
P 4.3131869846460695 4.9352987427554265 12.069837660744192 1.1236764682702842 -0.14706427261207575 0.19190534018616628
Ni 7.278070325871727 4.760249466621929 11.581503069747937 -0.9374311545833727 0.04120347082150323 0.8290177615742755
P 0.09612467751422261 2.867129743149848 5.0327282095131745 0.842583158963536 0.878293724991268 -2.4279726765105862
Ni 2.463829580207364 3.4948977304922213 2.9643755661013294 0.17992554211647077 -3.124319715190297 -0.6362873543836526
P 7.515035111288072 0.7086483924983905 2.0884845956738416 -0.4196873396642836 -0.21737931608755467 0.3577232392566614
P 5.3190867512820645 7.92140212579521 6.046046267703316 -0.7048890147124505 1.09847451508336 0.275868313462383
P 3.0965926790801945 7.925616751149033 2.2266113663383718 0.7783418324859628 0.4795133106829806 0.14839970359404767
Ni 1.661838713859693 6.46107576055206 1.1595453571490995 0.11767064994130702 0.7196805711993283 0.14406019567842931
Ni 7.002264875429958 0.9307251745406867 8.121844749240248 -0.03664387647527883 1.2338410396425332 0.6057493336957955
Ni 1.3439237386409502 7.396887868526336 3.4476305694162455 -0.05019076192177808 -1.9348404894925904 0.28173274266295995
Ni 7.079872747958301 4.295391899818819 3.9157937247321573 0.7070947641145178 1.0568709806099605 -0.19782273411186577
Ni 7.10071631996958 9.01971145574465 11.966088092393772 0.35998323893543166 0.09323642815834265 0.543547149135438
Ni 4.477667559728915 1.8711467420522596 1.5209526950060044 0.67391622048002 0.4743183967456025 -0.694738813652326
Ni 5.618582252732249 1.3529498317189625 5.858867318165896 0.26527279733472375 1.1229717288937755 0.835239059893639
Ni 8.86585467485434 1.461841426644852 0.46702456371705775 0.7001846672582458 -2.432261019473295 -0.07859733808892914
Ni 7.172934246783993 6.8450565950752775 5.272950836052692 -1.7290979863130158 0.43997720026157133 1.2874472550037632
Ni 6.772462198458018 6.875210908064283 2.479104153793604 0.6577509235740673 0.3512286326712532 -0.5301049075876032
Ni 3.2844694750814276 0.03292641624460299 0.30600751082040445 0.23906014349509797 -1.8194205832586732 -0.4556483311399249
Ni 4.3184391975053 6.582087846691556 0.936338247479231 -1.0703001095316726 -0.00819127756154073 -0.9551123739132196
Ni 5.564600155880128 4.9043914901607275 2.093900251520649 -0.023321191224443705 0.15054220385834718 0.1517673345146999
Ni 3.2302119125199065 2.838857779175077 7.6065365559795275 0.8649777246086522 0.9216751773006965 0.6606925227008944
Ni 3.448674584454872 3.5763804873327936 5.328494823477112 0.10305315713844834 -1.1433482356675988 -0.20208279493980036
Ni 4.480853779767643 2.2047908092777524 9.614238995933706 0.14772530323484237 -0.13167262064735388 0.7802984419917013
Ni 7.811032198228873 0.054110647516507834 5.9836762399999595 0.48792621733702424 0.25894017024847665 -0.029041638647988696
Ni 0.72766746329441 4.074091931077031 8.605717713963251 -0.09024366407860587 -0.3202303845175259 0.02271183977521895
Ni 3.2730927412832 8.218510257763926 4.630079982082938 -1.0313026452225529 0.6754907640559915 0.293669603309862
Ni 6.765474551629567 2.2370386616582 11.545432671540047 -0.037670775077896415 1.5541616698810201 -1.5646191177689184
Ni 2.9279433895950935 5.841103452785711 4.901400850775673 -0.8362335625964243 0.91983863831259 2.233493919170289
Ni 6.911902940556386 7.87333335950488 7.662617701537278 -0.0586427493438732 -0.7454797916506194 -0.13638468141104254
Ni 7.729742267384881 8.620726922249437 9.824008888299032 0.24220665954387963 -0.23398761406819701 -0.8829751896273375
Ni 1.5804753254931942 1.784797424345618 12.085198546919376 -1.170368215899868 0.608573433408152 0.45111573337689403
Ni 2.287724352187832 1.7997001192241675 0.8561584434441218 -2.2470284633216138 3.0460447934377926 1.3658247637724026
P 2.8972748739485406 7.912219935481872 9.470642394499519 -0.14512771771099522 0.3330380778051555 -0.8177234196073788
Ni 3.24207530240474 1.0133465229801129 5.984401633034714 -0.07629362965641699 0.30965826542863445 -0.04661821407917133
P 0.8676591368115792 8.596990960289455 13.403020073156599 1.5956533613669035 0.4198112668366576 -0.9313186139277316
Ni 5.033281895589069 7.1221200055899745 3.9441235365059026 -0.009235402555338933 -1.6924111724149435 -0.5660335031634123
P 1.159343348962206 4.235349557359894 0.8026887128114851 0.17899711676493046 -1.1815214043032103 1.176374055774316
P 1.4153703614690425 8.752877005239014 6.165170495514391 0.02363820824423026 1.3380537643067214 -0.0074304881361162345
P 5.809884005720358 2.9315887191494894 8.095920671328598 0.1696493570014433 0.4163132809857282 -0.6622724655935046
Ni 9.052849980585492 2.5345048990491357 2.672370895508767 1.1356446963757538 0.2081842798518479 0.6495920419123586
