# total energy = -340898.1369259789 ev
CRYSTAL
PRIMVEC
9.00451421117421 0.00000000000000 0.00000000000000

0.00000000000000 9.00451421117421 0.00000000000000

0.00000000000000 0.00000000000000 13.17901673830204

PRIMCOORD
 96 1
Ni 6.406279709926136 1.8506798156751247 11.303326284291257 -0.4365704885728675 0.9848171000665038 0.7767498054084946
Ni 4.4856438226306965 0.36680609374576095 5.996794919738258 0.16543557603041184 -0.6983560986899392 -0.3331805169202907
Ni 2.6021875748925076 1.433374604815057 4.8614364216508905 -0.2805934868521942 0.6553885939894777 0.042937165683158314
Ni 3.548111802426819 4.138321696933853 4.803830941848625 -0.5201706791930267 0.5037225609393324 -0.11875565547536968
Ni 5.054981252983285 4.5097939299914485 2.7540451068075495 0.004807448690972366 -0.6599057651335409 -0.7421548410424444
Ni 7.380072909228355 6.185705127558879 2.5657436041538157 -0.7075840450461104 -0.5139725208021149 0.2185499393568881
Ni 5.084543073440164 4.480484235935055 11.73291005085495 0.34731258544629867 0.16724460421469262 -1.1306274456668206
Ni 5.532094447844142 7.888872989921609 12.397053310949953 0.0666332237485175 0.1631066707869191 0.43702583094273123
Ni 1.7814711187419623 6.611060374205864 0.3655427603890445 1.0272055923350438 -0.11296630248710221 0.06809875255045046
Ni 2.745008176253019 1.6914439847401725 0.2230364165777093 -0.05619634468590967 -0.7808430016412616 0.38669365834708236
Ni 0.5517318039872854 -0.06609943814432287 4.6249391566415685 -0.007539502910154758 -0.05958351599058771 0.5037192185052228
Ni 8.774647061911615 2.5344826318479527 1.35179820748667 -0.4221358012047763 -0.5628903295487403 0.12699321289381355
Ni 6.6398928290041965 0.7604303324402647 4.757374851656384 0.7395549415257521 -0.6278397378369316 0.2977124059206679
Ni 0.8439463021495268 7.420773313878094 2.5352867349752146 1.5844783185866904 -0.9188230525638822 -0.2863771834135068
Ni 7.753219981946317 3.9826786672058136 3.685709785491567 -0.45499655648853893 -0.6305373392737528 0.09127287667406861
Ni 7.583385837676687 3.7793027071573606 12.586606441091808 0.09549694205774521 0.1609528576687099 -0.08188912146632349
Ni 7.82548120922821 8.80650503351577 7.024640417498763 0.418038491206951 0.014271165207033486 -0.014898257268071117
Ni 6.972195424843569 0.7148800963869085 0.34691422119891613 -0.7415267205401423 -0.20673623455141169 0.6581651282933504
Ni 1.9363757782971527 6.3637784024157895 9.211579412598018 -0.14961120740364556 0.5581857249842193 -0.6972016733705219
Ni 0.029520399691085056 4.9149340420281105 1.3279173351035787 0.5251455066997988 -0.18879019159595228 0.11935446540163316
Ni 6.199355971242286 2.0702008698689274 7.046939196718811 0.619692683249765 -0.8689174259826906 -0.39797231658469523
Ni 3.491572457118033 4.495620824478465 0.37072305746758316 -0.5556035660793399 -0.8161146803593623 1.1258809321207706
Ni 6.087708998398899 5.464398509313891 4.774243908751699 -0.30608623180665995 0.6349822624189838 0.3969225351639422
Ni 5.329645952768903 2.889332531502138 9.135285963811224 -0.47726565229938456 0.04470531332717462 0.60514666711479
P 0.21855847161480774 5.595612291737783 12.41310475814655 -0.05257880253798042 -0.48072070072752054 -0.3918824016368735
P 3.951514043202993 6.301647253724816 12.608708021448619 -0.0024870280879118463 0.1726783736357542 -0.5646618196268662
P 2.438746635778036 8.59078388435785 1.217503980719707 0.061829631712287066 -0.25506371801220584 0.5673010570219262
P 6.357259134060389 7.826084511686513 5.844880659383107 -0.6432229051612213 -0.6789033892819664 -0.9714237094787336
P 4.713791201526811 1.0445506726955038 12.629544467545852 0.7543776083608814 0.14813102331369327 -1.1366543685871908
P 4.080152534536217 6.062388304178751 8.19981327602845 -0.1606756927479233 0.5252285533319083 -0.611894784471901
P 4.63963902624128 1.0347897791910088 3.7289233500832846 0.6185696253889154 0.12720301491177446 0.7847544208805259
P 0.30735288760851165 5.5630339589893865 3.5048541157150166 0.5482764362903074 -0.2251345345529413 0.7783060941520208
Ni 1.2978926826115231 0.9901904198480537 2.446618382181753 0.39384363912830234 0.28163272674998596 0.34051947378386516
Ni 1.948666940320802 6.4123127345091735 4.821147523304801 0.1930710783594933 -0.033577321734813134 -0.2390544870681431
Ni 6.090869582919265 5.624093570478298 9.164015767146502 -0.6895048189468964 0.2274161314982664 0.13314740542066747
Ni 8.513831305124071 2.5737783322664174 10.177522476330845 0.7550769484207511 -0.5774389167868765 0.22442388163916188
Ni 2.370762552790087 5.156435115635633 6.972542999095667 -0.12714542220096164 0.37626089304953264 0.25255432132679084
Ni 0.32239582920316956 9.171818178790087 9.341089540915776 0.21488071803541703 0.3259968546876579 -0.824728133059986
Ni 1.4338968666446334 1.1596553790312594 11.242703391746046 0.06909119837070682 0.12763496024287052 0.5510426861815348
Ni 4.226232770074429 6.886535480278754 1.7801816722937673 -0.43745057718497565 0.25997478216057807 -0.7155737481198063
Ni 5.6124237199415585 7.783385104861499 7.8513862964266234 -0.48142158344928704 0.47281944360257283 1.5076159609109971
Ni 5.507854295340359 2.8617156861347155 4.8251545321696545 -0.7198695472816828 0.08637543937245123 -0.9257295498757282
Ni 0.6380986029248898 7.20924826838539 6.836021955941562 0.5530610021631442 0.23656823031117968 0.2594636468521144
Ni 4.943433329797231 4.372186942412398 6.963107168557512 0.6201449402958352 0.48651313903958154 0.3107874939370712
Ni 8.141287534864414 7.186358793027064 9.166902614432056 0.49360321311714345 -0.37311154878727354 -0.5538876118294978
Ni 4.646590511283226 0.2610444714508395 10.480494667730929 -0.20426900395784175 0.04029175764051126 -1.0273398039200627
Ni 8.122053892313122 7.002522629016207 4.813359518884102 0.17735212496233974 0.3246261995923764 -0.23888093760475634
Ni 7.255954684075257 6.08528678405138 6.994420367046333 -0.34901337018748924 -0.5336430026478487 0.027182216841746733
Ni 2.411940196697887 5.2363681891037155 2.6377806190295625 -0.20542368638757527 -0.317397285944105 -0.3838070808279067
Ni 2.43493772622785 5.15977579044206 11.314831352216252 0.12693382041078785 0.4203622542441212 0.8241846018516904
Ni 1.0541945075140593 3.259138929413672 3.6740066182519064 0.23875855309427912 -0.013203386064151454 0.10821181852125233
Ni 3.330220565321866 2.520129436048908 2.7727204694720538 1.138222227294943 0.5378027904524931 -0.17464295356129275
Ni 1.0333670659311287 3.2878093029545497 8.02138252195371 -0.13999913823517823 0.17083926354448642 0.05996918146478059
Ni 3.4426239173667095 2.518859799532179 7.0690002567612575 -0.23440618966285437 0.5020783404676901 -0.38522118756661394
Ni 4.206161707692954 6.747694874240187 6.070123181965062 0.01949693238234707 0.4371014213756731 -0.5680610751164022
Ni 0.6984450568810007 7.402800303329227 11.254709110666287 0.448830279776827 -0.1582254314352178 0.03202668941824161
P 0.11527128985036157 5.487152916957671 8.139426301757975 0.6193478983158366 0.05109193357980878 -0.9462898905255833
P 8.436176373774659 1.664997726232145 7.943164808460355 -0.7384766208599088 0.5042717485745831 1.0330311978778854
P 1.8074761560491408 3.2155570801869597 10.232794886477196 -0.02996209357972904 -0.5045519988191633 0.33796174035901794
P 4.115351180946799 6.10542988254728 3.9045996232327265 -0.7437003311526934 0.2995178345605229 -0.34305843815563497
P 6.839712005902948 4.001300002784499 10.43564678379321 -0.3555707116900328 -0.12595808676107983 0.22618611574590722
P 6.40966540730408 7.7371469239153905 10.200492992317901 -2.1058324765648573 0.5155486070399831 -0.2549747578428254
P 2.381739055725492 8.34784208846184 5.758321163839418 -0.19826830628971662 0.17941363547705877 0.167637211667421
P 6.866869621040916 3.9534950363496617 1.6065881433026181 0.5750588465904741 0.39181401029278323 -0.19113195235525146
Ni 5.256844454628827 2.8435445762711815 0.6433734474036105 -0.38558834109804563 -0.041474722205018896 -0.5474089460836895
Ni 1.1858855291960138 0.814859019596418 6.971990121917461 0.4211996625437521 0.3801679414134227 -0.18350348927571625
Ni 6.726030012827073 0.7648128295515542 9.18436416856851 0.1869135433985297 -0.42000178558090895 -0.5539495754156847
Ni 2.559019933323736 1.3952584957702907 9.047658532871194 0.6288182997001169 0.6208872177784984 0.5034988749643007
Ni 6.552909220836834 1.9465778930024968 2.543708657202847 -0.18172325744684187 -0.08067170411945462 0.3088357695273391
Ni 4.1612201768064825 6.8026854430888495 10.331321381529623 0.303755012570322 0.2900782864141778 0.10065971720560728
Ni 8.085117374642053 7.096871929883457 0.3654148962859413 -0.10082066826350379 0.4184778927372148 -0.0436115660423636
Ni 7.501039554375389 3.846494392886642 8.243883169930387 0.8791293335186858 -0.3341225691185859 -0.3289603081913561
Ni 2.9792245977893823 8.324277274530786 12.103543063179504 0.19665031107031938 0.07957127196642425 0.9311005843796545
Ni 0.20770172871963286 4.989491420457278 10.285471295149977 -0.720381711031411 -0.8699103860235792 0.014103529280917647
Ni 8.390775612658734 2.2966824136189796 5.75397198343105 1.273156549412704 0.12087784402469505 -0.029134455472111118
Ni 3.848646471805069 2.5145826552382355 11.221352787882106 -0.9969177399847798 0.3515993857471106 -0.22584467324608848
Ni 1.1621586340075043 3.4055793455240044 12.429802729470108 -0.5732647308045288 0.2322842582238451 0.28597994797508813
Ni 2.9990255247417665 8.321071667438904 7.903139742383344 0.8865788478181957 -0.859800551283087 -0.29125430900015004
Ni 5.752461926382431 7.803050964099337 3.5997427869890175 -0.9057726471378272 0.024467389013744956 0.6695144918678986
Ni 3.103234768770844 8.362483428718583 3.5757439554685564 0.3092018946175062 -0.23652529288838622 -0.28958386327626257
Ni 3.40195052625988 4.353493570719287 9.245198667199846 0.4665125275479385 -1.1646133156939622 -0.1833327680258068
Ni 7.1717894888847455 6.162680584486005 11.415229885792282 0.37837819650285154 -1.0480628954000273 0.32022909896594526
Ni 0.4302212861763477 8.98161582316698 0.24534059850633844 1.1443759056011646 0.004259032386670084 0.18972992980140227
Ni 4.651849147636201 0.5084687145669013 1.5873599034599073 -0.35087870553100214 -1.024384320836165 0.0374314053735807
Ni 5.985687851345459 5.648378745553596 0.4607564946293853 -0.1266114040743626 0.2492748792445707 0.421237714870539
Ni 7.883029060138936 8.893677736483495 11.287656628501109 0.19507833859750917 0.0342370668059991 0.5536387290434852
Ni 0.0955955256467897 4.874548795378978 5.82400549387437 -0.14996473408832237 -0.6379179480085401 -0.2138342790487737
Ni 8.069494542326279 8.650078611043364 2.677462613111628 -2.1035480514060545 1.3803790074374935 -0.4287129402016617
P 8.438211394007146 1.609773040011603 3.6346541893933324 0.22017616210640145 0.20136005784116293 -0.4060705202117974
P 1.8875623062603752 3.2951299730829207 1.4534348617793689 -0.6685477570792551 0.7674089876235428 -0.09577282142695119
P 4.615759054309619 0.9871198804707172 8.11171130718465 0.21557671566117714 -0.3171358047526022 1.159970160494996
P 8.623335203563336 1.6817191092928898 12.44385157268571 -0.6378554702017208 0.6718575381787784 -0.8321609351889474
P 6.300566712008451 7.798566715976424 1.471265601002248 0.14891572399851774 0.16660928462353888 -0.600983793986352
P 1.7880174006402723 3.3986998965964825 5.814055505569512 -0.14414787029622916 -1.1136239691302885 0.05239908242700653
P 6.949251922399425 3.8855919939904404 6.034158251387292 -0.04024264957013069 1.6106338939361358 -0.07854977268044536
P 2.334942594892595 8.380807615325267 10.000369462835707 -0.24662150078212366 0.35045061685464807 0.6547661299141304
