# total energy = -381169.74352055084 ev
CRYSTAL
PRIMVEC
9.26222480759546 0.00000000000000 0.00000000000000

0.00000000000000 9.26222480759546 0.00000000000000

0.00000000000000 0.00000000000000 13.55620224594271

PRIMCOORD
 96 1
Ni 6.244601129252158 0.805119804954838 3.9151664463532727 0.2840050836369044 -0.3623802784126985 -0.392625193340169
Ni 6.842431420052053 6.2754165507021735 1.573915943453251 0.49346848731149207 -1.2049081586582666 0.7907013824925802
Ni 0.20333917533665802 3.4179924558436983 8.7069450311589 -1.1406390642665516 -0.2165496210974077 1.5609126154516084
Ni 7.107229160910031 8.50416714663675 2.17685527737663 1.1917415393693218 -0.5422662255404854 -0.020133280414765326
Ni 0.7470317629879693 5.538078632045309 1.512817678471277 -0.725154449829706 -0.42123308688484873 -0.46590214765744925
Ni 6.127582182874191 6.335871091070147 9.361967706800861 -0.45538942105158353 -0.49583544488177184 -0.2911830894425824
Ni 2.577621550048279 8.200662568916849 2.4561530309427537 0.6562159749867794 0.15163543692252596 0.5927233537497728
Ni 5.25716462027569 2.2408007502196603 11.056167530825388 -1.6633679911050578 0.46236868058289404 -2.3056200477125777
Ni 5.819789195135848 7.346926272934363 3.8773043243805128 -0.18650550932683363 -1.0261470691635424 -1.0056828877719195
Ni 8.283142679530734 6.619906472550814 4.014343569365095 -0.046640582676674515 -0.20134360278093064 -1.8294088048196364
Ni 2.9595864328788144 1.534741364245905 1.1626435293476514 -0.40363877084185323 0.1596963595537895 0.01981780605687555
Ni 6.454344206720027 3.684123957052985 1.6782308224850075 -0.5440752537247662 0.8001476155071445 0.8533591665331175
Ni 2.6794411857561307 3.4089803112477064 10.295745369643763 0.20472048967296355 0.8814479543495336 -0.8996415945394247
Ni 4.870040678308498 5.922692511129136 6.572222687546615 -0.4736218848992101 2.3879251736703972 0.39618360011538867
Ni 1.290264944296052 5.477892696192528 10.7346414425809 0.7817675703380601 0.6434036537134596 -0.6088757951399192
Ni 0.930121862768864 7.150113261094454 13.241833962522847 -0.504153477829164 0.9520399056354829 -0.4502006777617924
Ni 1.3193853786329466 0.29390057696801564 12.085177535196621 1.150373003724864 -0.06798742378356679 1.0400495381772474
Ni 4.787208603157464 7.987455419425444 8.133951395789786 -0.981585994723716 -0.9653371369650212 -0.9110704052016568
Ni 3.705927233907009 6.197956565855019 9.44025480831032 0.2237741638703049 -0.5011465726820401 -0.49298949079254445
Ni 8.868552327059072 6.034293056079915 6.1159210420249055 0.5544383421266451 0.36052625592309523 0.31442689046187144
Ni 8.510048659297032 3.334215633777155 0.6416193103337817 0.9693560283164273 0.22372119914518246 -0.06589017493490588
Ni 0.8509076125707536 8.348061612185726 4.714887300552711 -2.3324204557348733 -1.9692837587721248 0.06235002299213132
Ni 3.597688876508487 3.023662503089577 3.2591953189059355 -0.5345729706612858 -1.6727360625835195 -2.1576193793291614
Ni 4.429029113258591 7.015718381250833 1.5930980107279675 1.4992971566326565 -0.6897693854621927 0.40645490013440966
P 4.7128699880213585 1.6133313405018055 13.32558392413787 -0.9684679692845191 -1.3085120460938624 0.803983701423783
Ni 2.6231361220366702 7.289963591263911 11.606386281973446 -1.0285142838441383 -0.5627741156858501 0.3734936147170406
P 4.007403384425961 4.954169464912192 11.13815489108726 0.862841909212572 -0.22365229358046 0.49310339066258946
Ni 5.503447174034606 0.3042955717060236 9.595011762850579 -0.5602598339044287 1.1688106416047612 0.8164743776916261
P 3.6979431962484837 1.6628657179934445 9.139075975203014 0.505733163611458 0.37922846031828883 0.8164273265037746
P 4.064699506184241 0.12454079902586535 3.6623568028751428 0.4788980456964849 -0.16442384693644585 0.20901088951820132
P 9.096977311669917 0.5307940135872019 10.632657865496535 -2.307964379575038 0.9723235955851836 -0.5694576983536128
Ni 6.704794761576781 5.4191516673869975 5.25214727317636 -0.8764800688212969 -0.20371390278532014 -0.39434114759001115
Ni 3.053579488747392 8.507733103131567 9.735088091301785 1.8463225498558395 3.007727385914833 0.87247917519202
Ni 3.4027375718256114 7.094576962021928 4.7352354819123565 -0.6201595955838545 0.0667358107646528 -0.10342853819999608
Ni 1.2789742924332421 3.906435873387002 4.53055050533233 -0.05540470202254974 0.3975475703424508 0.45736711360324456
Ni 4.068682262788841 3.968992938753219 6.631084125272749 -0.4702794507895384 -3.1223939589224936 2.459236262510558
Ni 6.159110795623169 3.219132492353517 4.2613921091035465 0.13916635792123774 1.0634185519204913 -2.2137887274318775
Ni 9.204585837791432 8.377728517777669 7.631030194877528 -0.20378332257067483 -0.6007056006243009 -1.3114032515987284
Ni 8.514966900592482 2.559680620878252 3.6614083510697677 -0.07846466916580681 -0.22488333777408367 -0.6659293456198015
Ni 1.2679151961869786 3.238027430663716 2.2168727190282054 0.23204463140921325 -0.331785436344977 -0.4341045435308782
Ni 1.530295496408211 1.3935480115004775 9.721003026258492 -0.005870342737847954 0.13038321241196899 -0.19477212021100004
Ni 5.067835485962565 0.3307197724438503 1.7545793403727379 -0.5300694263639774 0.11656404714068959 -0.8857247273480165
Ni 1.6363294443372092 7.297706811081228 8.888069686866547 -0.9079657981344039 -1.713140948763127 -2.1105257682754686
Ni 7.192802854560976 4.467087594394183 8.241696076613831 0.12143217386626828 1.2701211050204901 -0.2096282113872261
Ni 0.28273126024827605 7.764532196263744 2.256660457508167 -0.7924978122713706 0.5281207872780389 -0.19801299574580092
Ni 2.5686001432276253 0.18567055557168968 5.180407638280371 2.865395742891736 0.6314169136652287 0.9217296846877158
Ni -0.02361867288774861 0.38064316337128756 0.8295285456062435 0.9041245700114429 -0.42539056069664805 -0.5492125749513316
Ni 4.844300955973182 3.803977144177482 9.10713797212398 0.06559629784357089 0.08123786103556976 -0.2433559426569744
Ni 8.279039514005529 3.7369464242995853 5.973960777077477 2.5279225121333626 0.6318383174733634 0.18751312465574158
Ni 0.14284943851496834 7.75570529616099 10.628482454618968 0.5693571682200065 -1.1738826568110299 1.1998096610894369
Ni 6.743557171786675 -0.18626982150731214 7.555264270921029 0.5689041398429879 1.1846172696197148 -1.9132329385251434
Ni 6.023289533181622 7.988696557530133 13.48152088610005 -0.1464441225295736 0.14283866456650238 0.32221887570246444
Ni 7.910254776868822 4.957225999050607 12.590553225644275 1.152082787327119 1.1880275808528442 1.2971295152885338
Ni 7.554742807672565 2.5062838957026163 10.530823410229225 0.20534603907210439 0.2568460067236093 -0.3569850755390562
Ni 5.571144774088157 5.530279838880021 13.2539396901559 0.5765326029225233 0.8365521222781077 -1.0130416421298358
Ni 3.1884652664980915 5.114739391650235 2.111798337574176 -0.6258185936418448 0.04073295894298792 1.5193553608351122
P 8.595464895128726 4.689890408635278 3.0722011914300658 0.9863373933657723 -0.7957849676630746 -0.49532508090425664
Ni 3.922996731082411 0.3442111288863188 11.654727684928636 -0.08794329808020337 -0.26296574646810195 0.5075712452614612
P 8.406228383062219 0.12125919282816756 3.7879692412943853 0.6101479769841234 0.94871881168205 -1.266458054346606
Ni 5.087786317884216 8.502546257320924 5.716514463933618 -0.3608381307365592 1.0124513168440046 0.9359016053127237
P 1.3670024756195802 3.432552673012146 6.99411887333937 0.2749074922110104 -0.11073484205342218 -2.249208501692068
P 6.460614732816108 2.9227968765218977 6.239865353782546 -2.875156421822926 -0.19309936049426746 2.8221970960170752
P 8.13605855190036 7.24594023744608 0.08634060585294706 -0.8841352713737095 0.24066939696374684 -0.0004818247324249767
Ni 2.858063188360143 2.383392698889029 12.235584022813205 -0.37162365138783743 -0.6301095077077148 1.291827129239014
Ni 1.6692473907854675 4.30632316093824 13.105702415555125 -0.08953943892272967 0.9605199180820361 0.7012187649497149
Ni 8.392705535055901 1.6122569224410295 12.417779391691763 0.5126468600121559 -0.4101889132555452 1.504920416356705
Ni 7.857228540679661 1.3919549088586372 5.870608243188086 -0.4167832786436112 -1.1712531896079827 -0.7803742895349592
Ni 3.3450802233055192 8.383434048169375 13.68254543149371 -0.41874760145883366 0.5965761518369597 -0.6546195770339372
Ni 7.301291292025368 1.370512858766426 1.4022943302486737 -1.2859321039108176 1.2156926508682804 -0.08927307263522045
Ni 6.133760086723652 3.003933964559811 12.8672760807544 2.5166837059947498 1.1706813762649129 1.950680027628008
Ni 1.8035681728317934 5.646613380633011 6.2820797951239165 1.4673355161243955 0.7740329206979638 -0.9165211439035827
Ni 6.892336286530166 2.2875564603127407 8.396155713742445 0.6592956423533677 -1.6766760210678737 -0.9077454545934818
Ni 0.2625414629303488 3.5389200610289713 11.500905288856762 0.1599537269802342 -1.5312698528845112 -0.6459544451597714
Ni 3.6986934364460944 4.629704472782497 4.659985463869523 0.06545977226570662 2.3349977295437463 -1.2381376101353578
Ni 7.0085123704639045 6.699042920061765 7.201555656866436 -1.0030822169242788 1.2024319292036325 -0.09117851718804942
Ni 1.2488257511588805 0.7905920055727071 3.0187220324549395 -0.7079445137093227 0.9018308888812597 -0.12713385223673587
Ni 4.473413693838235 1.9300438505895217 5.050769837023084 -1.0066051424758728 -0.8725704493542454 1.1408378105409192
Ni 5.004657851544002 1.4622459318175094 7.384755050898341 -1.0233060001703214 0.04608753838668191 -0.5319319334940129
Ni 6.359712057349781 4.66692009147386 11.084838747266181 -1.3190211731553025 -0.58900708124045 -1.6201166366155904
Ni 0.9256120855810033 1.720430444266918 5.284383519889504 -0.03424298034327006 0.5701855776585728 0.7626192795443834
Ni 6.505027100069737 0.3724794385543222 11.885942451607635 -0.06720092332652942 -0.21970539311756998 -0.363619035915806
Ni 7.431934970880935 8.277872473698134 9.428514938551409 0.7645928583309864 0.7070762521717564 1.3624255082828665
Ni 7.015116336647812 7.095317939994876 11.438547361320774 1.218974664053662 -0.14813050909306102 1.0009859965168826
Ni 3.98774894369349 4.117707217924079 0.26568506198058484 -0.2684355113334216 -1.6198325297162681 -0.6899488484628504
Ni 0.1891096195886391 1.2260221540413758 7.483660790727571 0.30993620168036945 2.1150375401028927 0.964680734327945
Ni 2.1043403942764445 4.930356285306544 8.400235723705995 0.1264699934004919 -0.7632029199619953 0.5267028238845898
Ni 1.3714298190079504 6.162334049805497 3.6629125363548543 0.6410621500644766 -0.2924385591162383 0.8494516039485951
Ni 2.4955119284208704 0.41994741372389977 7.7085170401762 -0.02293578286056695 0.4614505396439988 -0.7239465455645339
P 2.7606060604680285 6.197113703410789 0.21369434250861996 0.950100265410609 -0.2243125528722782 0.51457852981723
Ni 4.759468240295187 7.458647226805745 11.098638535789888 1.9345931493684747 0.1486079629501118 0.49792498042094885
P 8.527526477233966 5.001638366304236 10.242835837485341 -1.4685997275487999 -0.4624650969514423 0.2757528709304412
Ni 7.5128775522009485 8.326434317600276 5.363050372610099 -0.09448392741219858 -0.47809277618637014 1.4607786888424843
P 2.8485416214077484 7.766903325777181 6.843278913608613 0.4158283709295097 -1.2954559842408528 -0.45361613120124455
P 5.581870430246593 5.125252016641449 3.181342615733119 -1.3054429202502356 0.3685007894881396 0.1508581924368692
P 1.0966381377398227 2.21110605795373 13.613544636430234 -0.13088046376336168 -0.5013897990410978 0.30530898732100326
Ni 8.719893621236183 6.4574563142064125 8.655811067468157 0.167907177499356 -2.252682576283598 0.795845902807997
