# total energy = -340874.8766410371 ev
CRYSTAL
PRIMVEC
9.20625381559957 0.00000000000000 0.00000000000000
0.00000000000000 9.20625381559957 0.00000000000000
0.00000000000000 0.00000000000000 13.47428304152703
PRIMCOORD
 96 1
Ni 3.0499397513456428 0.0822293364274326 12.4683597394563 0.9970997740885988 1.5616564355961686 1.6948966578409586
Ni 0.7513195934842359 1.7599134672522259 7.907719805500064 -1.1255610868875068 0.7882624340337844 -1.3036794005919097
Ni 8.34501777158082 4.662424273631076 0.3096109113092145 0.2817070316313471 -0.15713374103293584 -1.2254736415144443
Ni 5.713916527245559 1.2198746317487834 1.3988727408960213 -0.4120318800015549 0.9135605186133621 0.1690114663071283
Ni 0.9286440057290783 6.503923560184895 0.9515307521501756 -1.6261630999199865 0.43090480564665795 0.16894667450746387
Ni 5.651645427972712 3.562525538648075 13.562269806479959 0.5827608432204222 0.515048527475113 0.6564293765491663
Ni 2.3112759946695656 6.340595415270702 2.832711753546656 0.6255208598957679 1.5993385235279747 0.7487597479534718
Ni 4.469783417290988 2.0192996621091894 4.058386325056216 0.24295870721855575 -0.3754383971482373 0.20738286699647512
Ni 6.126356688011913 3.818569863452401 5.076880603933316 0.5084667604925371 -0.7218431260682859 -0.17146738404678857
Ni 6.766403056247607 5.498029880594423 3.184201912430115 0.3099886521848597 -0.38742436586551987 -0.38048624398478986
Ni 3.50884387397333 4.673674315516264 1.336778401692073 0.1297525208065056 0.017151314968305943 -1.0858781664755879
Ni 8.181109632690548 9.268856112936682 7.472904766012138 -0.36430346357734034 -1.1693279475608118 -0.7050815903392308
Ni 5.5850842145276065 6.16010681366748 5.4377353639670325 0.575396432435551 0.03496494611095914 0.3899913552617477
Ni 7.945549222120713 5.401170886589449 10.028665713480265 1.6174779134411628 -0.37905156842079235 0.23881280337098226
Ni 9.031933176835743 3.8982591945147567 6.552005060801735 -0.2688363463162661 0.02750900405354617 -0.6573791420569453
Ni 6.379777230543506 6.735608137993958 8.144152968910094 0.5061239712919735 0.6382923006288233 0.515382513775764
Ni -0.471416341879864 7.1442553222818335 11.890434408559962 0.25441065780923927 -0.5403201575577081 0.956804674013978
Ni 3.9416298551703437 4.420069647912901 3.6333676600118494 0.4668349438843638 -3.4509446903802563 -1.3874932498847719
Ni 6.997038121147576 1.6089124958930805 3.8025371728279675 -0.7469553477548813 0.8857504383796294 -0.260282543208984
Ni 3.6451608708587626 -0.16694252007305188 2.7296744427584176 1.2382684792862673 -1.797780122170762 -0.2203607673133818
Ni 8.568766558796565 9.354106021166514 0.2670144965804235 -0.10763537719249205 0.7909654347872443 -0.3201290830529713
Ni 7.833131659551116 6.891746198855506 6.148045700841141 0.43450126474866463 0.6276489619823642 0.5055778689805164
Ni 0.4911306133143521 1.9120744265635263 2.1014083966146124 0.10361340051729252 -0.1214943945627714 -0.14437155627126105
Ni 4.132991042261625 4.954732031320638 8.529005670173042 -0.5782079337424171 -0.37639767573771304 -0.8359787662731409
P 5.963765043384802 8.314001903241046 6.705395975592463 0.4832941178816515 -0.43444932846480666 -1.167204730570222
P 3.8918332295099596 2.1790649868846197 0.24839392807225333 -0.8123523851034526 0.26739421455310075 -0.5820288501504041
P 1.0792675206910938 8.305274374839115 12.929288317248107 1.2874192299793052 -0.19662048627364848 0.6936676920753344
P 3.683357616997592 -0.3997990539639352 8.841568106382741 -2.4872152642219874 -1.9317091429524602 1.265726318386904
P 1.547635672007794 4.234830619457995 0.28319816976370854 -0.24614378981475674 0.6160291183552488 -0.39749254873479933
P 6.861356355759752 5.2251749367374325 12.082160163293349 -0.28593855321419137 0.24662818565034297 0.1849512774658363
P 1.851267121611255 4.6176450561764435 7.260833190848089 0.2555069761972115 0.5875371815631429 0.6588798949721879
P 7.125143139832036 9.099378190625348 9.277043234252966 -1.3378457620609732 -0.24900671318484854 2.6050913453058815
Ni 4.691350322406251 8.336962299690851 4.747851862555165 -1.0637967611955164 0.05250269788440635 2.6400964006261565
Ni 3.8008110002801176 4.59001708915725 6.095644626040561 -0.30340791364354847 -0.7988522937344887 0.9230473750578748
Ni 5.715361909058959 6.085213940724751 0.5148643350655945 1.184889806554811 -1.7216060488113447 0.2693197137105878
Ni 2.229542875310555 0.7273860960301224 4.442888268057443 -0.7138325970589835 -0.29708068587394 -0.29359864086261045
Ni 1.2768705477154014 5.191654967421577 5.13469863834539 0.43459716689658057 -0.1593088943073837 -0.6154251662226627
Ni 1.2384620577440348 9.28275755585537 9.154535617750337 1.8543965851132256 -0.7359664528435453 -0.12184380748239017
Ni 9.031776670524739 2.875711402182625 4.259530997836033 0.8137037569250245 0.21244871155515668 1.3621113194765575
Ni 2.8385457564457104 2.5865613894739288 8.215485783590136 2.0955997430932554 0.47620558646598626 -0.5430059319199875
Ni 6.507200986462413 8.183678177441749 1.2236574813483123 -1.1260855919324089 0.4534502950473417 -0.7985705008280118
Ni 2.3317507026504667 7.985881819092083 10.909237424846092 -0.0827283295381672 -1.1064719314665397 -1.9027289536700263
Ni 1.5900028510222304 2.1168123001189483 13.219821109245801 0.3600025222091413 -0.46637291664628067 -0.0682501905266502
Ni 7.5665737931486845 3.0009532760010504 11.80345832778228 -0.10828586629229738 0.6345675434790684 -0.4054724816164823
Ni 4.864658046210415 6.8731219478459 2.7795962734676056 -0.11697156699175339 -0.2949566975524017 0.6050813610944934
Ni 2.133678156693144 6.263262885127011 12.58132875661585 0.05198462059740725 -0.8218598103732555 -0.7005399937151354
Ni 4.870062117066886 0.91985019230131 7.797379173740042 -0.6380503598213463 -0.3251815578752142 2.045242887907259
Ni 5.594723162034803 3.144423531924774 7.828234853267375 -1.2882715506772715 -0.4540051391095471 -0.9450557610081661
Ni 2.627299061603195 0.443697232950145 6.882124743230127 -0.19314178369642868 -0.8020656584654638 0.07634813704343626
Ni 2.9366015634171934 1.7744593479221105 2.097891607743792 -0.5569320550827763 1.4077694836353045 -0.8539757170711938
Ni 7.925672920623066 3.450015913542593 2.305854431931278 -1.9555874922319547 -0.4946591651854836 -0.8392296691102706
Ni 9.05093488424248 5.934378681930199 7.801582749128566 0.8275146946661877 -0.5876719073687944 0.704560170618122
Ni 0.8908845566357034 4.540855694994475 2.3854065898151644 0.6699256112633881 -2.219705864247261 -0.027709292989810338
Ni 0.8756012550533772 3.803710970160506 11.413188666907837 -0.5223198643255456 1.673349270687486 3.6167119387184745
Ni 1.1565356070596648 3.8272421543328004 9.258408856364413 -0.7753236144849293 2.0812313901867254 -2.222910487227488
Ni 5.071043839158186 1.6995112374578498 11.981641683486933 -0.5995079807717739 0.26055970812977064 -0.12451029857095977
P 7.396469845593328 2.120246232707472 0.2575504678914099 1.1850985801315075 -0.6019584991947956 0.8330430806835847
P 7.871889987158847 6.622325187587039 1.0302690772168357 0.7670423483127435 0.034658984834766114 1.370692633387665
P 5.1968565006991 8.475553241212651 12.803290610010063 0.024080695098287558 -0.2543633495110716 0.0057315031671385155
P 3.6357336671841027 6.097531908026211 4.532546130505463 -0.26122536673822755 3.8564390263736104 1.4052575158467282
P 4.060629889055742 2.2906263678704826 6.23643678279538 0.9771143321056075 -0.125350535084068 -0.33256319505126597
P 0.8312915565317599 8.110571317695197 7.234625748757608 0.2592759563213406 -0.47844373176788574 0.0462780571309332
P 5.835503518389337 -0.15000209284478927 3.24458020596516 0.45447487965711403 1.3727744556173582 -2.111538525810699
P -0.11018872857581233 2.227683212085671 10.290309281717137 -0.5323831620988186 -0.2023548176542644 -0.9235664807861385
Ni 0.5197362844646469 0.48035653473969 11.36414235091492 -0.4262351680851305 -0.2512281463161996 0.3363995380782206
Ni 4.644306366568839 6.8668156641377545 9.745800810096462 -1.2789451310700233 0.5690933730356587 -1.8602080495886801
Ni 1.6535628257974735 8.917250875883367 1.5572764607657075 -0.7266449183323034 -0.2809246449393678 -0.4216490913763448
Ni 8.207678880547059 9.095216964003331 2.583383390735167 0.7306537823813803 0.07620981169335908 -0.15302306129867194
Ni 8.014817074120847 2.9090012151587663 8.313120864772623 -0.8771264441560442 -0.4247382718246298 1.3353553915389518
Ni 1.9417645943865507 2.7665344408761925 5.8697885273783985 0.1878993043505667 -0.1934127779696282 -0.08265325332585766
Ni 5.838974275992215 4.55979295862609 10.25139628904912 -1.7849739715450292 -1.0636831184357876 0.18670117027740749
Ni 2.34134361888972 7.39897394656941 5.535895201604066 -1.546873620860039 1.5544642887231035 -0.3498332949856233
Ni 4.05090808526625 7.407554174913924 7.116590530248287 0.354239394473119 -0.2916338038267558 0.8243409249238964
Ni 6.385880976672704 1.9821340163722752 9.874223444529726 -0.3272237851162236 -0.41086614182822784 -0.2316132002987495
Ni 9.034575371615652 6.424749779323498 3.190023026574145 -0.5886155022289863 0.3825418409622379 0.07815125169044604
Ni 8.585899396724828 0.18214020349700488 4.868312008259705 1.4093975061570307 0.08813715925856434 0.7776831158560413
Ni 6.208365994978578 1.205816682519091 6.171302538656498 1.7053129680782761 0.804005555800654 -2.513110129710878
Ni 3.4089191975233746 3.9503757960794514 12.363651493641743 -0.20724557008766242 -0.5888756978689085 -0.43649772635340306
Ni 2.982872193953168 5.616891820675994 10.464505408992595 -1.2874907066471892 -2.569509334436213 0.44478850560728556
Ni 2.1885658405879873 2.12892772984146 10.532051691571676 1.5654598685026588 -1.4323453732024558 0.40428977416229084
Ni 5.068687038239521 8.923096846912086 10.571396457532996 -0.5888307035635859 1.7288401046659387 -0.18282934602682707
Ni 3.8045395329834744 7.327036281028601 0.773603330295284 -1.199828173032198 0.7217374537283571 -0.8237377441222588
Ni 7.133981143277029 7.682167513206325 4.189976831349295 -0.9229666424186106 -0.5003006797419771 -0.7433048954864876
Ni 7.09245173333915 0.40416926254241264 11.652815479687728 0.8797908783620848 -0.6439631257613555 0.33489004341222967
Ni 6.52173766087871 7.1309430795928135 10.887044829945571 1.2811907325710905 0.15243967799137617 0.7038903982446071
Ni 8.831144786069803 7.652173539014878 9.50098627341943 -0.41901679595982033 0.17120101775927934 -0.08677216059023767
Ni 2.0918909716547853 6.72981740448677 8.655730671444582 -0.39167825604586737 0.4069737487523572 -1.0902055902063483
Ni 4.488840362219254 6.184936079595759 11.987718731480726 1.3880223829153646 0.5378922648425059 1.2438305467550772
P 8.236595723068646 5.145697349507612 4.867450302923818 -0.7534394128173283 -0.2471922856839291 -0.13823664701811678
P 5.67634580635075 3.7965208861078605 2.412152597740575 -0.09569234589800295 -0.6638408385218889 0.19674467055633857
P 4.273515297037018 2.850311348531858 9.938684711531288 0.18714674245525834 0.5141054468355533 0.3749378033627349
P 0.8355936388336822 8.269627760944308 3.5684074140657898 1.2282571177968524 0.717428541940358 0.10617859014130746
P 6.834510920295585 4.712266930559402 8.178754673022603 1.312012345937637 0.8472353130235667 0.08559870910742677
P 0.8743473633146187 5.912173198274653 10.520518097075959 -0.20499842592469855 0.5361855665640443 -0.5113451104815967
P 2.0809263236308406 2.937761551369349 3.6941906155952213 -0.7702037767598606 0.2917451325936395 -0.29584501369462596
P 8.311571452293673 1.8194871342236336 6.235102796650401 0.5448854083308874 1.6348559997082939 -0.40146850266341183
