# total energy = -381172.4833541105 ev
CRYSTAL
PRIMVEC
9.16883560223370 0.00000000000000 0.00000000000000

0.00000000000000 9.16883560223370 0.00000000000000

0.00000000000000 0.00000000000000 13.41951770397275

PRIMCOORD
 96 1
Ni 8.922019586165325 0.7946070401266423 4.442437399958415 0.903712936395321 -1.8658973866639736 -0.6700389969128008
Ni 7.380518291921106 4.699165709949657 4.237185682935906 1.9713534968169597 1.6467653495513703 -2.818218056764669
Ni 4.058585019968617 7.437374240658993 5.291584340983693 -0.9383318120207711 0.29191508251260045 -1.2821502682708823
Ni 8.668647986838968 3.516211726686738 10.933766612597816 0.28080740263521314 0.14857865237407314 0.2514099233097025
Ni 6.718455020438233 5.329825719954178 6.333783863441131 -1.110238083377191 -0.1761982138635546 2.3403471667811178
Ni 2.5784324038416684 0.6496725072312398 10.25059209744957 0.38225901961449654 0.6266297766892305 -0.5981918330635116
Ni 0.9141567351449746 6.471061501837096 5.364384894600661 0.8111061714011772 -0.12956405894478332 -1.6183073513209936
Ni 3.4389459501967896 5.432388313500702 11.95917891419665 -0.5516988317082951 -0.09323180017265233 0.7083818583570575
Ni 5.945182943562387 0.37383726100795756 12.945030441401137 -3.970492134166988 -0.011773338485844241 0.18384801709932855
Ni 3.855476976678557 7.81767919820617 13.030740715357235 0.771709928991742 -1.3660458786442733 2.0448137707896397
Ni 4.171719280809897 1.5170388412152431 3.9789133410518303 0.07170960983016036 -0.15306008518419448 -0.36704168844410984
Ni 1.3186435793558038 5.484265584579393 10.07944019641659 -0.40283118733889334 -0.4293616295292541 -0.03502253882177194
Ni 2.0591737447749505 7.685097837336983 9.411885709371852 -0.46973077737492 -0.41215349318108374 -1.153650388924555
Ni 2.41266902741331 3.339124838455237 11.423404431801188 -2.3721218880895534 -0.068503701298353 1.478669453079976
Ni 7.539496730103047 7.0033582449394975 3.044848313454901 0.6229507851757464 -0.6408469487298769 -0.17504481698540175
Ni 3.0001254846919942 6.436128238703514 7.370777321119763 1.3785671510397355 0.5379701692682929 -0.8849986478152694
Ni 1.335615093807316 2.6866246623656256 9.506131252265234 -0.09059693365296655 -1.7015290755558115 0.030924971713630612
Ni 3.6028297153541806 3.840385073498012 4.194591857768699 0.1040376325389047 -1.1727189755202319 -2.7431932665183463
Ni 2.0120000862914114 4.416013733022805 5.9389279640060275 -0.23853383867798272 0.6584512920752015 -0.28241639899354587
Ni 6.132392226150706 7.020980746709247 9.44959437900164 0.7389448187455789 0.19135229589617367 -0.3694690669386798
Ni 8.32284535715837 7.466751189498888 6.633965118482943 -1.6603664852745725 0.5474706525595604 0.5336792552024228
Ni 0.8474158648888952 6.244307031874724 7.6337734470370195 -1.198892034371174 -1.1914512618224125 1.9296617735051287
Ni 6.509057156017034 1.2527471588463392 3.3493636770224997 1.4713603210130723 2.222792216482069 -0.485154568129158
Ni 5.442639071554074 5.261251999488018 10.935108930110353 -0.3346344757579978 -0.5078766923170221 -1.7239030723756374
P 0.8426948315063539 8.53596576877963 5.878728140972913 -0.8235665086517172 1.8899084048665902 1.7198502424625026
Ni 8.264183147833261 1.7240986525920676 9.504883373758021 -0.8493330760928599 -1.5731721495452518 0.8467190355087804
P 5.51004834991578 3.2401380907412842 2.642275922089818 -1.0333309885064914 -0.5212207177240958 1.9524204073578826
Ni 1.507374888631832 2.109859067242784 6.957590168933223 -0.5482221860136043 0.5918563777637871 -0.11501650014791158
P 6.640199009717727 2.5600947329054042 10.947199873442177 -1.3907055861744824 0.0668229711618204 -0.0044750050522181
P 0.8538221302304789 1.6279359062022993 11.480034827186557 0.5066878142152434 1.1778167017581134 -0.022115086731484494
P 7.962931889692317 1.8133297593679278 7.363960291949207 0.36894867565883555 -0.6335961807047347 -1.0545778137004096
Ni 8.036520963159544 3.9072992347444386 13.324158120474207 -0.5862948245156097 -2.9458527598972233 -0.01578091698334056
Ni 8.56840510866588 7.552883229886519 9.250408763524847 -0.7981794360371802 -1.739876307875442 -0.42459480426823004
Ni 7.716556111828143 5.708966235396903 11.040975055076043 0.6238236746990031 0.4664531350649128 -2.057554615395076
Ni 3.9303863624531954 3.1634682885567647 9.876671400038852 1.521190100051006 0.7805763782434363 -0.9956602134285949
Ni 0.8375777044315895 8.878852708781361 12.889459963395883 -0.40367039541073707 1.780139012050231 -0.646847389287686
Ni 4.488025766789514 8.752533662536907 8.747740195354167 0.013819165271279427 0.5798706661568207 -1.2446011063725146
Ni 4.392440657034237 5.3120015038041295 5.732683262102319 -0.6887609988023364 0.4417533183253876 0.9863543626466369
Ni 2.0614659536419833 3.5449651947147998 2.284618905032473 -0.7627177527954606 0.0019188142892676632 0.6214284349939492
Ni 6.707122339799621 3.604782677308893 9.008186468127736 -0.036640276930853026 0.44279718620886965 0.8963665233325789
Ni 4.464599392168436 2.667397614388953 12.202716020599892 1.8611783839217497 1.5719837856641055 0.7610861307293086
Ni 7.673297546089496 6.047727199437975 13.225001749304093 -0.12876855962668146 2.310977712480065 1.9761015530249066
Ni 2.1493767481104324 8.499996427238148 4.336088077363552 1.9245151963071823 1.8739927620775985 -0.4051114987326378
Ni 5.686319211790617 4.826805068501522 13.136580250700069 -0.7168351313307332 -0.10307552573595152 -0.6031563761576386
Ni 6.876149821654634 9.010407160078117 10.816936394179333 0.0885989293863313 -0.46909700044566305 -2.286056009537721
Ni 4.985380077922864 0.37529143831320333 1.7085327206178198 -0.7475685558588481 -1.3188877329012316 -0.09718975637913584
Ni 7.74425516377737 2.6473453712201485 5.048355307452182 0.7611966881652439 -0.7901755918960972 1.8340095368164413
Ni 8.77003696944557 4.670558943289086 6.177714696753229 1.8216520436923531 -0.6378631835112047 -0.8488656495381381
Ni 2.4162723797522863 0.08391868350562467 0.9344638719397933 1.8527276820512348 -0.4736252273333198 3.063412595292279
Ni 6.6408408282004965 4.76236649283149 1.7203284274475719 1.4523896934478406 0.2610091369623634 1.3556005149412331
Ni 8.66813453205275 2.823212804334388 2.8424150964552966 -0.4396663538893718 1.258370135132149 0.10065123256517505
Ni 0.4046665533860045 8.935076007871945 10.643220886749463 -0.7192604529427742 0.05599631285996162 0.10200414704864368
Ni 0.31715001884268484 0.26616945987277746 1.7993023579852327 0.8168752126744705 1.327887879517313 1.5050176040562016
Ni 4.1589929371801295 4.663453095801282 1.5988147678719655 -0.2337644423137974 0.7370589145767757 0.06203737684771898
Ni 0.35315145130830505 4.9747900729571715 1.4017893300314648 -0.819649175875182 1.1263131345621828 0.717578437254661
Ni 4.481066620669202 0.3952070658335327 6.00260369256511 0.3617123058113964 0.391505477913429 0.22674610201443532
P 6.835100945263808 7.050504396916632 5.098973697421098 -0.8059099719122184 0.8591929996060752 -0.8503178086036324
Ni 3.7911209205277387 2.2690758951468957 1.2757939436790358 -0.911946637159023 -0.07484892679009045 -0.31995836180306186
P 2.5205128701894783 4.05783317546023 0.022677280763330802 0.9206984152097241 0.9060151021659364 1.0219471721495819
Ni 2.683663128509419 5.732383441182511 3.608119216535746 -0.8561878942311643 0.7511567874307387 0.2891804571902568
P 4.096140570046085 6.275618604998395 9.129592852328365 0.16792954609685914 -0.6564514880363533 0.023212433560721314
P 0.5733098610349027 5.078113679847552 3.6570872161203987 -0.48163704189420287 -0.7477395342190736 -0.2515006832512959
P 7.879284603716549 5.571222820159156 8.405140239902588 -0.4738975071581 0.6148063016917411 0.21268422460473047
Ni 5.599224443678832 7.054162762268417 1.4988799625706077 0.16412302786657543 0.18428793285022457 -1.480122897697051
Ni 4.858951005652793 4.186041001811119 7.8256854253369434 -0.2916019221475559 1.4897946164588602 0.561654143148794
Ni 0.538346340744275 5.153802416636981 12.322579289791234 1.616108801007778 0.3277367201969001 0.44307512246060465
Ni 6.887647541331672 9.089534210168097 8.116459455188453 0.38055900620425426 0.1426463460500382 0.5630854762786819
Ni 2.4081396226920533 4.1978687995650095 8.283666923203041 0.4199287662511284 1.1048212832369941 -0.9618440362100982
Ni 3.9652462749030333 7.675919833033382 10.749396001470432 0.9776864025589936 0.1348643881117742 0.7291766836152217
Ni 1.2318147074725938 2.3881332237005894 0.22172169617391413 -1.183090291452227 -1.0634134097141685 -0.3974748081229864
Ni 7.710788914318688 8.358438776445658 12.76116961752578 1.7349277056209151 -2.329758592631994 -0.2514821713085346
Ni 3.5470281826951298 7.543824420444006 2.554365127621369 0.5006976580700797 0.8247926677493345 -0.5196541445679245
Ni 1.1308933354748654 2.61911452681377 4.423167258455042 1.6796477021016876 0.5180937420593401 0.6757355330769459
Ni 3.857109029391885 2.9806508781576815 6.182881335539521 -1.769632456091952 -2.7199574359188574 1.9231602249411848
Ni 2.3598381974459337 6.138856255155739 0.7313704987864829 -0.3264146589513669 0.7258815578037175 0.23569199835381344
Ni 7.346419392815124 8.864888572363395 1.5352729043107174 -1.5711715741754553 0.1516763174627904 0.6581376174895246
Ni 5.637733552644986 8.432999746472506 3.732437622881054 -0.44881228205469803 -1.3322147890274412 0.5025493665668378
Ni 5.561503854562937 7.236209990488177 6.996493537824507 -0.00583640417611898 0.799510753254094 0.7548110963538742
Ni 3.3382262925793604 0.7372807301292408 12.527321219561715 0.128411690507895 0.9753510695575978 -1.618006018030491
Ni 5.822632288695335 1.9876018151107122 7.217929166331816 -0.2557360614888821 0.3260721880102836 0.28753700804956284
Ni 7.823923175159968 1.4798317068855638 12.428459168010129 2.001837781448746 1.267054036059392 -0.8138356545171984
Ni 6.918610698707554 0.43965116199820886 5.638250674965389 -0.1933155902701316 -0.8593580644290297 0.4276230495715926
Ni 0.44536976467968276 0.20890733172365286 8.1933804834648 -0.40970297475806217 -0.017569376342331033 -0.8120878185881563
Ni 6.081147604719316 2.3987965793500265 0.7584038932807231 1.0714213676203095 0.28154865167661186 -0.1989841014098186
Ni 1.8327676905603678 7.2019918965211085 11.888296480959617 -0.21207487315550572 -0.5557400916572042 -1.017714365015157
Ni 8.884088113833664 3.641962305132168 8.185825363039058 1.2359958812020069 0.5754170012608413 -0.19056425277723954
Ni 5.6951579691818965 3.6016377667433237 5.163185802855067 0.25650739243726794 -1.8580876608115677 -0.9679223811936944
Ni 4.937610445133897 1.1513306697333314 10.475664086103539 0.6262682795847537 -0.6506834752043246 0.10349204444807981
P 3.295444506285057 1.9998513792961365 8.229679903083133 0.19105533348104514 -1.0771179037844547 -0.617961302380955
Ni 0.9947452976085738 7.426903430554385 2.8451657470957357 -1.0917657356046166 -1.9123181400203582 -1.6621024941290727
P 8.252272830560157 1.8752193987778187 1.0913398961488907 -0.7330353952396795 -0.08070230024707392 -0.69007971761376
Ni 5.299293497845299 5.828885434484601 3.467495870077459 -0.302677206125111 0.24392981288257345 1.0013336096642884
P 0.02088752407995144 7.453098793486839 0.7532922675072397 -0.17526258942316267 -1.6736043241210852 1.2138232017597095
P 2.3643309268253185 1.2010991086543519 2.832229437133748 -0.7303701897026905 0.4154954130701231 0.2035634932503849
P 5.779327878779347 7.236824302464542 12.212351549793352 0.8129331973075871 -0.5655879309855614 -0.38020265130610004
Ni 2.5876745899935454 9.020868801347257 7.208212951386237 -0.07509009626661907 -0.32527206070649145 -0.030375269857747685
