# total energy = -340867.86891022127 ev
CRYSTAL
PRIMVEC
9.25320732411011 0.00000000000000 0.00000000000000
0.00000000000000 9.25320732411011 0.00000000000000
0.00000000000000 0.00000000000000 13.54300424736295
PRIMCOORD
 96 1
Ni 5.765395985954203 5.683060945777305 7.479503630038 -0.5442809419776691 -2.5388191044412083 -2.6192645514824697
Ni 1.792235250818524 7.5881113022191995 0.02669272762399424 1.460818026720852 1.6043691439733467 1.7044940717214063
Ni 2.7812828389718405 4.50156514840853 13.190534246071845 -0.17609948350216123 -0.3302584581774893 0.10274385342814563
Ni 9.095828929374058 6.245470896547356 2.425484056789551 -1.330875244280411 -0.33683816827753604 -0.9549845900861037
Ni 8.251186897188452 6.442832558935881 10.655622682918171 -2.6045786673355207 1.311148455275445 0.9529297644396039
Ni 4.106092313825422 7.802896754296765 3.162331773731645 -0.8148090741740613 1.6079900285553856 0.13645281564481662
Ni 7.63111095738913 4.006518548109126 9.803727061387242 -0.22779562632487224 0.7841232150544302 0.7731656876016619
Ni 1.916154205420573 2.234149933754953 8.549197548002708 0.9776480931218906 0.08421725537886786 0.40847655855012877
Ni 1.4675494534744904 0.10001977031694059 7.047318694769137 1.7148072807219563 1.6732479692229314 -0.10376432427286
Ni 8.999382747786756 2.0548782919941933 7.514132833719504 -1.2183524570886306 0.7288352411154029 -0.7322350108255712
Ni 6.874254104587458 7.6756929110385235 2.424048884309056 -0.5834982356070789 -0.31351697705309234 -0.7296381966326725
Ni 1.5636162535550215 0.5162364454337154 12.610934611762051 -0.7708059291202337 -0.1797663908307872 -0.5308045047577891
Ni 9.10470275534952 2.3570325291189924 5.049590062826704 -0.5310865547745821 -0.5054238599011552 0.3109723562543677
Ni 6.34490586415142 7.977791628918429 7.487628871528147 0.49089609859862554 -1.8283541383028767 0.2977748837274871
Ni 0.46361160384076633 9.151949632753794 10.405753694671722 -2.6367531951855363 -1.1162585785396582 0.8738547153833078
Ni 5.725588687365642 6.467510863290992 9.432932531159247 0.4514108960198097 0.5994393323173676 3.0480520536758084
Ni 6.783110010887475 1.9156730386314968 4.730639403480158 0.8479192264644686 0.27270868478747873 -0.27065180225845
Ni 8.875038145640524 8.761871418132829 7.934073924847877 -1.8039438277793125 -1.8520537959126617 1.3442156701430592
Ni 0.5607360455365166 5.795098781972167 13.362964066220245 -0.22576162661397894 0.616827445886828 -0.02615454690818076
Ni 4.183430621961916 1.2398280173367644 8.167487934228673 -0.9086664237458544 2.1060222239781603 1.9436231207812267
Ni 6.6167095807345 0.7879448539797269 0.3686274290356563 1.213436250733936 -0.2128073804461561 1.7807763885239138
Ni 3.406235219114298 6.042057636465454 8.589068693722897 -0.3477260188346334 -0.5260963006488424 -1.1200129033757678
Ni 6.220912883889513 0.8633760760541328 2.731880889544953 -1.0755104500880186 -0.04180947983661832 0.09923224073046136
Ni 1.4349966695519987 2.702760120277621 11.649638318168696 1.7879641645216047 -0.028903056187595384 -0.3264241720330636
P 8.679499365126 0.48796049400951125 6.0944196869659075 0.34704853315163453 0.04038765978842722 -1.610548533311181
P 8.43985979775116 6.690587189272638 5.8221375795559975 0.15385481317134792 0.6251166824788137 0.7043434266216257
P 6.8882819671305215 3.5022464999499356 7.87678731732538 0.025816446842471665 -0.43853918226346406 -0.8349181862191104
P 7.514335478963365 0.27476566829814103 9.305290085866348 -0.409674692623288 -0.27960824012078944 1.37466910153691
P 2.5614173759865295 7.057375080660827 5.971381637716167 2.0098853343435703 1.2270664399228608 1.603138356890039
P 7.029171304254984 5.378704445271734 1.5258631670275156 1.1468392795399927 0.7586070730611967 0.9362577031005619
P 3.982793324124683 7.9326174699901735 9.456971438877337 1.6234711549101202 -0.027706207666016797 -0.39088969870630097
P 2.0062526866750647 7.24006115598253 2.171065266424089 -0.1940031032554594 1.3220476186864523 0.7469579188580426
Ni 7.302612838562418 7.295848743892907 13.052382007720627 -0.5099705987315734 -0.46123585253003146 0.4166133287246503
Ni 9.00280643455518 7.984407672268225 3.667011888340801 -0.13118488237765794 2.3918342789168165 0.3714945820091409
Ni 3.562725464053803 8.857373772556944 11.334451863625922 -1.1847705073681272 -0.2805047837931298 0.7989710787005402
Ni 3.501746826745895 0.6644459949973712 0.3267872007632485 0.5177990936370567 -0.7953064853647593 0.1885675340621849
Ni 0.4602748972226735 4.831201411755558 11.355145736839185 -0.34953993211492057 -2.105258349228942 0.17100227148491196
Ni 5.141526231087168 8.230857600349989 12.90236623205644 -0.4048423042316512 -2.3254645932423306 1.2213051119590514
Ni 3.0476641759703313 2.1237314088694803 2.3446193512815783 0.35931783743729084 0.1927949418799712 0.05049466631544207
Ni 2.945989932155568 3.540841628358325 4.358450414884591 -0.36935490995831877 -0.11748193096926864 -1.4758990894236903
Ni 1.4381890261333687 0.3154261126165643 1.8962376016358171 0.7047550602377475 -0.9220549292376186 0.8868925224038726
Ni 2.9751652953470447 2.049400393164712 6.266984603943546 0.33726857094673524 0.473863568596371 1.7159305956931223
Ni 7.5039996462057115 0.652355754101087 11.738900309466795 1.8884745006335413 0.3898309184244835 -0.5093237091761939
Ni 7.947931528373267 6.204599479098339 8.152509767277182 1.1557468664422677 -0.2882353196681681 -0.45154433627388035
Ni 5.21151749248277 5.845861878219693 3.1969887370355963 -1.8301382267864932 -2.029164237177841 -2.0279547902507717
Ni 4.6467109609748185 2.8178237553191745 0.5396535376089996 0.1431094017293858 -0.21126728965254585 -0.2129282222947365
Ni 3.660976021100141 8.561715287084672 7.337559427260563 0.6820334502705157 -2.206367238156826 -1.2987521384936214
Ni 6.43213585108642 3.0255952761252085 12.196071680899928 -0.32900838782047204 -0.6475793823577041 -0.5589156611717084
Ni 4.345408018938385 1.26111964775338 4.2596946327097225 0.10559546394432782 -1.459440686757351 1.190362142523292
Ni 4.940639096647914 6.893473016528054 5.609241632446303 -1.036173343051293 0.732524517041532 -0.3805361233861188
Ni 5.350528428488339 2.718444306960004 6.224365255601134 -0.7940474161466776 1.717296108582081 0.9099116090068652
Ni 1.0862802923766088 6.055891181651391 7.271442483837771 -0.16558958510977287 1.087553754405798 -0.3366867303013363
Ni 1.8680837925503786 7.998407775188842 9.032087284311956 0.1819736828947511 -0.733987988960936 -0.5369093321039463
Ni 7.670677672583154 4.707199178286168 5.918577283898062 -0.42184783765071227 -2.3143612842403174 1.3253627991026142
Ni 0.783632859293007 2.747804734301126 3.0068445764832137 0.0633218999870974 -2.059719998477511 -1.8659992023491605
Ni 1.012532228743221 3.7842472511784337 6.366268744265649 0.7738038354062932 0.7413063769992201 -0.29847293823577625
P 2.129172294869033 1.477709475289981 4.528835276179415 -1.2764311063989178 -0.04540028251167019 -2.5333066592634115
P 6.228232171007959 5.114765955048553 11.214285084657918 0.03984412858013138 0.4270232112040646 0.1070856753366091
P 0.44222096410409095 4.4717420606932965 4.024912999263054 -0.704214100132613 0.3500161004203908 1.2828848324440616
P 5.35953179936855 0.9806271693444856 12.341929990442349 -1.6712345383373284 1.920046361902551 -2.9119134268373013
P 0.7183274221664073 6.055567319389513 9.581770373510947 1.2250735778625481 1.71490266864924 -1.456427868072956
P 2.234658860166476 2.4856983791594263 0.3224085829826564 -0.9663347249916001 -0.8975533445518284 -0.45434041096177885
P 9.07718371629736 8.158414238971597 12.456232086508114 0.9779098314237094 0.6028902669804455 -0.7629450383149183
P 5.368590689493655 9.204766941062374 5.846541988969636 -1.2546687750211616 -0.09073500189272761 -0.7257692005955694
Ni 5.448603174592513 5.057738437335558 0.18342633192028213 -0.062368277824576455 -0.44588816642936757 -2.0448865330091044
Ni 3.7596337192756972 2.549823107011293 11.630407377058374 1.059595321519659 -0.8859651254935967 0.04185833079668275
Ni 6.947955902183435 6.152911062102592 4.278898739518347 2.514612168177701 1.5131435755974456 1.3838481969330167
Ni 5.206779850251866 3.1574349763320475 3.2525690530983704 0.6014607336227706 1.0634429774005234 -0.0407013343741041
Ni 7.656085364383674 4.929091093710088 12.968171342387082 1.023543312992108 -0.5343063472634605 -0.9153854876372429
Ni 1.6962702360202975 8.668497301429626 4.92254352409566 0.5008354691995246 0.8998477970129598 -1.953080666649701
Ni 0.5891017530732984 4.251154847524371 8.705592484905146 -0.20953770855594878 -1.9535491216456868 -0.09890545351866192
Ni 1.8210127260882651 5.089736028809115 2.367913375797349 2.337761408331813 -0.7419226704269802 0.23084444045352503
Ni 3.147774627720598 5.022215373811269 6.02004147990298 0.76114912275676 0.6819673729192707 0.8473386713706504
Ni 9.220673204724331 4.280311704300884 1.2708364409304715 -0.761858490118959 -2.1934273901667067 -0.46370385445454976
Ni 7.632175076249588 3.9945726572495643 3.198492383251459 0.5870563852719825 0.19881286593927697 1.5307522898181443
Ni 4.993243581184402 3.9656471306601073 9.1453067551023 1.592808949939573 0.07299387585922268 1.960730212775159
Ni 5.804250204172095 8.745409962021938 10.594353494895321 0.1259434314730605 -0.2142435986720504 -1.3759813925904303
Ni 7.211718581464455 8.86731171739286 4.746727955329515 -0.4883615051022299 -1.1290073935648945 0.47428857194893154
Ni 1.4741747500317686 7.054636131246086 11.364558099490113 0.5507881469685676 0.05543684081206581 -0.7189503779015232
Ni 2.6573176183323803 4.679310010934722 10.446924916043164 0.3992686667986156 -0.013441727327202656 0.18462217626119173
Ni 3.928365957714195 6.322235505819952 1.179681243381509 -2.032685105846906 2.0715864108977935 0.16424721214926552
Ni 9.039495402222231 2.008325405151085 9.756881773187695 -0.4173558633176296 0.3709343386302966 1.246317574842989
Ni 6.239622869418587 1.9528154134651758 9.78438693242863 -0.1367081261887323 0.10659022375742934 0.27637893455021434
Ni 7.065342092303029 3.1369206153439397 1.1418606084393828 -0.2155129523027772 -1.0166938941704424 -0.5500438126033753
Ni 1.1481009715654 6.410696169350088 4.58339959006064 0.12938922392981586 -1.526908747702338 -0.08677113214897314
Ni 6.2235222883995025 0.8848055792622336 7.53175279140717 2.3210528373278803 2.7180242234518865 0.23903880333885932
Ni 8.72348911349653 8.61473616595786 1.0524487151800728 -0.1537095458427353 -0.7727921063123272 0.4102902147200998
Ni -0.06033739002938927 1.6373365575659626 0.5907488240051356 0.06230220047333142 2.1036277556040544 -1.342887695360255
P 8.693610506536404 2.747999051658253 11.866651017287236 -2.7565907708711754 0.4414378439674978 0.5743548785449141
P 2.2587449592427253 0.8707120189460462 10.31278116717325 0.47311897712086254 2.4464519662616966 -0.6208846466753372
P 5.094288606890374 8.771809362968746 1.4405967107202453 -0.44711638240951385 -0.5940626413864866 0.8068304268439589
P 3.9485101904030135 4.3350166669358385 1.9304337552071533 -0.3111759876247415 -0.5029028932515145 0.4349316674178639
P 3.5718676330462484 3.8609008219612426 7.777841844397126 -2.473858383299107 -1.358995656665711 -0.6006109840279655
P 3.508214818775975 6.3928559853243465 12.496305877472164 -0.10666581419037115 1.2064708751596964 -0.657862509451267
P 8.245200071947448 1.2294181589192537 2.4877007732585814 1.258210212515517 0.2528713383465774 0.02900924274815649
P 5.238398060218652 4.679939229043513 5.079222534467804 0.6703362164382456 0.12430769564185043 -0.09511873278272005
