# total energy = -381173.42013878975 ev
CRYSTAL
PRIMVEC
9.22987681775693 0.00000000000000 0.00000000000000
0.00000000000000 9.22987681775693 0.00000000000000
0.00000000000000 0.00000000000000 13.50885769303531
PRIMCOORD
 96 1
Ni 4.550698353091862 9.187612983394967 9.467304087674684 0.7788627379864393 0.4013103798189927 -1.723745720862167
Ni 6.929228320018319 8.935138939198806 10.19748516250048 -0.007127612183716757 1.4575519543750703 0.3212269441028403
Ni 5.718056224472777 1.149295002897626 12.663203312642924 0.877437804748876 0.7271856213271218 0.16772514339553693
Ni 8.592978184194207 4.425052043095433 4.636172548225406 1.3264917705007349 0.011935832205637507 -0.12953937635443497
Ni 5.531400430227732 7.113281289065464 9.204989149060086 -0.8457070493044984 -1.6190030918364375 2.53196454341322
Ni 0.9015789600827309 7.592321113874446 13.325961061978898 1.2554228795783668 -0.761019024936799 1.4777212302340936
Ni 5.970834854596351 1.380955675387186 3.5677838745377777 1.4280467458271018 0.40918104081632106 0.23118536873271153
Ni 7.7336582140709735 2.5849376970704467 7.213392222492722 -1.2300113814837978 0.888267034153896 -1.7712581646208334
Ni 2.6827559291531733 7.372585441936961 6.157567256817078 1.3371407655741485 0.8711249751569707 0.47364528193797784
Ni 1.1635367024733618 5.902746055004515 1.8988994300158226 -0.029879304057935638 -0.17467406390954435 -0.7521440910446724
Ni 2.9864280987845935 4.540370121189563 12.026340905063064 -1.0182735799527367 0.028808696701576195 2.830874826296731
Ni 5.452060411074768 3.967508600860584 6.891097853856763 0.5768707029882324 -0.43741586729229825 -0.8592241099543266
Ni 6.383474947229155 5.104398649623545 3.908017431310743 0.5189370638962417 -0.29661891574617305 2.5317573124984203
Ni 1.4050733429123952 0.4326624639157879 3.5531000638734627 -1.154067936077948 0.5378567836188801 0.17663710117318612
Ni 8.680855839191342 0.7458663270999379 8.357875690724873 1.018621964431091 -0.9427044871671701 1.234888507070441
Ni 8.789934520711785 5.727479928469424 9.200748020767767 1.1901837079638984 -0.01708446628611251 1.0092667484684361
Ni 5.218332246229431 7.918403423862241 0.6838627851427637 -1.869711618203741 -1.3740646351836918 -0.33981961950336315
Ni 3.2006443045222803 0.9300023650363785 4.989982330472091 2.0230331845794387 -0.9207943173576401 0.31737851689102764
Ni 0.8044963491640911 3.3454795279457703 6.530141378167762 0.06932953963375803 0.5237280575269819 0.7426135258464178
Ni 7.215520632033983 7.096445994168418 5.442354272854519 -0.35543187211932337 -0.6906978108137332 1.065025748506611
Ni 8.45244408326086 1.7671521715945315 2.3459346577548996 -0.20063166431557058 -0.17000699745117817 0.34941086273622407
Ni 9.272057124301258 3.201751889712875 0.38624541455326356 0.38332294210263657 0.4358734625058429 -0.5504467044687488
Ni 4.775602755918792 3.3913058652066437 11.42190120796256 1.466306817749565 -0.529596600492617 -0.18082439978165632
Ni 8.233169905152788 6.358111246364526 13.330324024642184 -1.637246354317342 -1.0351001645917723 0.474509429710486
P 3.277723003911113 0.9430903300385776 0.5417217626953963 0.4498011283305286 0.6600006388401923 -0.6914544864740995
Ni 3.0075552862951955 7.525976760957798 8.98190395490871 -0.6370702552962642 -1.0733142137676484 -0.5720090040205568
P 7.938838370628721 2.0093625930245103 12.45904398043584 -1.5192771992990093 0.21834245133177235 1.5757543084501315
Ni 8.695531342966726 6.394744626543461 3.5034544036803537 -0.9269973608445584 0.29748254929804896 0.46560081436694645
P 4.361347434883036 6.020039326688539 11.190170388410928 -0.376907525494596 0.24576969430478962 0.12264933410282104
P 0.37001929151104496 7.774177372293579 9.444663200403602 0.360469948763863 0.0030141042359754545 -0.4753249836332458
P 0.8043763607684433 3.9568296336479296 3.018418851039616 0.37611562572092 -0.3873747435745071 -0.4906161054643615
Ni 0.4640062018219713 7.718124331772877 7.112143245282127 -0.18770364339999285 0.3390781133516483 0.24435558756608242
Ni 0.5716237938784883 4.143568496782269 11.258079205409292 -2.0510499815073384 -0.6224643324576312 0.9356411525624853
Ni 4.382391553504344 3.031220689867578 13.881971596620629 -1.050825802857145 -1.8125338834411688 -3.669642982389551
Ni 7.860772074444942 -0.556741540867525 3.9399121928492473 -1.2247048816692199 2.1718869449917695 -2.3457868497394507
Ni 8.020088974235463 4.4091858852401575 2.020425523103238 1.1562623726261057 -0.0861368409990839 0.5683996894027437
Ni 7.0940554561320495 4.451957133350306 11.094067990385966 -0.14864601527689886 0.7889658878587122 -1.834983984914569
Ni 7.58430035111922 0.42418666824475865 6.259788140032421 -0.005324497536706959 -1.2234424700170285 -0.5453649190704671
Ni 5.2765819973781465 8.106037585025645 7.191278361174831 -0.7083075534756962 1.1952115001957933 -0.76569174782212
Ni 5.51584808817646 8.808911146977314 4.98786222781976 -1.0136131983625898 0.032668436767298574 0.08826160065157057
Ni 3.2981948701839463 6.6565408460937965 13.389398926757892 -0.9504069980177504 -0.19738873189824072 -0.873944703993953
Ni 1.9571491811645383 6.955856513975542 11.205245545842587 0.42179667269780263 -1.0710249035128394 -0.7575871164371146
Ni 2.965097853989049 4.839159686105776 3.6859456776087605 -1.0786608227915424 0.005206998122236194 -1.6434828221453566
Ni 0.017282020923919363 3.0830372170342537 8.802195488771673 0.9748234791889018 0.9090762575897634 1.211798972240829
Ni 5.715001135322052 7.553666390722676 3.1635180489335313 1.296032168459297 -0.9653402222888149 -0.9454640521901782
Ni 3.055670632949966 0.18565158367223822 7.381401820054098 0.14898874332829826 0.9063251772071875 0.45395860214232786
Ni 4.649614940488596 4.810353241273714 9.453160224790786 0.4694777808238495 -1.1514022163203268 0.8612622234302781
Ni 7.509759867792168 7.649094084769035 8.246103731215964 1.8609148458477176 0.903604692952231 -0.1774662819427008
Ni 1.5293074817908157 5.661043276786892 7.730835717810273 0.8362266206178888 -0.6623686248517366 0.10047511199862696
Ni 7.229291607903715 8.46699036876401 12.783120638241 0.4191988300636394 -0.0716234778742573 -0.31968865308144295
Ni 3.690584613582036 6.416896330355364 2.13362903647099 0.7430953505788428 -0.41208227362351607 0.4265059052480138
Ni 0.023637713942617756 0.7028292585440464 13.903451365416904 -1.2328617064483993 -1.0117653465205736 -1.518866851234468
Ni 4.624251239623967 3.1902606933604507 4.614544178416059 0.2523776865396105 0.5132821796033095 -0.569313973686897
Ni 2.0093441332713335 9.41152055955036 10.200862374344133 -0.6512051520357495 -0.28530451917461835 -0.8485689442333256
Ni 1.821959178775814 2.007645835979088 12.701729740510116 0.7659917955610421 0.21169023612257737 -0.40352744207496954
Ni 2.2315995615174233 4.872802586270103 10.014224116864607 0.46010688113191084 1.42226433481737 -3.564762285124061
P 0.8410678891698835 5.285378069766789 13.056648030935055 1.480432715627986 -0.011838644506140902 0.5411282552813003
Ni 9.308792033122662 8.410835799600836 11.460644537929577 -1.2898026426098175 0.9882438663598658 -0.8794512356344789
P 3.83994247653379 8.467341104074364 3.4785438897562106 0.5412262143117452 1.2674875240523849 0.8357363112450317
Ni -0.10031122174922454 1.572669442002615 10.883046244935487 2.791489639630889 -0.9148882362858503 -0.5279973743262971
P 3.086526110384628 4.562180319567698 5.823141138393467 -0.1068506765076676 -0.19389923068774348 1.7975029572499752
P 0.2813580199915635 8.19727491510092 4.9793245919755895 1.6683916695718946 -0.6374574634323538 0.691649633204041
P 1.862718313789715 1.6743642222524246 8.54184005295677 -0.9299708416505855 -0.29941139088964563 -1.6673722271684446
Ni 6.464827079478368 2.663382418194347 1.3909931661769543 -0.05495090231458278 0.09341537693836814 0.396208282705737
Ni 5.060833632126802 2.382314216327656 9.125246707287873 -0.7293445766516536 0.2706680002083661 0.10016837939148555
Ni 4.934855046573196 8.065647645075275 11.696644175403293 0.14086405733863483 -0.19125767929983836 -0.1502933210723347
Ni 1.0811415941696725 0.7903949437124975 6.010617468667211 -0.338715587805907 -0.13593242436497233 1.152062732722461
Ni 7.355897825065327 6.833237603500073 11.05302826712378 -0.023671889695643104 -0.6194484284494428 -0.4715192367339105
Ni 2.0887949109433577 7.404779251476926 3.743277056036941 -1.146796599227515 -1.4511853887270945 0.8437681804105726
Ni 7.1331255237302935 2.267337643667293 10.339071469364889 -1.4013833776033027 0.16895644469947677 -0.7098211619067453
Ni 0.21834380654797117 7.948418982527369 2.0299082983100503 -0.7106829956864084 2.252109477388947 -0.23559429643368457
Ni 7.016515262913802 4.425836582605438 8.609411056472002 -0.6544827943457567 -0.15577054213682204 0.3662670150616143
Ni 2.412311315239607 4.086601698479325 1.3571407478140731 0.4816938632740672 -0.2370595681253014 -0.7112455530580977
Ni 1.537199026273806 1.8465567998836143 1.6075131491110788 0.8653968144239419 0.21344321425794208 1.1637681940848474
Ni 5.946846405343378 5.502695514038142 1.9003715953316553 -0.5853224333000113 0.26084330080846047 -2.7953853751408695
Ni 7.229642343214071 4.1212321954386 13.17830888022066 -0.2988999984708659 -0.8356483795169156 1.375403408599773
Ni 1.1280847464977293 5.939120998638977 5.328568354274046 -0.4376277261927882 -1.1346607351959297 -0.0546919922262413
Ni 4.168147658136892 5.783772945781421 7.559785798900714 -1.552451886278765 1.1680321115675238 -1.5316547470277557
Ni 2.1805675738607526 2.6000654647986585 10.387541243280648 0.897002871364997 0.35013719937928733 0.08636566918043835
Ni 4.009864504524259 1.1394282648247411 11.163936310184026 -0.7798204739140183 0.9932364344784508 1.0815787677692856
Ni 8.832059677460753 2.0014987381712848 4.659015569793772 -0.8879474460309483 -0.03691229964531707 0.047801949974627354
Ni 5.339354388055125 1.5070634792130302 6.269569040253034 -0.08405167633528104 0.46162794576212757 0.7047141796974831
Ni 8.467756448520838 5.386934401867774 6.766343149938762 -0.5160386593025241 -0.29398867721217753 0.8989306845153293
Ni 2.5642904631424357 8.43395664045451 1.7228386111064793 0.35066196153450574 1.103423631558519 -1.938628752890429
Ni 6.5242213353240315 0.25618906952294795 1.2123452128599128 1.9059618587850269 2.555524075900715 2.410384788225494
Ni 2.0547643559623223 2.9454382168559854 4.670539070714256 -0.8931223053636682 -1.0590381634646084 -0.7726859197517661
Ni 3.7718352171887775 1.7547195278301013 2.762656201815047 -0.4988881156651666 -0.4968901113985314 -0.917491221126336
Ni 2.5439108956354857 8.836499248099722 12.384258905379198 0.9987856464314541 1.1382435674511817 1.3215362262676724
P 6.960831417456633 3.240323543975351 4.9442962873353595 -2.2614155852812217 -1.953687189885448 1.0042687810332125
Ni 3.1571531260382444 3.3368865128420695 7.8439312416219416 -0.42308865203634877 0.41069259236484107 -0.28050504090344597
P 4.605505360273145 3.728214820432506 2.170926967764281 0.13821839218567164 1.9211167121485948 3.8281026413227623
Ni 5.580171098120272 5.822575346958604 13.064550651269952 0.056449598347296334 0.01978875259115302 -1.4917743658930505
P 7.357088479145217 7.524472291073907 1.5657848770554073 -0.03631966036664067 -0.5367684356507079 0.06693301437712344
P 6.385856255388935 1.0423668826222545 8.152676151426288 0.506451015614089 -1.2208155739171425 0.5154434489206864
P 6.345798590995744 6.187607736148995 7.2712773935162005 -0.20262144105208976 -1.6905000714351595 -0.41748904646138424
Ni 4.431651404856062 6.029047686238713 4.935758651491189 0.8912050337362974 1.3557210996794973 0.6539330924898737
