# total energy = -340874.1705426333 ev
CRYSTAL
PRIMVEC
9.26627817086321 0.00000000000000 0.00000000000000

0.00000000000000 9.26627817086321 0.00000000000000

0.00000000000000 0.00000000000000 13.56213475280789

PRIMCOORD
 96 1
Ni 0.9283142785528076 8.63892332906058 5.003641018931858 0.8791565872121956 0.06427397948772157 -0.33102618958144925
Ni 1.46014304722642 3.3764649682341052 1.1870296913876706 0.4434808425394556 0.10315600126489975 0.055857216178936055
Ni 8.668362294772606 4.565106065393675 0.6408178057552266 0.35276640947201826 -0.7598998237306912 1.8417914947547056
Ni 6.326514348134547 0.5952833148805337 9.679702425632547 -0.6698135111655562 0.43612105974027476 0.0753466923621154
Ni 1.9836136330003638 9.331976071427473 10.120689236371677 0.604806767276868 -0.3046788099361721 0.1751656588339822
Ni 4.388277679280169 3.0528680023557926 5.494075469812343 0.7576367387281275 -1.100792364583259 0.4006118110900713
Ni 5.375358693919119 5.2913876812397405 1.516898074324183 -0.8957399454921735 -0.1988984836745478 0.2847807854606644
Ni 6.780302522150719 4.672863614107921 8.617136455852485 0.05223376049373585 1.0958370774605126 1.269623339448465
Ni 2.4788776680574642 0.7737675849011023 1.6929073214484087 0.2591216901316634 -0.6636487771157409 -1.4749930326696532
Ni 9.126570483470752 1.0066977255021419 9.386231056677863 -0.41767570855089353 -0.39685362959921977 0.7691740499437656
Ni 0.6226679467246484 7.3119274327048265 12.185212303747592 -0.8149281162504288 1.7891522712924346 -1.3862246675849934
Ni 7.018436604566009 5.074399245583923 3.411676825239363 0.1725233361151287 0.7362883549593383 -0.3925125790217046
Ni 6.9500792705850145 2.8481944503736556 4.326728279862795 -0.024644023800925303 -0.5298552534706423 -0.484874574994894
Ni 8.06505345637832 6.811594743494602 1.6836308503831554 1.2442712338369217 -1.498134503783123 0.752129435756653
Ni 1.9729944782298308 0.6903497690278323 12.52956758595832 0.34756095401167886 0.20565611411335552 0.8107007084326426
Ni 6.058987631398026 7.793486642364355 5.231918561269124 -0.12323837383707162 1.0422804843902953 0.7931187336848211
Ni 0.8224970884851145 3.331579116830562 10.141696815586574 -1.6051530733272228 0.03254476670524072 0.9841085040352536
Ni 2.8755299709435267 2.6558265157870404 11.224985889842046 0.23328801689801112 0.06463830480567578 0.14649837280627673
Ni -0.0006662453996521019 5.430326255959957 7.587390716684769 -0.04554297873712156 0.0040497445893414126 0.46913890942719205
Ni 1.9207512019678203 5.090411374243155 12.314567693595484 0.7467987675723591 -0.9087384146343704 0.13636925479207482
Ni 1.3098162166484502 5.922282229714195 5.387639292363611 -0.25079054455814875 0.5868165013470347 -0.5375415663713066
Ni 2.3925530207256287 9.093990249462731 7.727962009616651 1.1174310015812046 1.8608796217344081 0.0035393806118261626
Ni 2.3103055357838755 6.884501820051803 7.732640553459271 0.30997785355158225 -1.9998104666060716 -0.8467763711092772
Ni 4.565958562984329 6.425385536094046 3.9557222550381677 -0.10438241747283315 -0.6192093158554433 -0.9613017905533833
P 3.409693841713277 4.869123385521433 10.718250202423759 0.7409160835393369 -0.23569482656729085 -0.9069733523141477
P 8.68640373834872 4.0997999076255205 5.901752790452315 -0.4328588440492352 -0.26101016540362787 0.3588874347680916
P 7.356590893432548 1.7840272677276707 2.163540662530332 -0.5286440067713605 1.5558172032065722 0.7126853708284178
P 4.1840211098152 0.6326171495842654 5.889221075869707 -0.16845842201713568 -0.13728251063496355 -0.3495877546337205
P 0.7035977669121523 7.78483193856359 8.703676080837615 -1.297527779168217 0.727483612183515 0.5353607566699038
P 6.767663318741463 6.720460897798101 7.579619089192583 -0.3020082050825444 -0.031125774870527045 -0.25015959584236913
P 2.348065619282934 7.110246888568137 3.541154529958957 0.0910731019584367 1.9655021802425052 1.895636051378987
P 1.8804428919749603 2.078500321351372 8.702713314536865 1.0505288404420166 -1.6541117626141126 1.557852488469046
Ni 1.155189833004575 6.133747963587083 0.8247441609387394 -0.06880426325790731 0.21998075826614372 1.339864335152899
Ni 7.264493354807482 5.736762074687287 5.6794964756629485 0.1429826463435344 -0.5756589420683182 0.2635139056620881
Ni 2.1222649530976434 6.711435542870963 10.360724759065247 0.4590671270134868 0.3580739377278607 -0.4514402065958483
Ni 8.51965706287251 6.512470018234943 9.94299815976154 0.344885978282677 0.10498508405383854 -0.5507557510687354
Ni 4.6159871987662715 4.592330390625634 12.540525886509482 -1.5289268065736312 0.10123744408594823 1.1433523494326567
Ni 1.2579343252346515 3.1626178008742833 7.090731180136882 -0.11576623382974255 1.3956253920736028 -1.0240091968849332
Ni 4.249459566176022 3.8640657912534833 7.932004528056141 1.358919294901821 -1.9778162217231676 0.09821768342301794
Ni 3.7324661088354145 9.215035641057382 3.7178559680616803 -0.6028259894014134 0.010968583196361755 -0.10162028134666369
Ni 3.32428655591921 7.964458740681198 5.7181211029142665 -0.2954477782562073 -1.0829278255980124 -0.173333747831566
Ni 2.274824956711999 4.620861261078051 8.80803661197867 -0.8744951771807843 0.2667082442296697 0.20320945234507584
Ni 7.506306149652006 1.9799997845182453 11.314766858927293 0.46842825651341263 0.25791121476333 0.062288059405944333
Ni 2.1323373974567783 1.433660024247203 5.769250572541532 1.123765942660297 -0.7071441292952144 -0.9089808696624797
Ni 6.451729564900873 3.682391141662675 6.5820162157037725 -0.22308253711991904 0.3161073634880878 -1.5531699953917122
Ni 5.158796507058629 0.6764540583001787 1.6724557189230658 -0.003021817545459312 -0.5683958327480018 -0.09353467612505183
Ni 0.6640251994051388 8.430126283297565 2.6413210839565067 0.7278937031377398 -0.1585218796297141 0.2320402605338391
Ni 6.294276966418418 5.331353138940707 11.255662830316153 1.5584222449295868 1.620925505670131 -0.9002157218753399
Ni 9.114394593969461 2.104167911852573 5.281976849141177 0.15967296251502178 -0.987938162193989 0.5250861142167731
Ni 3.456961126603755 7.352430334539032 1.5004606234974394 0.2773616101784578 -0.1457913194369231 2.1102930834393723
Ni 8.853215277772046 5.499916004936137 12.10835501281109 -1.360159080846193 -3.462431093753301 -0.8650414879670523
Ni 8.964253088954678 0.07067575677644661 12.78354607739816 -0.8793329648890598 1.1955817390510184 0.4889320328937193
Ni 3.5453799527995877 2.715594009914385 0.16514638923810368 -0.20412682195302265 -0.3498667193267201 -0.0021689826268607806
Ni 5.799735701057742 2.841161345250764 0.9503152027863819 -0.1588286122368555 -0.2833407105800282 1.21546356557661
Ni 8.418858489055882 2.128686483862023 0.16291692271298136 0.9132105914731111 -0.07013840868829856 1.0319878442150356
Ni 3.965040424355138 2.4100662864466647 2.796241208618031 -0.6949293323965773 0.6815909634164584 0.4318003208777338
P 3.2298353826416872 5.27341110161074 0.7326753477759672 0.08558045427498165 -1.0209747809339835 -1.3477828186690273
P 1.0051873221621797 8.440272857881974 0.5972672250344351 0.6924222497040075 0.18459183724388856 -0.60478671267221
P 8.011902084856702 9.41611387711372 5.346668443482362 -0.3764087314813066 -0.11930767132409775 0.04797138567295609
P 1.8502348251757132 1.6628058168479933 3.476789108608979 -0.3929308975060459 0.5445740477380556 1.3779359452136397
P 6.194191896020055 7.57672986366252 2.973973056852066 0.41891189495083986 0.19371462548076315 -0.19245298515952014
P 6.982826297599903 5.739097176783425 13.633742851184806 -0.5328133076577017 -0.5416797569093962 -1.0046511040732955
P 4.272810587137403 8.843346691532416 13.680125206511072 -0.6769917740815502 -0.14921962839218172 -1.6060344474909116
P 7.8852505949756875 9.111086532666599 10.991432128720888 -0.04027710235249193 -0.3831195678425789 -1.438520391664916
Ni 7.678195609506616 9.055915112506257 1.8734598247541283 0.3215748143605623 0.19562752623275986 -0.42492673368635203
Ni 5.080737379844869 8.599671374777877 7.655594230448321 -1.3211299919681891 -0.16041266889452374 -0.18837881509014653
Ni 8.627637002262578 7.547142637499945 6.377634551483653 0.5360580398472446 -0.4949376156578509 1.2731992297251815
Ni 7.454655915192189 7.372825412767603 12.196617238906033 0.23639982305411542 -0.18730512240999356 -0.4863429320103043
Ni 6.4865800370579185 0.2099747897170597 12.920307076750946 -0.07714775012659618 1.2499662273391698 -0.2815846471208699
Ni 8.218892206378658 7.43024853852065 4.116066858934134 -0.031229133217610734 -0.3933774981251612 -1.280908425443981
Ni 6.1245002179841235 1.2916172463436277 6.325094754320546 1.2471002186452846 -0.3186686964573609 0.03937078848813865
Ni 4.8344397063712545 6.098971621655313 6.362173766374897 0.47793825288637687 -0.517390031124096 0.638035704533327
Ni 2.6006180305140614 7.41188277520896 12.916373541672334 3.0471501106868297 0.505446999829607 -0.6186269609894121
Ni 4.260708827861386 0.28700258017169156 11.442983423189409 -0.7285742741445324 1.1225518677475377 -0.04738080327680872
Ni 6.1259920887677675 0.45549316919747873 3.8032428680437973 1.0451639765856773 0.6765883679955444 0.5858968177462426
Ni 5.445532218419332 3.248840519146367 10.4595116238935 -0.40025159953717515 -0.3803576888267256 -0.3182125827565488
Ni 6.168867157810748 7.168318653792333 9.652998865233139 0.6515393954467167 0.9009415442977708 0.6904137039144109
Ni 2.6601353351311054 5.164393339066833 2.841077022119514 -0.3019971493389509 -1.008548896465805 -0.07257478604393307
Ni 5.127346758986038 7.546846116598848 11.99698268898691 -0.7898596033175752 -1.6132692746764536 -0.2507733181669681
Ni 6.105263424525463 7.587589941665194 0.7331117894772692 -1.657959675605293 0.2317983197263621 0.46254968624544857
Ni 2.4031999743306396 3.7828283306310913 4.8109635906547235 -1.27769943158838 -0.34339011046344087 -0.3396301292003764
Ni 4.35873678450839 5.996375389875784 8.79652233473795 -0.4646952718335416 0.31021490926305284 1.0514806628323246
Ni 8.24236368895611 2.720217882715865 7.839035959284104 -0.14215140869149068 -0.10240035404579784 0.37706050613269254
Ni 6.978035631791556 3.6915091593714044 12.841700312497975 -0.2692052996199105 0.7481100301846147 -1.708107757214594
Ni 0.20869696995889525 0.46262635012449105 7.107440132913693 -0.23322913863561767 0.3719090438387401 0.10979176141386253
Ni 0.22729994999146216 3.262823332888718 3.364996095756367 -0.2981834320198155 1.0277496377639719 -1.1079099494646467
Ni 7.369711943306086 8.759950188098912 7.990579452184386 1.2767041575546463 0.3053886915190031 -0.20029382136017762
Ni 4.082898216262997 1.448115418175677 9.262857049381786 -0.9199846769721511 0.17325224386135324 -0.8951478204341292
P 0.8860813625862655 3.1026649811837537 12.609503134499334 0.1696141328881337 -0.9340095304963334 -0.04444357502535572
P 3.0222892844301747 4.999092202983469 6.677343978895164 -1.573532103987832 0.04844601131652947 -1.0408355244136527
P 5.06416000821792 3.9984824222319726 3.715563490845075 0.36800713768117266 1.474686300062512 -0.6497445083298229
P 7.917089526730967 4.051856184429416 10.399729303721099 0.35654541689847624 0.17642884181712196 0.1846095778557014
P 5.923737035385202 2.47136271647029 8.306156454315845 0.37018383361751733 -0.7712566435044071 0.5716161394575123
P 0.09145909205989167 5.506939843780869 3.0495812534926965 -0.1510178579431851 -0.17491420494480844 -0.6035759801935605
P 4.096287988203154 8.093482397770988 9.586706984653846 -0.5431002914060067 0.8155446667885051 0.757757837687024
P 5.348050972183726 2.0226895279980397 12.355037236828316 -0.34755375492282725 1.226530879134365 -0.04224553893277241
