# total energy = -340890.8502568454 ev
CRYSTAL
PRIMVEC
9.09106611212959 0.00000000000000 0.00000000000000
0.00000000000000 9.09106611212959 0.00000000000000
0.00000000000000 0.00000000000000 13.30569419414487
PRIMCOORD
 96 1
Ni 6.469029833966037 1.8885144129751452 11.652621118283482 0.8873540354213234 0.29360558284114596 0.0997271780890089
Ni 4.547678490605897 -0.019443062850052435 5.8430090291669785 0.43065952240507116 1.4769480995134951 0.0992684932850355
Ni 2.598172115849762 1.6177188300909107 4.6719888179567794 0.458471659521333 -1.5654048468950073 0.24859893622346865
Ni 3.357567040799769 3.7611194604536835 4.4820628126582935 0.29377167610536503 2.0143706238084342 0.7275118943182891
Ni 5.012222872040801 4.51592339707467 2.682773576027715 -1.006565547487189 1.2725996484679696 1.4373109447378472
Ni 7.572167055368717 6.229071146947224 2.411577077132966 -1.4926025182213003 0.10740217813576343 0.21640332532753054
Ni 5.168589207207445 4.337011218232836 11.36952895953027 0.4653619588832631 0.5418278524514862 0.6076717475294889
Ni 5.6726433614699205 8.1905686377548 12.475778052824086 0.22305734030893845 -1.1107312209635258 0.9433927714834461
Ni 1.7497847458447386 6.75581660194086 0.2661427753064269 0.5117186917709317 -1.801303047722356 0.5678990956172414
Ni 2.637545522687363 1.448379543745034 0.4620970664682262 -0.2231056770483706 -0.4114166150150592 -0.05358101855024966
Ni 0.38086384624255476 9.305796976934902 4.8795169452407094 0.36717641424976116 -0.8857537808137391 0.12417991181473452
Ni 8.396626739666845 2.6145996721082576 1.291525018334294 0.8971617655403645 -0.5934705163284424 0.5685035619704596
Ni 7.089313267013719 0.6345018602686491 4.868726759007611 -1.2615878707384984 0.5422142892566275 -0.30612762656755665
Ni 0.8570075187843845 7.459292379936795 2.7773370263263426 -0.3953796161568546 -0.5103791470239016 -0.41291736793030176
Ni 7.665805035148742 3.9673593836856895 3.7520856681714108 -0.46776491189780084 -0.5015846886607234 0.13518706155851556
Ni 7.6116404639322965 4.008087359357001 12.71277941607373 0.04810148349291716 0.06283493304834985 -0.7207329237232426
Ni 7.914145685017767 8.985964184057128 7.093664251200391 -0.3751301218791991 0.5181958148548431 0.20537792075130437
Ni 6.836190716429714 0.7638595474616547 0.504771439369723 0.8147540525664096 -0.10130377854750941 -0.4587611657372938
Ni 2.224365664141502 6.300481470361992 9.281320190841724 -1.1835209512317424 1.4156907953649103 -0.04078129568242009
Ni 0.11937660583373479 5.005440936806247 1.138382375170562 -0.0017177540220551062 -0.27130049158604247 -0.03654925987894351
Ni 6.615305085874834 2.2377568043566454 7.208732600857645 -0.7353930968385787 -0.9576791061991313 0.38278506732129564
Ni 3.1312085885140553 4.068233852000171 0.1354959749548962 0.13028036828551756 0.8619854747495477 0.9951326230598991
Ni 5.912692959148714 5.773708742170362 5.018614800544037 -0.5521189499648491 -0.08278360825613484 -0.482163346711318
Ni 5.4108388428577685 2.532852806653696 9.617035985124708 -0.802655726640979 1.202539144205458 -0.5826772823676802
P 0.1998570857947668 5.606533129532024 12.318983528448936 -0.9174338855258394 -0.21387901624378008 0.7907368637162059
P 3.880939710308124 6.0528499236408155 12.861642894472176 -0.22781028161289155 0.3024589194667178 -0.9505005861728212
P 2.4410148579412865 8.30392513968462 1.646486599335174 -0.3640535523500633 2.479690673710168 -1.013627596540293
P 6.387237513181485 7.8351625036266155 6.0028772429560755 -0.13176955123653436 -0.5919427668300064 -0.8693434577765158
P 4.70545394100224 1.0247722324993973 12.861390162837429 0.5019484997580452 0.4043854191998907 -0.06309384313669134
P 4.207636258014434 6.215434547950133 8.229279305881143 -0.5325785659390764 0.2030271611309407 0.10471820354569708
P 4.881538798318678 1.1975024864625508 3.819678652973592 -0.6473886065031367 0.04180768006440541 0.8407342786802552
P 0.07688041782579999 5.559705048576013 3.6168869710746514 1.1924437076426688 -0.790666929710219 -0.1342990025266074
Ni 1.457379699083114 0.823993312612427 2.6736861464560535 -0.47124875668134325 1.4486338259498341 -0.6195520439068426
Ni 1.635719140767071 6.462720634163383 4.843579052243776 1.16834784303573 1.0877465871428944 0.1709369654646153
Ni 6.16285182221735 5.631079007726787 9.16006537077279 -0.6333195300045803 0.8326497018999078 0.18437586457834051
Ni 8.936199688783743 2.7468837734460387 10.214315384770899 -0.09672464381725923 -1.1117303516520014 0.41683032983146273
Ni 2.3208764207769144 5.081124061240103 7.203449782406172 0.5170671005670385 0.3824217704446059 -1.0849908787746283
Ni 0.8374599086753545 -0.1579118163863145 8.914269310276623 -0.5049384356243045 1.1639062623246084 0.4338569462964464
Ni 1.546772151042045 0.9493618400454837 11.338048416192185 -1.0380975566571993 0.9652409777067893 0.47866484663975634
Ni 3.819393193501253 6.820035892151162 1.757429423242508 2.0938958730282713 -1.1972794384684153 0.18607742065047952
Ni 5.681698063203989 7.9881196890439865 8.202907032527369 -0.6111126548902378 0.38818078441557013 -0.26590965958777435
Ni 5.555850436592835 3.125708493585229 5.079209482740911 -0.43573308027323665 -1.1475301349594302 -1.1787248153946797
Ni 0.5864164848851066 7.565212389880201 6.8242641469468595 0.8545087067565283 -0.7215268803794477 0.26641102470422506
Ni 4.893493550106127 4.305883408255475 7.316960832457958 1.0941550617723994 0.6794080968325267 -0.4665282112772224
Ni 8.24875146014239 7.544175663160689 9.205797069169433 -1.0286250983903897 -1.581614109665018 -0.16031419564344648
Ni 4.653116674051405 0.31842458675467417 10.67545061645653 0.20725919693441724 -0.15069312761391468 -0.9245123896391755
Ni 8.243805920239444 7.159214473472807 4.750106529864914 -0.8847132553643667 0.6589518858607039 0.36840231623706227
Ni 7.326871912609044 6.113641881969848 7.064591931245193 0.06941438603808046 0.9869773409426165 0.07498056727194828
Ni 2.142500614828965 5.032523222414469 2.5397374709340275 0.5598641411279067 0.9259100413176505 0.18052718025621167
Ni 2.168855615157343 5.3296556234950865 11.465928805160507 1.1844128669183924 -1.012837239428514 0.017862482102717625
Ni 1.0035445933939255 3.431104673658082 3.907536532992051 -0.5023195099442188 -0.4123702371775802 -0.26636757306079933
Ni 3.6358627531324035 2.737019966838143 2.2651609137011994 -0.5343644541949054 -1.058729373974938 0.6382820162161781
Ni 1.4035242241106023 3.1941278562866335 8.243024088563612 -0.44618075796912193 0.18729715199019356 1.568449547258602
Ni 3.8081020895316615 2.3613407555342825 6.7228478510988925 -0.9580850833882983 0.2322894004301677 -0.5096075589651998
Ni 3.8311479418367456 6.8394362269910225 6.142839658635819 -0.0027528801547888077 -0.15574585954647371 -0.022632906908167473
Ni 0.9398525850115121 7.423819040412363 11.365098883069416 -0.2935970982007137 -0.02050069105651308 -0.5929712080945206
P 9.35179777088509 5.717944143338258 7.938403376420392 1.0092652058065392 0.45558148245773156 1.4224911061161953
P 8.687868129980718 1.6593559123620287 8.14730243645683 -1.086994282357902 0.8911836935800589 1.109738003812321
P 2.1235911975529986 3.1818276439912574 10.46918614734633 -1.248105005760715 0.13466075674140035 -0.8163345096796522
P 3.59106197989396 6.038122396723958 4.092406087382415 1.814153935543095 -0.869529862755709 -1.2547911595316388
P 7.105613548348241 4.117143787069738 10.321199956816699 -1.0123466729453403 -1.390100862710948 1.492901794629274
P 6.4562477951727635 7.885217913011938 10.43998018872096 -1.3108530355222134 1.2138232017597095 -1.6798608465537586
P 2.2396295639522457 8.603703040970672 5.749084680808014 0.7349853198771987 -0.017353660787099143 0.5105359843167401
P 6.770835042969656 4.2167364150784925 1.7294743952984712 1.9434022630196726 -0.22267758837201648 -1.6079578897658695
Ni 5.350874171534561 3.173118402765115 0.4642371034041697 -0.0195421837979857 -0.558089051505355 -0.9028647294624127
Ni 1.2594490101733362 1.2342031198967216 6.932279647602818 1.2343899701674677 -1.211503038266965 -0.5452031966816223
Ni 6.9607837759331375 0.7911209270700393 9.34991137469049 0.42931354990013804 -0.6401244687415556 -0.056586895256109
Ni 2.900550062011259 1.2586035410355167 9.258407977206812 0.3141253000610526 2.1314239518807168 -0.1415338297121498
Ni 6.330027434855689 2.027780452999437 2.4228599991431596 0.6630903335091097 0.5891909151164821 1.8146822972427392
Ni 4.398639554633689 6.75998940123397 10.704111111122016 -0.20616904919403203 0.18498573024819756 0.01781337403233706
Ni 8.049220743616953 7.59404925122605 13.673862367510514 -0.7948601418559601 -1.6353897607245773 -0.21647454488509812
Ni 7.886545208647655 4.029660458970399 8.262050780590952 0.6743347960746774 -0.6213135066826396 -0.46067123827581313
Ni 3.118826556624697 8.430409140915637 12.40488501106461 0.40905351409952134 -0.48562148046324755 0.43335686673157625
Ni -0.11525744383001346 5.22603565324919 10.117622806815524 0.9306879223222682 0.4551875894534226 0.04159427850201869
Ni 8.56588420641874 2.6039813070225226 5.791556322937754 0.16635654518278445 -0.4091249907674051 -0.09268595497151133
Ni 3.6313990397273557 2.5062523475433705 11.763511214008027 0.5954168414215358 -0.20613793884578047 -0.8805820068048124
Ni 1.0298450473263152 3.2809202633701195 12.51936698696499 -0.5433861980775416 -0.20000997157117167 -0.053954085618952236
Ni 2.935887035545721 8.375944564521257 8.039140569638304 1.5671570536994235 -0.8145707329110101 -1.714224668745609
Ni 5.723653332785039 7.964792013692963 3.6822708268393036 -0.12351348187532922 0.12386880833221893 -0.057138911104837084
Ni 3.258210780506964 8.373608160559755 3.791497257486204 -0.09744480981273541 -0.4049803724714122 -0.24177240021993845
Ni 3.669181510015296 4.456067818543438 9.40865602495676 0.12490856245064295 -1.33957071517188 0.5833773937584986
Ni 7.119641063183249 6.240753166754733 11.450002166638503 0.903430886378528 -1.1983459320597167 0.7357407099859845
Ni 0.7529648139695787 -0.24210872412735374 0.2309603498939319 0.26828613023975084 1.807341797717268 0.005130379248029874
Ni 4.70821762506565 0.4345493182809026 1.6646623675850967 -0.9954362703432469 -1.417449944147862 0.5592864142475659
Ni 5.9659847880293455 5.780472495272918 0.21259548747124946 -0.48944625352597637 0.2704360867032181 1.0672808630893749
Ni 8.189659531154994 8.725759693060635 11.450094895511683 -0.5593625189011399 1.5909261310945633 0.35445690980056377
Ni 0.19274878129088313 5.008395533255618 5.851099168798653 -0.9118589625412231 -1.2972408440554175 0.3051138405910616
Ni 8.081194022732133 -0.2342104059882386 2.5560104790705562 -0.7699577221873255 0.6129435374513895 0.10514166423636086
P 8.650149297154764 1.6806017335994967 3.598045736793671 -1.1634095251938479 0.8527055921095186 -0.6355597321890086
P 1.560536024963109 3.168091043268188 1.53634197102247 0.25187400743031463 -0.5195489864486279 -0.2411260248851912
P 4.818610439480102 1.0988916935815862 8.023147566334515 0.5124224027061756 -1.2404114937711994 1.1507216453135345
P 8.723241467779172 1.4958349082549107 12.611722217332687 -0.8523818902215128 0.2780434667368308 -0.3765100329458612
P 6.138024120976646 7.707187567571915 1.5237281169501609 0.4238725813902249 0.5247636978803479 -0.4184712078689954
P 1.7388391023830736 3.199000667661594 6.071667521150201 0.43770305951541394 0.4265742965921041 -0.8851927661039465
P 7.004602714043789 4.170626528336328 6.190008654566757 0.020636445303428976 0.3304911430135857 -0.5634546866926425
P 2.4659971073039575 8.424736315732849 10.22617104393897 1.5454065493962095 -0.8960772742269341 0.27005684898692844
