# total energy = -340862.20085256884 ev
CRYSTAL
PRIMVEC
9.35101362528033 0.00000000000000 0.00000000000000

0.00000000000000 9.35101362528033 0.00000000000000

0.00000000000000 0.00000000000000 13.68615365554047

PRIMCOORD
 96 1
Ni 5.123626138459866 6.479691445834224 11.33169775372248 1.9946320077289261 0.4358045569411204 0.5673743334620228
Ni 3.654366810027663 5.460711480970663 8.541637660849695 0.6025249132212268 0.2686113747896535 -0.16024014787240146
Ni 7.245950913951867 1.0427221886938673 4.353839467967748 0.6856152540845031 -0.9911013904133188 -0.6056693723874795
Ni 2.4766907913538843 8.140814873734817 2.1198346005388653 1.5896544634709913 -1.2721972708232283 1.700524288440381
Ni 3.7025993387857272 8.214706584135403 4.531841624700397 -0.5741779866474176 1.0260090009237814 1.2787782664748557
Ni 7.580707854046853 2.7875371893716365 9.708505777868067 -1.0839755501362365 -0.8620016726994638 -1.1156309722579885
Ni 2.913607556319334 0.18262155750940062 11.640141876316045 0.7752421105147165 1.0197643055656502 0.5844814254559546
Ni 2.4886694399267966 0.5132004646751301 0.8023525108668436 0.3346661003268817 1.7823067091255111 -0.7554181338102538
Ni 1.827908108576986 3.2922394527797394 3.6655758701715735 0.05629764615046434 2.2539413883913633 -1.3178819173445369
Ni 6.814382928833183 2.9856945210723222 5.272180082791411 -0.661675455439454 1.7398171725027327 0.6787051572282311
Ni 0.48055420558242884 0.6653882129375368 10.203547509003982 0.9609464640964933 0.7990345849486239 0.4078656644390073
Ni 5.094235902343814 4.317381735683541 6.62552143986968 0.7013537478656825 0.21288991285763337 2.2958807089376267
Ni 5.955997273564618 3.263756264994345 12.840103230882848 1.2997124455243616 -0.48982934789700794 -0.9537985401978026
Ni 8.344835291036764 4.981490729944439 9.723697434754527 -2.912998432371364 -2.3583322905046287 1.7946834855233091
Ni 8.412826511781216 8.933752783990256 11.601451121955952 -0.6907759723498362 -0.6815164014247811 0.6645491774428233
Ni 0.7170843571767924 8.631425159469712 3.8353117307774043 1.1105908387309196 0.5419548649476538 -0.3045893355461593
Ni 1.693908081996323 7.685906758375705 13.52038667357198 0.011362733310986882 0.6208918457641887 0.36045272237268244
Ni 4.133101308340546 2.05084562663069 12.836188896540444 -1.9054280977687443 -0.4828829984861619 -0.5300514286418485
Ni 1.7456472408986823 1.255280081520458 4.66218821022139 0.06727831353168413 -0.08895939804954357 0.9352377464764795
Ni 0.4574581368000437 4.049484543673115 12.611900157004472 -0.6319979829796794 -0.42138246797851947 -0.1806549640833276
Ni 0.11830715535891337 0.5097751883501828 2.009428116670392 0.3412357831245994 1.6422507495104683 -1.405437235957702
Ni 1.242048397109318 4.581613330316464 5.983764173699204 0.9895337888158829 0.4164755175952053 -1.0395409739719452
Ni 6.91438266953476 7.735439078040588 9.949505714019693 -0.0803649715123132 -0.7072960814920464 -0.4751483488460656
Ni 0.8708514916561896 0.7260903184887141 12.995468453606673 -1.9024754428983235 0.5214078940342375 -0.6988615775714481
P 5.542345830729853 2.818937893437085 3.4118622957687923 0.8875075302800522 0.5620773467291417 -0.3825780935168121
P 2.0074195189237396 1.452137622314325 2.5910630401402126 0.4025414240126164 -0.1398713544080623 0.420735835533456
P 4.7035786022419055 3.002881684286227 10.56274051814716 2.161463949886232 0.4008992604235031 0.7396441588054489
P 2.79150201918812 4.610507962705455 2.041316943651925 -0.7635600461910979 -0.6103744911726326 0.17242152042994177
P 3.4029554552022825 0.8343797328514052 5.956707015505824 0.01993042037533987 -1.2547682767135035 -0.8743915617233843
P 2.874754094320544 8.642337792478758 8.626109108170962 -0.5037485290812614 1.0706672630631044 0.8070453710682423
P 7.357564613691349 0.5217931111807108 9.780714305799393 -0.4351509825175216 0.8281888379150768 0.5365632616184373
P 1.2967237743191666 8.1862701514186 11.33767866209659 -1.174558599832132 -0.38028466949694506 0.42277266345782677
Ni 8.134353323255597 4.068972056261677 0.5440260813969134 -0.25510125611836065 -0.628386354369021 0.02555393720970438
Ni 0.4915014373422322 3.330382237735952 10.308985799284017 1.4707088034720024 -0.925436958335974 -0.36362186412928343
Ni 6.491969326846116 8.86364823414551 7.649547211735538 0.3272952617841073 -0.9749358363970501 0.8421303876968335
Ni 5.2688941365708635 2.2539776976294155 8.414069261504354 0.7765253481025143 1.1022028717775405 2.6147928888643612
Ni 4.67858334257337 3.231233439282723 1.2479339251435029 -1.467758205484111 -0.4243083833760628 0.13873107015603206
Ni 0.11424039949290288 4.22988430032309 7.9005106530038205 -0.9664152005205485 -0.6439171030147683 0.08146848898913711
Ni 5.749667155874295 6.680943963075607 3.2390471463455843 0.48357411101591563 1.7720030132066578 -0.23766274892693906
Ni 3.2899391034050818 7.499597161055878 10.525746972776902 -1.4870167966034067 -0.5982627955107632 -1.0868292175349477
Ni 6.083133656076181 5.394122912283929 13.51307885635127 -0.5206319351001615 1.192647596123359 -1.0737428166646346
Ni 1.7269171604212874 5.8404467970498075 12.111630274098758 -1.750810438289443 0.43656688902844165 -0.26577596222338745
Ni 4.210200416446447 1.1779191450304494 3.561411187959945 -1.3974043383508965 1.2468971014955428 0.9048431933450224
Ni 6.302452331820973 1.2946572002874621 1.467264757206128 -1.8271670599733112 -0.8634664301704484 -1.3126726052294555
Ni 3.4507017312470043 3.631587740610322 5.201148847487198 -0.43448378124716786 -0.5988451503767944 0.026816091751579625
Ni 7.755805585918654 2.56919101905353 2.4823949097219375 0.9941039246850687 0.35511768331301424 0.5700027722238055
Ni 4.742871561885447 -0.16072989929390935 9.402456449887712 0.7118348499026644 0.6797618806275196 0.9923303777244136
Ni 1.289411281591597 5.796721456903877 9.804446243514612 2.514479242144263 -1.2889593207729158 -0.34499062218134136
Ni 2.8382290347375663 4.243770555694498 13.53360807186803 0.7972430402658398 -0.09186680150432565 -0.4945833176422257
Ni 7.4440708415976795 6.526502620507133 1.3298684424430438 2.4364889415117137 -0.8127691609258969 1.307861042773425
Ni 0.7628351268940675 5.528590489550498 0.9826999018399972 0.30026062626381833 0.2929728343531535 0.7644553043118577
Ni 9.001210996952777 3.1522267243783255 4.451996123865484 0.08631219023468362 1.2231069410544808 -0.8315973493759937
Ni 5.966404951832886 8.468661414692113 5.080546953361858 0.4712359011655368 0.4005889282719359 -0.12028829006981218
Ni 8.157740208564615 8.670680715058381 0.3819664679522874 0.6876747077166931 0.3580320287463318 -1.3002744886754187
Ni 7.4359074066217605 8.85299742952057 2.4901684074258115 -0.905484426473447 -1.4692373611327987 1.9967423692037094
Ni 5.453782379805537 1.205962835171092 6.4934916718794256 -0.28601774319155904 0.05022418626287479 -1.9390339587486476
P 3.5175895323727184 6.094055640098945 5.809292959746518 -0.09119317247606874 -0.4882465767909204 0.24707555760040673
P 7.489647682459798 4.605430362256516 11.767532606400742 0.4545818375486235 -0.671970666717875 0.12045875420940544
P 8.701445550190996 5.639437406165095 5.471655907426351 -0.12163966189138406 -0.09360435302072266 0.08939108627032347
P 7.051936081328309 3.1749590387270756 7.403333150334689 -0.05292358747190885 0.08616563735449032 0.7275610023886695
P 7.963669269858747 0.25163951956010233 6.228144501309931 0.0783721094520005 -0.1089731221673091 -1.5103495577920762
P 3.6218907393846314 6.094317468483053 12.73392621051908 1.8194064421912859 0.4743700759191443 1.5251436853821152
P 8.517380196163518 4.628274888769884 2.8000095714688658 -0.5881318777243484 -0.07205182366092752 -1.81471212203941
P 1.7905695108005317 2.4318433295617803 11.940690002926033 0.585943611823778 -0.3312426764676295 0.10140919377712214
Ni 8.874860099593537 6.651946469535717 11.404288738114875 0.5223221783183907 -0.871095664580932 1.038615119723566
Ni 5.8669195168858055 0.430942402300942 11.966488514672955 -1.1951317959977934 -1.1920048203330373 0.1266949649271044
Ni 3.454002639089501 4.784754752328907 10.870049427675346 0.22541247080467627 -0.5247426148344253 -0.26954982744352285
Ni 6.2539766767062375 4.533147026215446 2.087863484636612 1.135968912484392 0.8876281150183164 1.2836636195916151
Ni 3.2298775422935955 2.438968802014988 7.332986409234643 -0.08451010402893833 0.19898307296855408 -0.3471860871707634
Ni 2.0515282506321126 6.991051631009627 7.762704763839883 -0.2554028465191795 -0.6140146590283813 -0.743971325425893
Ni 0.7947912811743716 5.789053625655019 3.714408734010341 -0.6992387584052088 0.16032396583545938 -0.5611630624449885
Ni 7.6429856054095335 1.7723630870913518 11.88004680876128 1.49266962401381 1.5637958505366745 -0.10464569843654882
Ni 5.8178173438519565 7.935906110129649 0.7405357644804662 -1.753412137578348 1.426025601632015 -0.35189634816223914
Ni 9.12694472740662 6.966542624054434 7.189090204836092 -0.7006068423973288 0.34374440847906607 -0.8020666869067283
Ni 2.9473834178691836 2.108728401545854 9.947520493807337 -1.173108754759483 -0.223008489348874 -0.46073423030326455
Ni 8.734566840780579 -0.04904045634330967 8.143110547602616 0.7554937242431956 -0.4026357834986356 1.6206578538310412
Ni 5.78680938236267 4.975449975082533 9.617999186293128 0.5047594868442791 -0.8690444384788583 -0.2612518491007888
Ni 4.467774089312068 7.904168769570348 7.362247601361385 -0.5287476222287604 -1.3507375304219769 -1.7043413481936263
Ni 4.327695903814628 6.013160020423488 1.4342407171592144 -0.3566014669473923 -0.0643264299922118 -1.2851795420155092
Ni 1.6692027037530495 7.369851845716959 5.3989003451925175 0.18954738147695097 -2.000529089939651 0.6513691884174394
Ni 1.4624050353768208 2.8850308583967585 1.0638648307105372 -1.340660091581317 -0.2396522685531421 0.08471553517152507
Ni 9.411795307288 2.1127212844034915 6.352441916056672 -2.119562167446124 0.07261026726755881 -1.4413419202741113
Ni 5.245469847206972 4.815257759077415 4.402316058183855 -0.47645575480357955 -0.7068893329719309 -1.2507041339464589
Ni 3.191790863419692 6.244635014001836 3.546151268673345 -0.2199977275470082 -1.7792324410755616 0.16342445913765405
Ni 8.325936892312443 7.802373634234892 4.766476325814098 -1.2774387217278258 -0.6585389666930014 1.282449544678856
Ni 1.0349701983215456 -0.07017000694077412 6.469554011862409 0.607140043395735 -0.24815156427340487 0.5694502421544451
Ni 6.433815372533126 6.217077576574535 5.700228346346595 1.4958269386958691 0.3926316210980722 0.9872483352158158
Ni 0.919828361106216 1.8383438398864078 8.218562942192756 1.8565118316840157 0.13216447268210788 2.1928704892219715
P 8.238561020130328 1.716621694317637 0.26786165815829727 0.1687939509796835 -0.17614730602096115 1.0638594961126517
P 0.4568989461797001 7.611715815536139 1.9922110302125888 -1.6060100220108793 -0.8698335100390568 -1.4406646917014285
P 7.228492571340135 7.219833532637157 12.695604821200853 -1.202251180651394 0.3642019050024695 -0.03554807230793878
P 8.957840995328135 6.738789333935898 9.291543141075715 -0.704502063686677 4.578438218403786 -2.6251917156001823
P 4.1913955278593065 9.256811605923874 13.520455871073493 1.7138724276125128 -0.210607801691676 -1.2364810483685416
P 6.216740940080682 6.371687237389936 7.947261981188935 -0.918214986666238 0.6193183306294817 0.37676071550408663
P 2.179253747007917 3.9104910757669753 8.420297036640623 -0.9884392702001235 0.25542135846194075 0.9553003215543094
P 4.964565395114642 8.769698599319556 2.906227736292993 2.4169097338282053 -1.9804660006411892 -1.4236177635214708
