# total energy = -381176.52909109805 ev
CRYSTAL
PRIMVEC
9.15835780046344 0.00000000000000 0.00000000000000
0.00000000000000 9.15835780046344 0.00000000000000
0.00000000000000 0.00000000000000 13.40418238197281
PRIMCOORD
 96 1
Ni 4.978519911444448 4.412066325667392 11.123822843959276 0.2801234891943111 0.231148344847189 -0.37666841290059644
Ni 3.1227710370136545 0.8611191675070823 6.665537950023263 0.02642836939485771 1.7757187714953484 -0.3303196504327279
Ni 3.060155345012592 5.630961318224571 0.8152907452790119 0.4447787354152727 1.1190821640313824 2.226288402560785
Ni 4.596021099622833 7.854381623264502 2.8197173154117876 0.8961004141553858 0.3472290245935568 0.6678741280509981
Ni 7.460178430226365 4.047701062209402 9.784449655077102 -0.29824128184094445 0.15508431470307485 -0.15928883970272567
Ni 6.586049815522046 7.77229526266694 3.8085168117858603 2.3469687858626935 -0.8699260697528631 -1.103103529214939
Ni 4.15129124682605 1.3552812563102623 0.5348929691023647 -0.04025293398277584 0.6650569703171773 -2.227094957622481
Ni 8.393689836642677 6.64200738143202 8.418911953912081 -1.2019105094825235 -0.7887247183821836 1.0360846399922283
Ni 0.8839463742224032 4.212203484283863 5.219119128141818 -0.5799380290596464 0.303930876026554 0.27276010685070445
Ni 7.441669389194605 4.861677583149939 5.664728183283505 -0.5005536762930477 -0.7958559301103262 -0.6016078007235961
Ni -0.3135620212950102 8.464877751506544 9.648357374608098 0.49669496466858976 1.5780708723984498 0.41542727883634906
Ni 8.114991851666174 1.2561511919224455 2.4247631370373792 0.0779278228257303 -0.5341032301137189 -0.6949756122534805
Ni 6.507947340549826 4.334879686471114 0.5446731793536349 1.5374582410834103 -0.05105516680460239 0.2816180714619666
Ni 3.129621488617691 4.317405539866166 4.5112980478263385 -0.033493760882071344 0.7517959636766343 -1.0551079751722667
Ni 9.003114437026866 4.994308920221665 13.72253158575684 0.04806625937960754 0.41668969048854043 -0.08441317343975785
Ni 7.185684131461431 7.6208801338306715 11.056064734076307 0.12282571177968525 -0.027903925499119686 1.2729215505837628
Ni 4.90348548632163 3.953168493416807 6.29858545049824 0.09044163902202489 0.5457714104802665 1.410881289791409
Ni 1.558148039038877 1.9784891851223603 4.736555183605151 0.9255588286258188 -0.8811062547393987 -1.3769455562759125
Ni 1.8196466281432129 3.0823094124325965 8.508197699544313 0.09094043303531435 0.7630766787967762 -1.2731133548795945
Ni 4.88466506112605 6.428306261474027 7.436426229377345 0.68441737712166 0.8384285133652142 -0.639739317487995
Ni 1.6527355579780283 0.97751731545026 0.9450078929116945 0.6345780850020297 0.847229913706928 -0.1988318921026705
Ni 0.9358925794337573 0.28051958233484725 12.23561908504218 -0.15640354773513065 -0.10738855128900861 -0.8429397709720062
Ni 2.8251793599794977 3.90374999494705 10.501091149750668 -0.4500476971236959 0.32862683611133725 -0.7333608968998983
Ni 4.385690255320301 4.057701988882674 13.314266650214911 -0.9127771034801183 -1.1176184350016622 -0.3470724444110345
P 6.283137132629673 8.007463573212982 8.748132019468349 0.21746107716808352 0.1749460866240084 -0.6014185675309255
Ni 2.841426286644685 8.842330308202726 4.3214544498316 -2.1875416208098906 0.5430714950506002 -0.4637498772011368
P 0.9710606732298784 0.49878889114323216 2.8219153212740453 0.989819695487418 1.1904349047427565 0.9442324937759222
Ni 4.8706985655429555 6.245597024173866 4.797209155374148 -0.10410319566951748 0.3972228400131804 0.6360484988999691
P 5.944754130135119 2.5469118178176884 9.941988977747089 -1.4242065461454052 0.24215523748065393 -2.057208544909567
P 2.8555026825208927 3.1927775237265585 6.405912245080726 -0.9156192009146038 -0.7717425820018902 0.13876552293839328
P 8.825240812623674 5.78222991333669 4.269205102978409 0.1316978174583345 0.47380571877524214 -0.4888016779634421
Ni 5.008357841024594 8.939582909249864 4.9431539971207235 0.2031803988793533 0.050902443276822015 1.923390852894752
Ni 2.355648674370242 7.983377092305743 1.8721350081339236 -0.6371656432235479 0.7024328398624741 1.6767382417643768
Ni 4.038350378937048 2.106092583784172 4.503979604140796 0.5665538944432565 -0.2011111750551504 1.0729761137019391
Ni 1.9626818596296245 8.137493936681038 10.245473142163648 1.0980474548482702 0.7448030772985689 1.4480028772340545
Ni 1.32074508919954 0.5209365477128051 8.30997603587127 0.5133783388615416 0.0063434257195245595 0.11424774030268711
Ni 3.5793518047511097 8.353008411475392 8.187863988521997 0.6576938450838867 0.5860629110104616 0.7377124890003747
Ni 5.983402399879815 -0.07055507234269226 1.5684768349199358 1.9930777758679288 1.4217172040646482 -1.0358067037404934
Ni 4.9523178498947855 3.0690206353236977 2.1180488198390774 0.3666603938452911 -0.35396017266980334 -0.7650885670204823
Ni 1.8556114990644024 7.4052466003854445 13.206055158272866 -0.810301930332327 -0.15770221194189615 -1.7308687050601934
Ni 6.752750243458764 4.992101756001648 7.893723180691585 -1.5493812177732413 0.6099299474360463 -0.6282817104703566
Ni 6.9604160056533075 0.7419423738197006 10.538904177267705 -0.41145081068710426 -0.3673844164955092 -1.2013206984173246
Ni 8.748063331785154 8.230680226882999 1.5735038574940743 0.5505199809088455 -1.1101789480044817 -1.059395032583395
Ni 4.786331773863301 8.69335130253046 10.319531286349312 -0.639653442642408 -0.332215324793544 -0.9371107951294764
Ni 3.060521679322968 6.208972751493999 9.051147275967628 0.1224531589316149 -0.4564448588992913 2.3700410943011248
Ni 8.336697376305889 2.5406475011102545 4.818052661798782 -1.3161047708394558 -0.06796299830353457 -0.6074215791918958
Ni 0.4175808170547981 3.0679399491080876 2.7669981448055396 0.7102829320345122 0.7839931172344691 -0.5072310883132232
Ni 4.304510572140922 7.9371090689052215 0.5007377896744338 -1.057800177292449 -0.639047433627293 -1.7541631568117597
Ni 2.773517063858685 2.80523245677951 2.4562623927150824 -1.111579170786118 0.4498641203579801 -0.34646386429275816
Ni 7.503744738087861 0.17107629127416282 5.3161391069018675 0.2882782570909616 1.9542399770651246 -1.450393231843102
Ni 0.09269906556916141 8.080400734408897 3.7880222387918603 -0.7953733340469528 -0.9751230127071917 2.1962062384634238
Ni 8.889926293478362 4.0548171061884615 7.71335665130628 0.41063062877865414 1.1265640742307244 -0.21828691550348855
Ni 5.424623517905142 0.6905026257924417 7.617395378703218 0.8005314812091245 -0.5943711737658409 -0.20212238992848416
Ni 7.181800987771442 3.437763593790684 2.7338503847311437 1.1952814342017801 0.08654358951919934 -0.9464189599042799
Ni 4.318037466551566 4.577466266802276 8.789685320294328 1.8539543553694846 -2.6279852191849193 -1.0274002248443532
Ni 3.8704685228493663 0.7319799122490181 2.6117108623085934 -0.3837399750353972 1.2545993552358072 -0.16403715302098845
P 8.844711481220171 7.204156539062154 12.854383378669414 -0.9104412562580901 0.6643023515393398 0.8417884309763827
Ni 1.5583403645518246 7.3379601459270845 8.186229221661943 -3.5430030390700984 0.3635056502663933 -2.5261309674505785
P 1.717247030035288 3.839641490631204 0.8011438300480564 -0.6478987133703358 -1.042395926922237 0.8671942726439967
Ni 7.082991465905206 7.287268635728768 6.083783495937567 -0.7788545104563231 -1.4356659529352565 0.4867926179532132
P 3.3620697669091886 6.349846610549191 3.036221808679935 -1.891417642422265 -3.028049899522269 0.5534932046045565
P 0.802710825060691 5.173995899461222 9.250668510606731 1.0190212567520385 -0.07420769366166576 -0.7405561290967568
P 8.626110639860897 1.6949830623221704 11.302983217627666 1.6531931074545854 0.04159633538454771 0.8811484208312437
Ni 6.695666199544383 2.9819979198938165 11.848304808710669 1.1152638187265569 -1.629071274705717 2.280728940897853
Ni 4.265093000344436 2.0032167510727583 11.387710848603042 1.2048659925664218 -0.3296208245934904 -0.23802090359730624
Ni 3.3815038020746497 6.494402129423664 11.484381893932458 1.3098407922076152 0.44367341816623596 0.039128076349713256
Ni 5.663674972141172 6.291974947867501 10.01492155976412 -0.4142422573893124 0.3435094096501245 -1.1986356953859938
Ni 8.920854067631877 2.3582862814049506 0.08933886410723514 -0.3746984336584192 0.5600767713593452 -0.3402970733604139
Ni 0.12986551302838514 6.266578821800667 10.997836811277777 0.6658360145750468 -0.04612790470631411 -0.39720972738705784
Ni 0.12989756728054305 6.276726282198089 6.426755751505359 0.6113157720399794 0.22254054857352 -0.923843645706925
Ni 7.844966831487832 5.8651496844903575 2.2770626381083257 0.638069643095056 -0.177032793949708 1.2582971158023684
Ni 6.086607933470567 1.1298024882736726 3.4695650752744474 0.22070246692351667 1.788046954043398 1.3759731650603142
Ni 1.9809711000751595 4.8843262018889515 12.36494242329121 -1.1481808811695515 0.46818168772024527 -0.3145431043247615
Ni 1.0529547083144921 8.95399816436317 6.074896225567839 -0.9671929592268377 -0.8642303049196665 -0.46570802936877215
Ni 1.8936186837659397 1.6303250565407603 10.314303695740243 -0.3730200175147318 -1.0115532305097674 0.045801374604830795
Ni 1.8865209565023997 6.701609973730237 4.80545259319339 0.5407575022054429 -0.33239093113945983 0.01629770871875903
Ni 2.3427537066449973 2.5336688324975865 12.34354941540101 -1.5818951312405467 0.03812457478586337 2.761541172897915
Ni 7.88403638568946 9.034912255167526 7.431453241113986 0.7861217335416978 0.3040560887505086 2.1694834777565997
Ni 7.756506253889724 0.02491989146334527 13.113821337277884 0.521676831424908 0.7250845158237189 -0.37771408055629146
Ni 6.640258135099973 7.076782099344327 0.679093143695773 1.1587100628356495 -0.0873650569792302 -1.1742163860013648
Ni 4.0023305578693025 2.1130712523968396 8.976338146445691 0.22747706664318887 -0.3348396497902685 -0.5604634652748026
Ni 5.61679333877077 9.297839548082331 12.3474096631966 -0.6257874832935933 0.10085254994270375 1.1809704168957467
Ni 0.32667495793492857 3.6705140978882427 10.884276838404238 0.6337602170864246 -0.003343205440620049 0.624819205843053
Ni 5.506160377037139 4.044523112066888 4.049563872177665 0.15513753653851348 0.80446938281095 1.095569939842055
Ni 1.1354623533689856 6.052199983368477 2.527492436024643 -0.108329060825407 -1.1965194203739393 -0.2795943561637185
Ni 8.666389097286766 1.8543018539048075 9.028588409134658 0.1997844858239269 0.02763473099813305 0.7125071933793407
Ni 0.4632617897229422 2.102374290533853 6.7056698737249825 -0.2501086879997757 -0.7403653532421894 0.9293905436670832
Ni 2.623036087513876 5.422205711456659 6.737612393918241 0.13629392146944916 -0.35954975094243885 0.4081788248040519
P 6.420768933038035 1.9960549153049023 0.7660746465157369 0.4492825368228972 0.25748595430045335 0.00888598963572018
Ni 7.06455569173552 2.547333102274621 7.443248290072326 -0.578509524143236 -0.08956566417497479 -0.26993292181455447
P 6.223964983146148 2.4326429880535727 5.453250712589495 0.0814718314232468 -0.9170983565632915 -0.5624128756916894
Ni 7.245076081531183 5.284079359729289 11.83285007999167 -0.24940806238832527 1.0149352596081231 0.5897948672490682
P 5.21338599618443 6.183347666483179 12.811060683124316 -0.4914956798558374 -1.4024652978135719 -0.859728560394571
P 3.495845898700841 7.831275086637518 6.083420824970294 -0.19817214703148453 -1.3151817448045542 0.7869889666379994
P 3.249202165882262 0.08554638815906487 11.917256252609688 -0.6471893460081369 -0.3494142051703337 0.40565220172745625
Ni 5.520145189335752 5.728387928069139 2.2608166272789143 -1.4039105149005306 -1.0396821275354997 0.30393781800508946
