# total energy = -340863.92312105483 ev
CRYSTAL
PRIMVEC
9.23882235355864 0.00000000000000 0.00000000000000
0.00000000000000 9.23882235355864 0.00000000000000
0.00000000000000 0.00000000000000 13.52195038890775
PRIMCOORD
 96 1
Ni 2.464169452768544 0.5299979772543442 6.870814234560593 -1.9653764532979183 -1.448545380001086 -0.7838247099774049
Ni 3.8931565800396286 5.612002519060757 5.181029935057567 0.7002314613357811 0.24982046733539556 0.9166707821075698
Ni 1.414038712742762 3.621609114145661 11.437257382883958 0.40711721630875686 0.03725682746892938 1.0661017551796093
Ni 4.53014566315719 0.2655256014999251 5.292302311188043 -0.0910641030973722 0.6307625679106814 -0.7591590889099248
Ni 7.365318504191386 4.929290504236976 8.044925350830392 -1.2002313220078877 -1.289643491324134 -0.25350280128298924
Ni 6.623247055903779 1.1965291186511156 2.4855647175180424 -1.6435129040523437 -0.5567610767225508 -0.555681470505127
Ni 6.682837459925828 5.479231403370699 2.580110205821864 0.4507125844012044 0.14056940891635145 0.4819373467434411
Ni 7.767225753147543 7.949285985962816 5.402951990693544 3.229050517141484 0.022838338050754216 2.4247276872107273
Ni 6.851649221521316 0.8385035041110099 12.295495935371946 2.233755657472108 -0.7080882383760386 -0.7774100647003127
Ni 5.039112385261799 2.0314507313451724 12.17132431550572 0.5510992504510832 0.8478107259110624 0.07852817541389057
Ni 1.7815221097010652 2.260804495662597 5.54244434962795 0.5529838690683057 0.20742580441926856 0.5918823459057161
Ni 2.9000478514284342 1.423490027985329 12.436367650480072 -0.9239760575197313 0.1095469923929081 0.22840163533998728
Ni 0.6409091154317559 0.9239653823009585 12.515592399715711 -1.2117169540499841 -1.1208811649133343 1.6330929942706005
Ni 7.9827859557277705 3.078920690540203 6.300120168829237 -1.4975521489170918 1.6216893804193488 -0.30610885751447925
Ni 4.723070751031367 5.714590402201973 7.638049463225698 -1.0706150696689303 0.44931878937747133 -0.2625790525526445
Ni 4.277500827748357 8.814132144180503 2.5974985933272747 0.8821313535698033 -0.5373752159967713 0.4292083917808415
Ni 2.9412529990157736 7.63301338117416 7.538203662551729 -0.1932716244060736 -0.8816582705881267 -1.5327178981849472
Ni 8.425427172332487 6.503003783291844 9.718036347676273 0.47521519752825897 0.2694716659074198 0.5858443672417523
Ni 1.7465808836527872 5.690116761852452 6.515376414154841 0.5954757196839293 1.0027335753356086 -1.6324347918613114
Ni 4.9563325371939575 8.479335700622203 11.737769480661573 1.2476406645297868 -0.36248440809073057 1.3973634578106322
Ni 3.371671253679225 2.09281498925439 8.08000053980244 0.15210414902882838 0.0683113827818888 0.17991242949034822
Ni 7.9628023830301435 2.219045018735517 4.216103310078754 2.329675288889568 1.0260079724825169 -0.5597898362465457
Ni 0.9628423466613903 2.475145173695396 0.9950590440048461 -0.592363913527825 0.28577374550155293 -1.2764483327900984
Ni 2.845926830225152 6.081565663932182 0.45481336502317526 0.44453062396020865 -0.19395296674381438 0.4944884439355742
P 1.2386951037606717 7.567316115592641 10.684355263180064 -1.9642266559641912 -2.5157336833766544 1.5030501959171856
P 3.72167479879106 5.6125660872228265 9.504565042824632 0.32084796349686684 -0.9257303212066765 1.7196065018828126
P 6.76024031339819 6.729059288037816 11.6012658807506 1.96352011681547 1.193557509532138 -2.0015634447414365
P 6.83258029223426 0.34999430628950606 4.45200739942744 -0.41801586549913167 0.4197446752647804 0.33924420661586735
P 8.082925550951801 2.8019962300507575 1.8374982864280103 0.617603404820904 -0.09666550844454966 0.9594724506541282
P 8.950857475827375 6.11612809826497 7.515175897896697 0.36120939803304886 2.348014196408072 0.3139496937151367
P 4.971567355214479 3.285907265999118 2.4122352608105366 -0.07944014570519867 0.040854829232832866 0.5638092418185838
P 0.5135242331595044 1.6709149287782774 8.113142967143261 0.47466266745889857 -0.3034261684759935 -0.3523853719835157
Ni 4.931720314509502 6.319613160061194 12.420993326242384 -1.5273134393399244 -1.7493479948113035 0.4416874980844587
Ni 0.7056547823133877 4.096992717084355 4.707788815016968 -0.3168252154907189 0.15192854268291253 1.2419413001521642
Ni 3.597477310222313 3.254458314791202 4.025903674791632 -0.8188007118319576 -0.12452238275581781 0.906228246618007
Ni 1.8047577478585 3.3880794021355287 9.202674512755529 -0.8817765413335458 1.3868895548625018 -2.0033282499513434
Ni 3.3013915322225222 1.432377775065827 1.5717916040104367 -0.09534447564028095 0.9943294104323134 -0.2102064524881993
Ni 8.941424638229465 1.0535952983991572 6.166698640047218 0.5794140382353763 -1.2259084150590178 0.5025743062675022
Ni 1.120281117969879 1.6094675214680987 10.456456613379457 0.30946774668438315 -1.1132984674700697 -1.57810275407765
Ni 0.7549060202670537 6.581653877778621 13.374142300516185 -0.30655134436853654 -0.7024130423681323 1.1260243996771704
Ni 2.0423063475817473 8.903711765482488 9.458482720929812 1.5121454733502344 1.5218645004102112 -1.5131070659325554
Ni 0.4250920735907823 4.155298924802674 7.522801621847053 -0.2588311554744381 -2.028196473947933 0.18673228062565905
Ni 1.7623330757237323 6.0517427454541695 8.82762913972094 -1.4270301316371294 0.35274661197767637 1.8966570364443334
Ni 5.478039595290259 0.18738456612347618 0.5538914195616039 -0.8638400114597833 -0.4221319445500343 -0.019086841428121965
Ni 4.433461387484205 6.428834517634632 2.8160133712883164 -1.4554549626367257 -0.5613191284068785 2.2779524065939802
Ni 7.412898439185735 2.526161950596134 8.583044252911925 2.215751250474887 -0.21521830388049387 0.7500332153492566
Ni 2.7788067860049677 3.9848611304772823 1.8453947078726063 0.43215976109968157 0.6609156944552941 0.536627024976837
Ni 6.327484636685503 3.547661580224345 10.433225594633187 1.1899075714843768 0.6898748006918054 1.2578389452190273
Ni 5.067438614522512 3.4269194112066446 8.631142485838932 -0.2947165565171376 2.3303962262159934 0.11699239292735981
Ni 8.920618810344557 5.286029150826652 11.716134006531522 -0.7311011543314441 0.058813470593782585 -0.06501599986006867
Ni 8.32904777779636 4.431151681901955 0.5252464509305395 0.2459789821021183 0.7831971036957349 0.24262035004253057
Ni 6.019120463810471 5.899145117046077 9.64158324513933 -0.9399883737875876 -0.5652719424070394 2.605650817353777
Ni 6.633067924039506 7.365882072353455 8.010984689240344 0.29919387556220084 -1.244297973309799 -3.2403584859551358
Ni 1.3018516932017155 7.525602832777206 2.1965734311846905 -0.4189476332847817 0.0842679061111452 -0.6917977287461312
Ni 8.358381038690935 2.900297299631317 12.437828308290285 -0.15288704994143992 -1.5400661110199025 -1.7700682580777902
Ni 3.528454068602354 2.7212489228952976 10.367062692406286 0.8435473226490182 0.028209629664996575 1.7576004646280825
P 6.4912520012893555 4.083300782392777 12.424508698138567 -0.9666190890012385 0.2922215580094258 1.862615373478592
P 8.853378661434096 3.7540568710542046 10.069958796185839 -0.17358340194852687 0.7316305444723529 -0.30480942197676536
P 7.405461187210891 4.863787253924365 4.495710724572541 1.2562458897002946 -2.5359055303388387 0.34049916206889097
P 3.892509862476598 0.5379775480999014 10.703989608393655 -2.3386420111645534 0.7730692712331139 -1.5712001134205456
P 2.9499559696496918 0.7899294718340597 3.7745033087505147 -0.8695046659447283 0.9899546784033855 0.6886440136084978
P 5.880297919494916 2.0063488510772793 7.194867775514734 -0.6020605719902986 -1.5394935263458842 -0.5031772299588237
P 4.6138401546356 7.200544107953672 0.947029178363074 1.1001202782168988 1.831225546313401 -1.1661022415346627
P 1.6354563286795756 4.295682830091828 13.396426339973734 -0.5031975416737979 0.9540263399378924 1.0166116188692815
Ni 0.7428687586545997 0.08936805227064966 4.23151828513469 1.3399316980557245 -0.8400742764987531 1.9278905405373183
Ni 2.550635590945655 7.805114163518772 4.133768773247172 1.2523712372362368 -0.7057315652184039 1.2756623465536934
Ni 9.086769791109294 6.092033249630938 4.050405955490373 -0.0011773081375528111 2.466419924743191 0.6000772230116826
Ni 8.886102570123413 8.390624528619146 8.489148253817833 1.324694826501312 0.11683349875199232 -0.3429190843642933
Ni 7.135641381092446 0.2820797233490272 7.575983978701709 -0.27005942009008976 1.2749768904508947 -0.42412532083097926
Ni 8.918734090589442 0.9531046279266244 2.5781220112566627 0.8482190170930747 -0.6934404065558767 -3.7130858840645344
Ni 6.260281443064358 5.818517914580894 5.860602598053955 1.3546767175753829 0.9227162169707013 1.3587758273454211
Ni 7.945285575894359 8.119252600349428 2.97446379364183 -0.6178355754363681 0.2867600206742223 -0.37491723453744463
Ni 4.6856812370659044 0.11705865055512839 7.7122713901701845 0.7410896330027237 1.0430525866696294 -0.36760270315390237
Ni 5.8731747874792575 7.5418169659646015 4.492194428794123 -2.4155455064908273 0.38928378767176186 -2.7438332140951904
Ni 5.568293650622258 1.4326641785580263 9.796910021663411 0.1138193945160169 -0.820317148476484 -0.5565314772102479
Ni 8.616208853426338 7.938735250863099 12.254822020068522 -1.0615439606055976 0.8628501367426881 -1.5049813515016275
Ni 2.4790531955405632 5.83047295067462 11.60121137169886 -0.0007335357319148657 0.6811214799792077 -1.1742037875958746
Ni 6.519883111686927 8.515348630060645 9.827685462723542 1.9040692697480048 0.7085934601472312 2.43145112197749
Ni 4.401199419911337 7.738021835765574 9.242023580936973 -0.4821034400076601 -0.7157323851848577 2.2586141112766844
Ni 6.19521241740121 2.7838881382859175 0.7337537365448082 -0.057579341076365344 0.05365583765224308 -1.2801566348796212
Ni 0.41885771628317314 4.550692804016886 2.417481064128943 0.8160773993635236 -0.5360464698830186 -0.2075348191933071
Ni 3.0913931006843525 8.563464416750076 0.11498268717780208 -0.2193603510733254 -0.4272713226591287 0.0335706368665938
Ni 3.72416928081989 3.7436909124010667 13.130246629852916 -0.4728801216371791 -0.40103861421484477 -1.283299808494293
Ni 1.4062411466970863 2.44776130431224 3.2784376781461217 0.35532080046275577 -1.06919119273821 -0.014023567972601653
Ni 7.065176883189164 6.3394211951345705 0.2562461283526775 -0.3885188844812793 1.4241291559402505 -0.39029808786888914
Ni 5.425212009213037 3.8796401829723015 6.43859810507192 -1.0401955768368085 -0.48886801242500316 -1.45074932963094
Ni 5.817473927657717 2.598779094102074 4.567214589987836 -0.8263085901732286 -0.3697369758880858 -0.5306373830523055
Ni 4.966181121796672 5.036978217303799 1.052202083991944 1.003058819885511 -1.3406765466415491 -0.727194105967554
P 4.915644763657042 7.568840521276927 6.4009942504284245 -0.37394407199089796 -0.05846251501226706 0.36003363255739285
P 8.38236502145702 0.9011186985635744 10.749058431478984 -1.0824035776634262 -0.862476041232721 0.12373382541625143
P 7.606691976358839 8.9480303961947 0.4994091604052581 -0.20720957464340442 -0.2545613244544906 1.016488977248488
P 2.7562732983445364 3.7931093730388876 6.914233003977961 -0.009002717719242558 -0.04897205902332856 -0.807044599737294
P 1.3427704372968563 0.2634533336515304 1.041964544969179 0.11857182159933771 0.11456012933678335 -0.0011644526217463817
P 8.584556648127183 6.406291791151872 1.9184128162676248 0.8554013937741268 -0.26922509711425247 -1.7276697385069215
P 1.1666507672391297 7.826945500682199 6.051383355265572 -0.3421474963055914 1.0952871184943138 -0.5057185083234387
P 2.33699706340986 5.516288319732317 3.818585425611105 -1.337873015754483 -0.6171524333264146 -1.2314645689905566
