# total energy = -340872.52821724745 ev
CRYSTAL
PRIMVEC
9.23052732281143 0.00000000000000 0.00000000000000

0.00000000000000 9.23052732281143 0.00000000000000

0.00000000000000 0.00000000000000 13.50980977293472

PRIMCOORD
 96 1
Ni 4.320542226340042 2.07633331156466 9.1247280933789 -1.3123417042525978 0.16315783573982867 -0.5353851821499359
Ni 5.627649530670656 8.262411293494035 3.474358542378181 0.36795263029415337 -0.2170545857582842 -1.2387521037909053
Ni 0.2585793814561825 3.2480010862361244 7.152525285326667 0.5514216667875084 -0.3185666236618578 -0.8630270286401845
Ni 5.688146407750057 7.184368759014266 8.853465044117591 0.3813866443118722 0.7339111129764134 1.5957824307456001
Ni 8.526496684589805 2.447095908703556 3.9348538662720354 -0.2764900062067819 0.18636075621885323 0.3318296593193511
Ni 4.1589710733956045 6.29759198437006 4.553846577460733 -0.6736351989044915 0.9348914188806545 0.749029970895723
Ni 2.8185323343482196 9.188694725736628 8.46730038883181 0.755502465993944 0.4348727891554704 -0.9394479279030853
Ni 0.6268220445940603 2.9595009499656477 11.582540644482394 -0.47469094959367275 0.11843246780799603 -1.0587512283518088
Ni 4.213523490780296 1.3165501339388261 6.644259212584931 0.09991718261262793 -0.7102770184972413 0.17391224604285532
Ni 8.830144116448823 0.7092349630603438 6.467322000550763 0.45623608532259485 0.8839799767427678 -0.15714299700431647
Ni 5.660094834749706 3.2242140169298046 7.6932154319342585 0.09305028028946556 1.6206681382436863 -0.8287282553583146
Ni 4.5795785189063 0.386062196430796 10.625154949908545 -0.27515586077639065 -2.886653623829248 -2.017189067093836
Ni 7.229939873164556 8.257925257140572 7.065981705814758 0.9120739067655065 -0.091013709475411 0.8715463789651055
Ni 8.590861152681759 3.7425727484140827 9.532183883341423 1.3306685275862438 1.580402348745104 0.004399671729592423
Ni 3.8904550291112288 4.373285460339387 12.123284328149348 -0.3991162003811513 1.2151231515180556 -0.3523609465034835
Ni 6.425619400465774 8.452117094186109 11.875311745816134 -0.3407444453104777 -0.19487213612397405 0.13515389432773497
Ni 6.447837280101128 8.516656942300113 0.8582535216898174 1.468290166728181 0.5331894600501978 -0.5851987632379535
Ni 0.7271098795181196 6.039367978221714 0.2954922608337423 -2.16371880735868 2.0818898497063305 -0.27094336535693986
Ni 2.1908564659626055 7.841582315323909 0.7313531529989558 -0.5123529829208209 1.1472671111060306 -0.40480990833181896
Ni 4.779050217668257 4.12594424608555 5.423080734636308 0.15112970093070102 -0.818135567444133 0.005538927540358202
Ni 1.3087595687488633 3.8224445026661527 3.5610239648527777 -0.12389991868047048 -0.7694956949492425 0.9589263483426711
Ni 7.539568686828189 3.5073050640991923 5.565014863427752 -0.7596038897568272 2.3562946912493095 0.9128894606882666
Ni 2.282580217494192 1.3369495996613585 10.551539647179885 -1.9293519555741936 -1.0435608937646157 -0.011212323776051657
Ni 7.846603722270994 1.7217149069817401 13.530750542465588 -0.08954766645284577 -0.9807568139542012 -0.1550596321127265
P 6.593818072138165 5.150006655884155 8.960165326479407 0.053013576082553866 -0.7342677249848838 -0.48548315511317036
P 3.8069649080884664 2.4115676084474353 11.315695325671221 1.162373884840482 0.9512230661611425 0.014947365338451675
P 4.582938430907658 7.9148080897930715 1.2547415989050479 -2.1564886081588277 -1.5453106472482936 1.0971015459952331
P 5.837459420206023 2.927277178546028 3.9571178985447717 0.1943337471220008 -0.5051708633500848 -0.3761210250375587
P 7.701952126190538 2.9170774456847615 11.646306974393887 0.6395369716692018 -0.08587973068295532 0.4192127140207103
P 5.904454588628711 1.5334675296309135 1.0700488976853286 -0.4612114270499992 0.2773855214378578 -0.7047728008495604
P 7.942370444837182 6.772613389353302 12.338752531027664 0.4197845273637803 -0.7531892444797351 0.5913213311959236
P 4.698550787547802 4.709082819398214 0.8951137870607625 0.05025426816986184 0.24999324546783394 0.20244789158870294
Ni 5.045544776435332 5.6760451862286825 7.22465447313165 0.8245345289919412 -0.1539957096245864 -0.02005100511360418
Ni 8.78045618704412 5.127982617325801 4.466667014605709 0.19025057819156269 -0.6778795760031423 -1.1007787377365044
Ni 0.28086925920585276 5.616868274578385 11.0063341973044 0.06830726901683075 -0.006583823865104791 0.24945639912775752
Ni 7.019936142552187 5.847742227814576 0.5117607504442486 -0.15741836215289018 0.203327723090495 0.5787517220610291
Ni 5.502086665411104 5.749686334434276 2.6795759737206164 1.7893679868476668 -0.4871276326951289 -0.36784695795422456
Ni 6.285010775419919 5.739809670034679 11.06993806993231 -0.030583272103495717 0.4292533860861639 0.5993177191378388
Ni 4.303908815827824 6.502795840694775 13.105312761926566 0.22184352250649536 -0.01964399948317262 1.4947740719513225
Ni 6.991321507375784 0.43794053000561467 9.391979555399029 -0.4605655659358842 0.04547253051050233 -0.17707058916617893
Ni 7.631098597282774 5.500314404135663 6.814996279313294 -0.5813212825604183 -0.14235452584123226 2.647761373370582
Ni 7.6660822964177955 7.2250200020197095 2.665972022326106 1.0172680215063576 -0.24160167897002907 -1.8568481319775119
Ni 1.4878594933707174 1.877756973967899 13.42103741593552 0.8257267495278295 -0.9402819937686063 0.1540011089412251
Ni 2.115932274437811 3.731339196475476 9.991288166744605 -0.030865065009972648 0.8660748143275728 -1.1060376721425984
Ni 8.267349625693834 7.748981663682078 10.516482103825053 -0.44964891902338044 -0.010220906397059817 -0.3748832959757157
Ni 6.587975148245693 1.7322469388321518 6.145558735466841 -1.5119307862362672 -3.206332506718678 -0.43979285216490716
Ni 6.557440563354229 2.8974256526878057 9.881669191594794 -2.149188474952989 -0.2897478996579526 0.48490619956377784
Ni 3.561922095176217 4.220649457991968 3.1268319520552716 1.0506393978779518 -1.3604820114032505 -0.0762244669813784
Ni 0.3852619096986043 7.676715864070446 6.8287765337826 0.043965864057988795 2.2395005303756848 0.24393161265478633
Ni 4.443262089136907 4.512131054637275 9.782548095343735 1.4790129524623237 0.06314937896497512 -0.07921723106111518
Ni 2.1074678807420812 7.035157282360538 11.962423002767835 1.2115637163015713 -0.5506868455040128 -0.495006007001941
Ni 1.3692379847733127 8.382777371784453 10.1008932961032 -1.1115645154980984 -0.25335213463773787 -0.20296339777254077
Ni 0.1981092729064619 1.529073798552214 8.933943244024851 0.42688385741272283 -0.7390319791427465 0.5672138966247586
Ni 1.4965084976159722 7.076343895959606 4.628501237583221 1.0026656982121507 0.2386459387758148 3.290802244427984
Ni 8.607309952644453 0.8233233596141579 11.167195522685915 0.27579992211829274 0.9661130958990974 0.40412033846396206
Ni 8.733122042145864 6.274118752997934 8.71465175666587 -0.4446509515881568 0.2020354866416327 0.4370420288926473
P 7.047387731266582 -0.1358133660219373 4.8952256364844535 0.5455929759208733 1.4804476280263212 0.22849033839905164
P 2.421545808649271 2.3650734415495185 2.0104218070676847 0.6780716374092902 -0.510785638433701 0.7253457399049056
P 5.143656052980489 9.195174556024963 8.237255336962987 -0.8329212103937397 0.7934298371673367 -0.4322808600585781
P 3.9138359552085933 8.738171140675377 4.4939570690892685 -1.445994074334142 -0.22081173880787133 1.1969076569512933
P 4.578747771433436 7.321922079465478 11.219060010469518 -0.2725590465834919 0.6094951738914729 -1.7875674433038184
P 8.45160018464744 5.060719763606302 2.161028939475822 1.3991429183085582 1.6001142253517346 -0.17938201090817493
P 8.807003184065842 8.703279746815118 8.597913275673621 0.796061618363229 -0.7686042934832247 -0.14081854881268005
P 0.24484066436051852 8.967097452614079 1.7592065404320614 -0.4563060193285819 -0.24766588288623798 -0.10881268533004484
Ni 2.157423495443595 8.89857001663033 2.8653901840287013 -0.036755205242162504 -0.35219768145274183 1.5946388040594601
Ni 0.046650162812265535 0.16274158382842777 3.981354494539185 -0.46268775448520966 -1.5549003478192576 0.4937433382394336
Ni 0.17400098124396854 2.0284268739628755 1.923108401564255 1.402108171584469 -0.21970153646282808 -0.6629795189628582
Ni 7.990323035076346 7.169313768700487 4.844158666274798 0.6914632282248478 1.1459198530495167 1.8116213989292285
Ni 6.373125390708288 3.7129335246878155 13.18117015977921 -0.6239817975434221 0.23183765760472977 -0.028627691039021665
Ni 3.28213557684333 6.626051074085261 9.425902666927028 0.9810108389465364 0.918838736293166 2.4567574619527623
Ni 3.3115809594925967 4.277204899839006 7.735379558393063 -1.712405099038367 -1.1368137769831905 0.047616573436698645
Ni 2.2325230669904386 9.015806946106297 5.797384162115097 -0.17742334451990735 1.1344653313556718 0.06085698338637261
Ni 7.295005861344706 3.3510783865635085 2.006220070960491 -1.5240070006745108 -0.7128910590813207 0.655650846511929
Ni 3.2885415629118535 6.288075310542037 2.18388741771803 0.5307445980541311 0.6781580264755095 -1.0592428232762467
Ni 3.6693100518350152 0.5944921221084631 1.4056007247132876 0.6099726277485237 1.7964102384064289 0.6939651687110951
Ni 5.221007873231541 7.836367067299823 6.338167537050199 -2.242210215997364 0.9740968854355223 -1.275453572976997
Ni 0.5699306115468855 5.5775923801669025 6.653878345267939 3.0014911751971343 -2.152006404017758 -0.4743500213144863
Ni 1.704075368974609 4.2356029125035075 1.259646701205932 1.4041524557080076 -0.37120687556539295 -0.06211039617749949
Ni 7.466130610227073 0.7441272799733507 2.5092173586187796 -0.8117983123721955 -0.5420348262559698 0.12480237589008182
Ni 4.0441156200085135 2.7245840256948557 0.14967761829127837 0.07537677426910244 -1.2370415488577016 1.2984878290886412
Ni 1.0874299809231243 6.3375417072873095 2.783736937973714 -1.9325619778710588 -1.2736157484373098 -3.174288590909256
Ni 8.999127382956697 3.8327180797472287 0.07340392364945472 -1.6121307901966366 0.3349244961945909 0.4257402307265829
Ni 3.9040885181936638 1.591259862159771 3.7598338347946876 0.28734263265056964 0.3893789184887294 0.13501865430145135
Ni 3.9786619496743603 9.062319574059167 12.821242355791947 0.020773742212241642 -0.6285048822247563 -0.7485908264757752
Ni 5.713299595122863 1.6381601722666432 12.000020787284132 1.5704496084077664 0.6174527381756527 1.6009197519721654
Ni 8.771677955414198 8.706316590354808 13.092100184897049 0.39693230535595514 -0.7337414201677686 1.0721099090469022
Ni 2.7247963278268097 6.985626271922932 7.293528053895757 -0.06641056621475014 -0.2709600775274882 -2.139668451277696
Ni 2.677240650269123 2.785302435433687 5.634184744123846 -0.4000590239103949 1.0705595338406464 0.7192098022104968
P 1.6924725959369513 4.733220648748631 12.472283187604722 0.6762528390329966 -0.5449154902378744 -0.3937819326524315
P 2.6432446175740605 5.095823459598516 5.860744348817635 0.175457221932472 0.5166009595638974 -1.4708399297332282
P 1.5670112664796387 -0.07098183323968435 12.293318951736767 0.45584964851745363 0.03990917749011191 -0.5307631099968924
P 1.5523254972649105 5.702758332744975 8.757869086309714 -0.5946809916967758 -1.2991915400238851 0.42616034898313704
P 7.641141411176943 2.3950818863748364 8.001063676847721 0.027293288498314285 -0.213904984385709 -0.658932088366362
P 2.0278730423142997 2.021660897322777 7.9272323797761155 2.0055561108405975 0.5445815039372234 0.08104734229131849
P 0.9745221688335238 1.7615077109318928 5.055816507410913 -0.15082708208861767 -0.03271600217578236 0.14822409724813182
P 6.416831938308374 5.769698118002807 5.31954190793511 -3.014046129044009 0.15850388190758508 -2.603835618521909
