# total energy = -381170.49773099425 ev
CRYSTAL
PRIMVEC
9.21647291793252 0.00000000000000 0.00000000000000
0.00000000000000 9.21647291793252 0.00000000000000
0.00000000000000 0.00000000000000 13.48923973074996
PRIMCOORD
 96 1
Ni 5.827391585606916 3.5732450378360423 4.7071781326191315 -0.15069467027581143 -1.1804340847763024 0.20168350261885268
Ni 5.297048076385403 0.32564932917518097 8.188778248947866 0.9745350014142055 -0.9263137045139723 -0.5188918124806031
Ni 7.255465653119128 7.59295446358562 1.8639293732877817 -0.7130810636049397 1.5509467624881483 2.708734056399212
Ni 4.706115473275453 2.630104916784725 7.021014246507904 0.3223721134508771 -0.07981167011200448 -0.7992680411156686
Ni 1.7118677059382372 7.248184639402689 12.105311102098987 -0.0065714825699306175 0.17810931484333842 0.1246105715942499
Ni 2.979446111604812 4.800344693828444 6.380248173569118 0.5744644075395848 0.47900680336020723 1.9616339555363504
Ni 8.04066307536209 4.634881353004125 4.877196254429101 -0.5986998830481818 0.6429853352291185 1.7951483409748699
Ni 7.6291383368144 6.563833865368921 0.14111894888685214 -0.9281160478300339 -1.8478587839947078 -0.4242384493700758
Ni 0.3976069425816244 8.335774542704304 2.758508819439681 1.3685640170804365 -0.4327351739871773 1.2372834896651788
Ni 2.2887912699988373 2.5397466149164223 7.574451472272808 0.010411168030994972 0.1880402008038052 -0.7148540963449623
Ni 2.8581296767320596 5.64426948240197 8.780618674654106 -2.746435427604728 2.03573649107872 -0.39134478396584865
Ni 4.305309492895126 2.219566340854323 2.7684911814096482 0.7498666078644053 1.5771470750326 0.3262791618147671
Ni 8.76701331712473 6.597658321494653 8.741458802274645 0.4887865084547905 0.017393255775782948 0.9630611964466512
Ni 8.521200764173946 2.109512436059403 10.706841267698891 0.6236149011223067 -0.16934673815935997 -0.2969300192286886
Ni 7.102988322834632 5.16528937753705 2.6707753690985196 -0.7761702787559408 -0.41297907440617265 -0.3186707533398899
Ni 6.551852450392505 0.3748081531761144 0.6398057164460604 1.4983772159215485 -0.8473381571500181 -0.9857380692188765
Ni 7.428845944300941 2.431563654152435 2.0106657625039617 -0.5275934540196591 0.8811057405187663 -0.37599684075486856
Ni 1.957385331751141 4.785515388676864 1.9643437689105214 0.47810511748154433 0.658128361518144 0.35100366114464066
Ni 2.7542231594673474 4.797294041245988 11.973858390156186 -1.6974327939992508 -0.5200428953659108 -0.4431003192715853
Ni 6.792218067765549 5.552408895425086 8.191394805649253 -0.085579168723401 -0.6438348277136073 -1.0829386242312897
Ni 5.562482500478335 2.3933521568507237 0.15924314315694768 -0.7107117920418147 -0.18865418023872027 0.20763637776817787
Ni 7.841854535011097 7.1020666755287545 6.7581770245229364 0.26590760270524527 -1.686172133483767 -1.711360974044569
Ni 4.962508537297721 6.175009299965011 0.7699183532061147 -0.2602612030527453 -0.016759478846525976 0.5023071686490447
Ni 7.880259578247043 0.0652729054969085 11.8362149732598 -1.9689346029628216 -0.7079527412394389 -0.510142091312431
P 0.22201008962917324 1.7958021260845682 1.325908542008302 0.06630335121292452 -0.14326289658811459 0.22574285756090154
Ni 0.07872066133697786 8.852477671798818 9.73254025123583 -0.30114277175845555 -0.3212341431916919 1.086434296089374
P 0.9845773839236031 0.5922431855789081 6.290194015311756 1.3426822642176683 -0.38317638922244335 0.4891210089760738
Ni 0.9514349468042216 5.694029220446335 10.434736882053317 0.2900569462579392 -0.20107569383152468 0.6905543432573332
P 5.741982529771181 4.669839435316087 10.1490474151191 -0.27105366568255895 0.7317490723280882 0.44658776359955343
P 7.530098117324725 6.8501804668322315 3.9475315386370293 1.4345140987190004 0.31939091933536606 -0.0427967834505521
P 2.0194029789636874 7.561259012736468 9.690143553518126 -0.006107141339002385 0.10052524851027203 0.1468603841313858
Ni 0.916832620352329 1.3816967750804177 4.182649296250403 -1.3211649589711827 -0.3824323119675672 0.05153313488228544
Ni 0.8416179053669121 0.3355883737217719 12.283908838679377 1.516282892557376 1.129404886113629 -0.5577026147002138
Ni 3.093315636246068 7.326662907498221 2.649489002921956 -2.0914306993172302 -0.8178429759043786 -0.30211542008437003
Ni 6.767204559884013 8.544564523377959 5.00043432393461 -2.58805393020762 0.4013211784522701 0.6508110019211244
Ni 4.168619980960325 7.932775041735985 4.924328376004409 1.0642166223417542 0.39583547274735054 0.5021012232858256
Ni 6.635012686801899 3.2166965610839875 11.575116899741026 -0.3817895361772457 -0.6638855757168953 -0.11031986600319066
Ni 8.959158347454224 8.384723231119496 5.0526917261779065 2.240189328912593 -0.805780902533522 0.350770462087912
Ni 3.4499654942017695 3.850771474582097 0.46557197985900317 2.0906172022769995 0.6398429329453948 0.9245275591478271
Ni 0.4072639630526165 5.8994644049265945 3.4007854723128004 -0.5093748741291034 1.4432008278597208 0.6201081735206287
Ni 6.030412054145775 5.916422715354754 5.12195905109849 -1.2894843400384504 0.243029155445175 0.3718817901452305
Ni 2.133466049539178 3.4423895533474504 9.794308132028483 0.5158093169005374 0.2317468976631364 1.1344082528654915
Ni 8.260890699101695 2.089715451929138 13.022634038818042 -0.33392048041010874 0.7060789212554937 1.226494369469475
Ni 2.0229605375643773 0.31495453383776995 8.55012758651624 0.04789810923285945 0.03537195174139069 0.7632142328159048
Ni 1.9604452008066569 6.490009916168075 5.296091406481901 -0.6153367202739145 0.6342692955123592 -1.6452162598966955
Ni 5.6624628002200055 7.510467029709518 6.941670551592152 -0.747954478443357 0.3403536376299622 0.3735861744308469
Ni 8.096782179817017 6.851203495341757 11.653354617889722 1.2534606136456736 0.3527502115221022 -2.6525485103465805
Ni 3.348123466902224 1.5088472373993793 0.5854515665818913 -0.3116513845992632 0.2688692564367305 -0.4311542026533026
Ni 6.6973989929367965 4.318608863518949 0.1783276939197683 1.321745514065001 0.6240126507813575 2.0707369184133047
Ni 5.575966200563333 0.28643876619389724 2.718526837663377 0.17352838034087534 0.054197569088326014 0.5528036347366996
Ni 3.940558355120755 6.488590579317023 11.166500880090686 -0.7311124671853537 1.5841445893963557 -0.6171820010127694
Ni 8.472528569950516 9.088447031522824 7.4509839125881365 -0.2847586739734773 1.3918782663263447 0.5002551712160224
Ni 1.505649121247982 2.9404972964583975 13.136294349520863 -1.1943843763088076 -0.7886753532014869 -0.05041110546270027
Ni 0.052014087354544186 2.064102873298782 8.529529690877167 1.5536495061312918 -2.0347502159060507 0.1659773074664948
Ni 5.227519003629948 7.293879912828133 3.093730377533713 2.1036781492260155 -1.6361284386628143 -0.4911922896828057
Ni 3.317441828089538 0.48564730147564295 6.674799279349355 0.002353587833841108 0.23355386896488808 -1.0153733755868062
P 5.30002499718339 4.151938164723928 1.9392132118211396 -0.1961774851989589 -0.7212952239846158 -0.37417058617940724
Ni 4.086206278868692 1.7989357269245545 9.24572706591825 -2.1675808614172474 -1.684194698042422 1.7256161984120022
P 5.118746188590199 4.886186923897943 6.920465290378505 0.0013554855866299235 -0.13474431759414213 -0.3864586595181409
Ni 3.440518609316517 0.3024652911958139 11.86235657744373 -0.6748798699448699 -1.3042995506744117 0.4088917917106764
P 3.338639716124737 0.2565561955954072 2.4096634708701563 -0.5275096360566012 0.3096384679342925 1.1699522114083722
P 2.7647022893351827 6.108282035019427 0.22026080304261633 -0.2828717413634096 0.640419117163839 0.7839378385165016
P 7.274423938201043 0.7326533876875398 9.21263808434261 0.6180561760876065 1.0693693701872873 -0.25064219190574255
Ni 4.901523135067758 1.0406596224862936 4.960722384818928 0.7410250983133754 0.5338173234421839 0.13531638804752824
Ni 5.0391066448892605 6.490701151647484 9.108973038672039 -0.9985750730825449 0.20163490876910434 -0.01067933409071709
Ni 0.5532261685318588 6.723573776423738 1.048029114344096 2.1397003329568958 -0.8523721200294998 -0.5291937086272435
Ni 4.094058713914776 3.9036371640472725 8.817795162031315 2.3847889420342607 1.6260715686474447 -0.4218113279858219
Ni 4.069275617859709 4.865818518438035 3.607562575270418 0.007212972808671449 0.567804479020906 -0.20980716016725157
Ni -0.005814672852785797 3.590277080048672 3.420817476506064 1.2052110346106664 -1.7895682757839309 -0.3138111112547434
Ni 5.142948646842561 4.996379075788745 12.222384272775475 0.10056587194022035 -0.6101320361445234 -0.4038298038067367
Ni 6.203718613543119 2.847337186780225 9.130286132620473 1.2916556366581562 -1.44387497110861 -0.2754980746071578
Ni 1.961661775250416 2.4033520301195024 2.53893095705072 0.2648369953488859 0.1514048089689586 -1.243600175911826
Ni 3.7602288432526194 2.5752300361927345 11.827405868310215 0.8468609604032834 1.1664262005329846 -0.2704972789584567
Ni 6.815028838586035 1.6201730154764116 6.886634382721633 0.8842792531507415 0.24156414086387432 -0.36573505381754434
Ni 3.3185201554374153 2.997031142200969 5.147035230996825 -0.7195057361843609 -1.6819640089396901 -1.6089261672164097
Ni 8.94616312044134 4.664116005546583 1.3653946775340435 -0.7625434320011254 -1.4391731947575666 -1.4117240974076783
Ni 2.12005608123865 8.690958981443657 0.7618226032712802 -1.0902287301348 -0.8017836084486708 -0.5698317938635798
Ni 5.7923874209296615 7.917890437746052 12.043598520144686 -0.20581192296492942 -0.5891682894086627 0.28167669261404393
Ni 4.433353953100789 8.608794124124612 0.7025791144494271 0.8754752817058665 -1.0492430317510575 -0.5412727512789646
Ni 4.07804970021167 8.428916219436356 9.908008995212763 -0.21427008103461165 0.7968537752472212 -0.7404026342380281
Ni 8.965038457265727 8.743078136591073 0.713896021718306 -1.4579180794652375 2.7660886830592815 -1.927882055896886
Ni 8.063860938051047 3.6489491475408804 7.827819689837183 -0.8660431897586891 1.6408366427717613 -1.3685406200416688
Ni 6.816927432036145 7.947631996306742 9.773723139451693 0.22145425748787667 -0.12760950632157378 -0.2457193006828284
Ni 8.696636328847868 4.551380107091557 12.471031812839142 0.7445806768751176 -0.07954350405228237 -0.7796168425436444
Ni 7.9488577872235595 4.868297749690847 10.173490423318295 -0.2444144658284758 -0.737109565309053 0.1719903464297941
Ni 9.511492361393994 2.624455218799691 6.080476857448387 -0.737313453789743 0.7631440416996018 -0.11954498414588442
Ni 7.885254906644903 0.5515920878585366 3.3159386213336504 0.8824658540910867 -0.33074388245434 -1.2809153674225167
Ni 2.102655380103669 8.68988987056884 4.4846592936771135 0.23706059656656592 0.4613551517167151 0.1686939350667095
P 5.54783752478793 0.8283093182700303 12.05136800693324 0.42773926343448276 0.8265119644332862 0.8183852215610938
Ni 1.0934884460592342 7.582982239736018 7.390511867907548 0.44004739137787446 -0.011841472719618315 -0.606090261974982
P 7.153734223496288 1.7797009476508756 4.739039479983342 -0.7961801462189644 1.035189638981785 0.9879271064503955
Ni 0.43784882889818577 5.149667455702414 6.587672272935463 0.07330703622426729 0.10381497500513734 0.7723231370957087
P 1.960260871345481 4.517408187396884 4.277356851755145 -0.528856894113115 -0.28560096736911456 -0.06114983203644307
P 0.7264138354267441 4.3539909035916144 8.672408064470941 -1.7322193055508166 1.1733139287917533 -1.5664330310492056
P 1.9018099992066833 1.8509535008683222 11.002902953413463 -0.8585026584072698 -2.2721288579336676 1.4820910771670153
Ni 3.34769950914152 7.270156711174827 6.886054666566236 0.4507359814399721 -0.3605149430691855 1.7425787944082698
