# total energy = -340869.76305737253 ev
CRYSTAL
PRIMVEC
9.23366101238988 0.00000000000000 0.00000000000000

0.00000000000000 9.23366101238988 0.00000000000000

0.00000000000000 0.00000000000000 13.51439624438867

PRIMCOORD
 96 1
Ni 5.355357020122401 8.88846032795005 6.032339477462301 -1.636979216698884 -0.6656946039011761 -2.1252376205643464
Ni 4.895169836435907 8.337552427546997 12.88851724605044 1.0638353277429355 0.4457297864746324 -0.5498244975037176
Ni 3.8646194291787497 5.7976770702876195 6.7516296449216515 1.4300316374676147 2.143021941130961 0.5152652714716094
Ni 6.03486211357497 4.7220109966816475 6.659691931720285 0.2718957019678801 -1.3996640809193506 -1.2364856763542316
Ni 7.5338545972152735 3.0878931218525287 11.744888659340255 0.3664048261910593 0.03963998298912527 -0.5285337064457413
Ni 6.606554984291403 3.121928395319931 2.2316049768074047 -1.7679681810156518 -0.6413953650341793 0.41132148419809156
Ni 7.2889040452502005 9.307899366815153 1.712462716063213 -1.029041617102518 0.8495899292986724 -0.9095879071188593
Ni 1.754543278128594 6.07638588589806 0.34073039139806877 0.05997380945047091 1.3849661125875439 -0.09302482636816882
Ni 7.547908228853197 0.693693536537216 5.959050988846426 0.024080180877655302 1.5280390046520393 -0.40086994984746444
Ni 0.44849182900016415 2.016825411292342 4.689671023325101 -1.8326820762542695 1.2675700564638621 -2.892721427289883
Ni 3.247515414969998 7.110999103878402 11.927941366571543 -1.8384302915919564 -0.12233488818619574 0.09714399074286495
Ni 7.387722682430923 2.3833740414701734 8.041376295925085 -1.5943053319794414 1.0524443122971745 -1.0205754886130358
Ni 8.104107016857123 5.909625973032815 7.15019691706247 1.461268483994709 -0.1721772656296196 -0.37217001080961065
Ni 7.72422498057866 1.289665394788969 10.070238707350935 0.6498661215093517 -0.7906772141228642 0.2620128956365294
Ni 0.04840654303459362 0.15211532694031268 3.2000737894821603 -3.8575595131312985 0.8191077015494151 1.0649853821869788
Ni 3.2099067147983398 5.165845367207325 4.530768955744923 -1.3062111658748279 -0.2175328109462834 0.5766848122296714
Ni 1.13587877525571 5.204635975953 2.9728020043593792 -0.08917177117066578 1.503964737311655 -1.542374447438105
Ni 0.8408614680559784 0.6165416842700202 6.174551703264854 0.40578435642994637 -3.3136830056809 2.952440183306754
Ni 3.164864917735401 4.138101992813458 1.3647516771498551 -1.6072541788306254 -1.3616528917829 0.6841026740947186
Ni 8.143414710603931 8.53186558404402 7.878460356023616 0.438145032148839 0.8440342895877658 0.49690888045160864
Ni 2.833856647724698 0.2561482123378131 12.125008000699596 -0.30942455215127357 -1.0791994689038318 -0.16794085895076882
Ni 2.9100620497666063 1.1218343772785209 4.692400493438221 -0.052655678522502865 1.079512115048244 0.1850194116996104
Ni 5.735589935508776 0.5160803788446282 8.021605181560354 1.363194268128091 0.2909390917525764 2.129018684873333
Ni 7.149087954408254 0.691320485728447 12.531386026455735 -0.46110884003386393 0.6988844603895834 0.23744266249633303
P 5.704647938387434 1.1899049242133264 10.81092234336607 -0.27526924642580336 1.2638833516408943 -0.08446793793709323
P 4.1796626997794855 8.254735724419179 7.877149176199316 -0.41623126279488315 -0.4731945675538045 -0.403336409110086
P 2.327602730633735 7.412358089270595 9.99496313494499 -0.24931910221894482 0.3119360057192176 0.4665878608705642
P 4.7046332471792995 6.510146332562388 4.307943178265808 2.052795503443536 2.1375987132328604 0.25350948615120855
P 7.551684796093612 1.678744157159004 3.5039858820674445 0.6500054753006934 -1.2576921352285177 0.09444921751952122
P 6.696001455826599 7.88798395370519 11.724319756688063 0.0629514040215561 -1.4415666346904077 -1.5626547949536957
P 7.31914428415572 7.072217728793461 1.7558710785422165 0.3569655351550304 -0.4090578849748956 1.6488392013612636
P 0.004565121867141593 1.5137755744762538 11.883099939946543 -0.19364134904066652 0.4453124964315556 0.12965250489353156
Ni 4.415047179223607 2.343530795400764 13.265487909099313 0.5169645135509033 -0.029699841057277885 0.18796872413592142
Ni 2.8062572357892486 2.9128044470047554 9.237900831518981 -0.6278315103068155 2.149280263335847 1.4935705385615246
Ni 5.3067971983196145 2.638029170867216 9.035657807183162 -0.27552121453560935 -0.7095941334976038 0.30832823376330126
Ni 6.4634055419243 5.118098107549175 3.7330277599530315 -1.0138093735337959 -0.47935595916950996 0.7003093657615681
Ni 5.22656592019746 7.593300905024047 1.6366876026115327 0.5894883917522428 0.9402537116338323 0.19918850411114083
Ni 2.2678701793421916 4.380984204774 7.0656230482968745 -0.36504574106000354 -1.4263647301389886 0.9245460710905883
Ni 5.273140504942327 6.072840160176008 10.840505145627292 0.5027954211393728 0.8917588493572383 -0.3520264459822002
Ni 1.3523342501940863 0.7165006785514549 9.89019986698339 -0.00018691919982548455 1.1125947565348258 0.6006773184895268
Ni 4.399091413474374 8.776456023240447 10.228018885151869 -1.315147034911877 -0.35812690245298323 -0.3360730079767374
Ni 3.019240854291449 9.058756732876612 1.1144068205836812 -1.2689887911882596 -1.624268196890119 -0.5040040967354933
Ni 5.105494160646569 3.595384349481916 11.221164656139601 -0.3642145034079598 0.0367534054699496 0.44761466220217105
Ni 8.470350936230716 6.798513557301125 9.384693876411923 0.6880256632982086 0.11749041560970087 -0.33391071021809593
Ni 6.602556809193361 8.18874275114964 9.542271837042772 0.11320361530888891 0.03452245925690183 2.1457429396065497
Ni 6.412186425829975 5.907723838921506 12.986117963380282 0.434643960974116 -0.056005054610709995 0.9625032670606519
Ni 8.180644830685475 6.58601008915712 4.043088547221426 0.9380538757690361 0.518127680621069 -1.1449099237277636
Ni 6.713979393276689 8.805976036608675 3.9432034222258676 0.027665070015436225 -0.48324089604621284 0.28674922204094483
Ni 7.705757659109641 4.9833235954682715 1.3773334632666978 0.9304776060836749 0.36378050119433475 0.14429596583831925
Ni 6.55652701043183 6.908929672364392 5.675627466064944 -0.8448094771908935 -0.0824496219554838 -0.9589841981638001
Ni 5.335476948561003 1.741773125332767 4.118755626842512 0.6173920601410464 0.1444810852659318 0.27732664317546435
Ni 6.592722960511107 4.673525044164737 8.933353463075163 0.6678461030265402 0.002823328381408041 1.1580947978491538
Ni 3.194311061817753 5.277231016647715 10.335350034163735 -0.21707695435578742 -0.8071351025685712 -0.43242535605624244
Ni 2.5526178090730016 4.350707031225544 12.573929194923915 0.5644905841563246 -1.3824176351340773 -1.3449368645797999
Ni 9.047445498476836 4.738271473235119 12.734020558006696 -0.45495439039669394 -0.44210298835532247 1.720103239013573
Ni -0.023654792069666933 2.9058145658287318 6.826837811604234 0.6024657778485172 1.47202726517311 0.17639310348318007
P 5.078688843534288 0.5285190432200862 0.9776516882752254 0.7514226394976156 0.7212085778080806 0.43388342865900753
P 4.525768005091113 4.603829372940657 8.720717953582652 -2.3539611580201267 1.0361008379421446 -0.6692126443567636
P 1.0256103987641954 8.121632504931222 12.997118946779375 1.3891580391817042 -1.7414038002635623 -0.6883208259411242
P 1.4661114177647148 6.556333103556405 6.476787886426824 1.1632673431890288 0.6313341241434353 0.9627796606504903
P 4.473533186315991 3.7891804209778055 3.3595169495813795 -0.1730234156799988 -1.3532001330298566 -0.20725534027967535
P 4.30764123755979 5.680769691727992 13.079705731754903 -1.0223665190751876 -0.8669369052175522 0.6415483456722758
P 9.162053695513572 1.2676154129549597 8.239835366091903 0.9778406687486708 -1.2720782287468608 0.4291250880384158
P 2.778390047692498 2.175127290924776 11.287453106552647 0.07770182285785328 1.7617864776849723 0.17075338869889944
Ni 3.247921696042316 6.775706415286886 2.648442893443596 -1.3789942112748252 -0.7125028225039665 -0.5775350760451086
Ni 1.68023077653726 8.379159302816698 8.148815478767546 0.3845056495568281 -0.7196911127222896 -0.7632954796758016
Ni 5.03637097638803 5.222106062062692 1.7647095385972893 1.7796276196314513 0.7515128852185767 -0.6166019601395832
Ni 5.9244921668153765 6.7624653457936 7.919746823265829 -1.087965902242552 0.6856633337136192 0.47536072196718776
Ni 3.68042636484675 1.6269063857954664 2.337179883547568 1.0017614412303264 1.7554890747120349 0.0281108993036032
Ni 8.431689598735325 2.3529029610462913 0.8159610551532261 -0.1976270731612919 1.9416086614543593 -0.5220920645854557
Ni 4.151823212664939 8.691312437607532 3.6220742458350164 0.7697836585033065 -0.4696551869419783 0.3820134792625937
Ni 0.7009059489369415 3.695163287379027 10.77617607802211 0.03385911464129007 -2.047542225464396 -0.8811041978568697
Ni 2.841963801849597 8.314514444014396 5.808852569874597 0.39816617776305624 -1.3481126912046202 1.1122923948030585
Ni 2.05998354156544 3.3653830942460137 3.759069453322569 1.5926881080909927 -0.7865037994714648 0.7513167100473706
Ni 0.7384250825994748 7.640928127092648 1.9200040149284936 -0.14656265038530888 -1.2204746456379563 -1.5860258655794686
Ni 3.5212749884267414 1.3282805639806887 8.008198829539918 -0.5143558722834626 -2.174207879815462 -2.23809028029172
Ni 0.7053214855001841 4.874652642283827 5.492034589680688 -0.9685517872475772 -0.20688535853476625 -1.671383919430999
Ni 7.997282795819581 7.827891289645 13.376994519495325 1.3709749405147744 -1.137624188699628 0.244652807091527
Ni 0.9449728395697221 5.8676035830300615 11.148457888149998 0.16296628855431292 2.7817428446567702 0.41241317460037363
Ni 8.658431371731943 3.7419410126600536 3.51048637922454 -0.6274458448326227 -0.010226819934330774 -0.9172099424404913
Ni 1.3331097685448372 1.8987176568372286 2.2386465664835415 -1.0350924512822883 0.1933479861699638 -0.287321292494331
Ni 1.4412636367281493 5.769098890314312 8.850550610438447 -0.8338990009259767 -0.14955284336188437 -1.5864022750822808
Ni 2.0546834203038316 1.9495397255199698 0.061178542562567426 -0.6092871716457249 1.0874681366705272 -0.8608837570449367
Ni 4.192996105880117 3.2210332759834235 5.911697083135565 -1.544297889713063 0.976831510757866 -0.5629286389858434
Ni 7.528452905685586 5.5390607004354715 10.953890805982777 1.090481212465238 -0.797337142641543 0.6758754010889199
Ni 8.888986646611917 8.513102785431496 11.014583657990709 0.07765580011126626 -0.3320006376795766 0.9448845255376241
Ni 1.1739676257855625 7.28675260229906 4.174002465749231 0.6835308607516486 0.11088345181614452 2.2678849950556494
Ni 0.20044615395688334 0.383147058714186 0.6480912562676929 0.6025030588443558 0.12808233219293425 -0.24931627400546738
P 8.59853261454718 8.036525853941248 5.92356233717941 -0.1460144911913227 -1.6714415121418116 -2.3774427860818346
P 5.591738734925849 1.831099559278414 6.322426009829805 1.2743855367237988 -0.3930900487917295 0.9679866587727264
P 1.9975270603572166 2.497465153505775 6.10668245013406 1.2856544247693986 0.5074606878255261 0.3082850392301916
P 1.9843044581853988 9.06876602111282 3.151638622099289 3.377482616635364 -0.3938043012499347 -0.32980800090363205
P 0.9458869719824387 4.135359595575308 1.0391330949098847 -0.6015499509024672 -0.9755963527991842 0.08572057939727172
P 8.687665141617401 4.598538485339783 9.028454628444171 1.3980494281340632 -0.32846459950186013 0.4001094175323561
P 7.837014146450697 4.140641249515448 5.428570716086329 -0.45089744671850085 1.0860586579175102 1.0512369222526345
P 6.5539600527476365 3.5355409942615585 0.04142404878715739 -0.5374443786718098 0.2879689533806589 0.20427543171574497
