# total energy = -340866.66931337066 ev
CRYSTAL
PRIMVEC
9.32495795857777 0.00000000000000 0.00000000000000
0.00000000000000 9.32495795857777 0.00000000000000
0.00000000000000 0.00000000000000 13.64801855357683
PRIMCOORD
 96 1
Ni 0.5076497859638209 8.529660390050765 5.051622601435364 1.116511832201045 1.3411925670460192 -0.37892069926988287
Ni 0.5974537948566473 0.2430886024841424 13.208607311406656 -0.0826347413830964 -0.196587576153184 -1.1660719025173596
Ni 2.208196700676574 3.4557455438036877 3.041870333887728 -0.6358618368104598 0.9541788063553568 -0.8683348140063433
Ni 9.247579588498384 7.777546570284418 7.7098613619828145 0.5546301464224771 1.0428360997834492 -1.4101066164089133
Ni 7.537624723567889 0.6392799618768314 1.7000927892537343 1.0244905073967259 -0.6632065473719997 -1.0873658067647078
Ni 2.480811850459221 7.987386102200234 2.6138417025816505 -3.2054596171954213 -0.8813065436756629 1.2309410923869188
Ni 0.5015549933557164 6.40225512627232 3.9045483167443056 1.1397039540467921 -0.01842246837124569 -2.1463376357677553
Ni 7.698004677770445 0.3635875759242422 8.755436275343648 -0.5218699212723207 0.31485137959379966 -0.7782153342104275
Ni 0.8714108061085508 1.6388427345305485 7.276208848452216 0.38265136995690874 -0.2474743357007222 0.71647671955005
Ni 4.00464055189864 2.0766681668067526 3.1407092946746684 1.526688661271732 -0.17208959101181975 -1.0580004662287132
Ni 8.567818118558053 3.1938913956577495 6.631653757783455 0.4487595744398917 0.012088555733417891 -0.1665241811089003
Ni 0.22418970992164916 3.5903699637596334 4.287006810356768 -1.1904847841440853 0.2117020631971193 0.8466308466703483
Ni 2.182487791220417 4.855654877175326 0.5840873999293873 1.619046029259231 1.1405344203678873 -0.9286791194223555
Ni 6.518145705423978 1.0379797349959283 10.81960340333396 -0.4713480012633689 1.280636402729517 0.2752139677078357
Ni 0.7776203776319351 4.658170914729733 7.765026881551796 0.11916934597402055 -0.8807956654775154 0.9390882305708212
Ni 4.058249735962278 4.582125881499787 3.970631497245919 0.8601723328002089 0.43026202985633644 -0.33002423067949616
Ni 2.910002371543404 6.590041132303548 4.982509742050071 -0.30978142127006003 1.4643383811692847 -0.9644053691793714
Ni 2.954314572390578 6.9046279184525945 10.519660531370604 -2.0849486911373125 0.4569107427921163 0.667623959713405
Ni 0.1420787914536794 4.617896420735848 1.744230613384612 1.2654697222914078 -0.06217030288115745 1.6870103131143461
Ni 4.231414207707232 7.256924835120574 6.795102555693672 -0.5369931500670041 1.0393620251919198 2.133759027771796
Ni 7.742083754665352 5.408615566997838 3.3831796524373945 0.15557385274498367 -0.4753447811275878 0.8689634487292777
Ni 2.2543086184352603 1.8578580252076486 9.33864339922927 0.7308016208131544 0.4154218795197103 0.21141692785653268
Ni 4.216018701899428 7.135765654647651 13.136914236117654 -0.30721160366035477 0.062223267606279935 -0.07260152551681046
Ni 5.52784448114598 6.828694784719737 4.731686086829663 0.18060431335105026 -1.0058500094774032 0.2549341344128771
P 0.24924866979888216 0.6054499464194528 9.551429617901757 3.1773710864893214 -1.4064463939485066 0.40140859595975387
P 0.32871223266489213 4.43340212491065 13.165684529315 -1.1228835400553436 -0.9385153887864869 1.3528882582163928
P 1.7598806905482929 7.696960282464283 12.593900479090529 1.0201085762789464 1.7257712359326278 0.19075914239686503
P 6.3391158350399515 2.1717827393322526 8.747915696643469 0.5646569345308599 1.3114248488652833 0.905220631289099
P 5.638279959814558 1.629312627361817 4.519814646545876 0.25844549000024525 -0.25320583886786074 -0.2356824852721167
P 8.665096081360604 8.17107845162963 3.0562690016756324 0.38392509446300976 0.595613016592742 -0.9133018656353367
P 5.792729240671407 5.764054994542397 2.7867889028030914 0.9717011315098363 0.7838383368241597 0.46815494824736786
P 4.294105900951245 7.764099980717576 9.089621325911992 0.18493147997149442 -0.3030579865032974 -1.8444153055307977
Ni 5.247247167237664 6.525605671896567 10.813229794478943 2.1985310299418583 -3.5666078229732316 -0.7006238116781933
Ni 6.411580084363055 3.8659318002989522 7.197364462803431 -0.3368183707831941 0.8291702279917398 2.4466766806779927
Ni 6.85296765062992 4.353393984492141 9.831349939852688 -1.421880726225706 -0.8914474887644067 -1.3251247149498793
Ni 4.898018161781536 -0.10471368438410306 5.676743546947224 0.6062941504556719 0.043282464837719005 -0.8223187522875451
Ni 4.456546670891854 2.6506846119981455 7.619306693963684 -1.222781953614894 0.5310101930106919 0.27147609793195826
Ni 3.0990752217911535 0.4405371300889899 7.081411406432563 -0.6352609700016673 -0.8430914660585223 0.3092042086103513
Ni 5.814176644280098 2.191831399227334 1.0852824499028013 -1.0517724830411306 0.5241988265158133 -0.10451457217532323
Ni 2.197277174752323 8.61012545341572 8.926022396176513 -0.04862161766244529 -0.13244240893384288 -1.7091431404576436
Ni 8.186501932311705 2.9275892425025307 0.5023168424317295 0.19427821129371703 -1.276857395303059 -0.10981001624630767
Ni 9.187871881843407 1.6806371966932243 11.350361367942432 -0.82847088793187 -1.4042424443186525 2.846586837715349
Ni 4.560538603519735 5.095371574813858 6.129966350022849 -0.04334314287232535 -1.441407226294408 0.1116630102946464
Ni 4.685082743779596 0.732649834743555 8.882239852948892 -0.2296349935264561 -1.437258237123041 0.7265135349607618
Ni 7.4825981458744595 5.0638252415929 0.8633801522008097 -1.9609641831628357 -0.23677906077040511 -1.1181609377686936
Ni 0.14103812613075337 5.8755535184333185 6.013344694156878 0.5146206959090751 0.5913748101416783 0.3113356531310574
Ni 4.755700651400734 5.421689158241049 8.388577504121175 0.015216559839438308 0.18385187375407047 1.6028277676281557
Ni 4.216559549468691 9.076737031318023 1.6567196116862972 1.626352076002341 0.8321637634024249 -0.00869110001609471
Ni 7.676137651047671 6.090894775622669 8.238326319396775 -0.18161244290059045 -0.11820723917106737 0.3675407395677154
Ni 4.765790256054909 8.569869609338014 11.08264182115742 -0.25481226412303215 2.0459226875831025 0.31679230537025443
Ni 5.536432767547547 5.0200445633568975 12.954344611642384 -0.21809331143544375 -0.5811850140928699 -0.7333053610716146
Ni 6.4578132265769215 1.5888329842899351 6.551021777668675 1.0636630638311295 -1.1844416632737989 0.6107598995365093
Ni 0.36140087325196474 7.605687592672165 9.99964398598685 -0.5189324359105515 0.09710079620975536 1.0793185109801993
Ni 1.3804388208781826 2.6342726857584515 0.6917225936833178 0.20789220253272583 -1.0518347037376337 -0.3490334247921473
Ni 9.15075854864228 2.7268974944737256 9.50311514504204 -0.3494591994756562 1.4443634807092545 -2.8138466671698508
Ni 7.895414040551311 3.977980496717228 11.84330010002231 0.8796358408414593 -0.3725947570518551 1.1582791459458182
P 2.1104524899694868 5.774694771723925 2.479012133547709 -0.6239509443054867 -0.5528172615834543 1.06076877300247
P 3.0070005856032322 4.214964981635175 7.679876959242055 -0.6974171318154376 0.5599816405423775 -0.5764546984967363
P 3.5129728116065304 5.073476573216811 11.321358883288628 1.2502665321884079 -1.8588818745780888 1.4480568704004415
P 3.2909082596337598 1.599538036178099 1.110300379964435 -0.013058375845854928 1.069071122220578 0.3863357607870314
P 7.487316574668371 5.300688502055668 6.134811598246796 -0.36203009416213133 0.9789259313930496 -0.9278710216987633
P 7.6614974668452165 2.644213091083176 2.7196818419031143 -0.047090525729899545 1.7253770858180029 -0.41037788933789965
P 7.873789462738896 1.0310233162602398 13.110792231018078 -0.4353029347143535 -1.175588840868859 -0.04741037096316351
P 6.2558346343315945 2.767871360324416 12.562400770660027 -1.0591842021241695 0.628126415839415 -0.12792163824535388
Ni 2.380242177450641 0.4835205244082343 3.878357306954857 -0.16508410622826408 1.0392188147458359 0.8909849473056912
Ni 0.9120946657626199 5.952204673939162 11.862899296937416 0.20060775305617065 -0.7269531936013416 -1.4818972159886543
Ni 6.540423030302746 8.640310342755429 3.457220752173642 -2.1967006616013394 0.27820570334630795 -0.5419345532326796
Ni 4.030992883463058 6.728544734825239 2.026772181054846 2.4075023244713765 -2.2347465606304673 -1.3575550675644426
Ni 0.9205915675748979 9.153211012620142 1.6513689507338334 -1.0636694915890328 0.9759000000825321 1.7626899633358482
Ni 5.708655418525338 9.359553685251935 13.17481459578164 1.0596382589424524 -0.22563667100034043 0.7405648708475052
Ni 7.902948606688625 6.2554056862594205 11.122658013812194 -1.0047174385348567 0.2598480267747267 -0.05869519984836344
Ni 7.3445514662992135 7.120137024887579 1.4726757113368816 0.3342336407751534 2.0815018702392925 1.9488332042272567
Ni 7.956408591422812 1.0666819559992118 4.114741264571761 0.06605421131659592 -0.25118366623150934 2.1411573771183963
Ni 7.878619791029897 8.58173095602943 11.731086351845827 0.6684891359271777 0.19979194202309464 1.7957468937908172
Ni 4.762060272818616 3.1171656404871797 10.367062254694767 -0.5304509780731123 -0.11443517372314486 0.3506935861033896
Ni 6.55733850427934 8.344354822871672 7.238554667681825 -0.21431713222246315 -0.764030043848981 -0.2530240618743578
Ni 0.6901699881612103 7.002735802525221 0.6807592404560403 -0.0691693599068099 -0.9342728114600489 0.2644320466009833
Ni 4.771674304610164 4.339080173822862 1.8533326230462148 -1.0101715196708925 -1.882238289915842 -2.8587214161953542
Ni 1.5863991702282532 3.1874198747427793 11.900608494960542 0.12585215731083485 0.4412439827891368 -0.9536486448834994
Ni 6.82074059546834 3.467961238902551 4.993455377856976 0.057720751750236075 0.06127093099533964 -2.6544711812905897
Ni 1.9683308037085898 9.36076592980373 11.114004452703993 -1.0500598712253981 -0.0012786096021074754 -0.5541889451200005
Ni 7.810202573518173 7.612065864006229 5.101711613819749 -0.7526318293143682 -1.3923148396431313 1.4163610819590575
Ni 2.173890179860759 4.5374033824966205 9.691416821255686 -0.12228500878486681 -0.26630586658492844 0.7585255690909839
Ni 0.4039310746079994 1.8688894506289886 2.642911326933709 0.15218539588872498 -0.11055023684644186 0.38197337005327764
Ni 3.1739173354273946 0.28679001857637343 13.048379354020978 0.5134927529522189 -0.09958551030482203 0.5402317116089599
Ni 3.4719243460911136 3.1650772751573775 13.2423310223418 2.4052130142165673 -0.3419245816615079 -0.5915691855406715
Ni 3.5637285584944025 1.9905708287549935 5.5585375807016355 1.8585671715511476 1.4682744829988972 -0.7634656867050786
Ni 2.2657876418449554 4.478189898620451 5.3481674586704555 -1.1433361514827407 -1.86304320504463 1.7131628031399981
P 4.25827941196664 8.316193449437652 3.8421494271843413 -0.5015726044758652 0.2869492538668929 -0.8109740166986872
P 8.958142214320052 4.807193069977774 9.831459041862349 1.2257227814107727 1.432419678083817 -0.5195070774670988
P 6.990650656839628 7.910166124250854 9.962139004545913 -0.24009526962783165 -0.4617107352839209 -1.2885312320965616
P 3.9011894668400227 1.1433890612536004 11.035706509599324 -0.7725067138614244 1.7668057852764345 -0.07395932509628553
P 8.621483252370234 0.4362998691325598 6.448893904163133 -1.8639610888732094 -0.26047023373975786 -0.10967863287476595
P 6.527992861167795 7.098568396823707 13.202451906570962 -0.7084623338860057 -0.18094087075486256 -1.5984070128526406
P 1.8893857085124246 7.862282464454929 6.5350537194341 0.9279000751644858 -0.0171500294167253 1.0256847848151431
P 1.5668447331119812 2.0076728018934022 5.269131911380811 -1.8261805276903258 0.8003918703074668 -1.2318445780377947
