# total energy = -381161.7374958994 ev
CRYSTAL
PRIMVEC
9.32298521281036 0.00000000000000 0.00000000000000
0.00000000000000 9.32298521281036 0.00000000000000
0.00000000000000 0.00000000000000 13.64513124073510
PRIMCOORD
 96 1
Ni 6.163705283357148 0.7856908584889664 4.466501488824635 -0.2685015886846666 -1.5043038658186285 0.11163138572576257
Ni 1.4209348383026479 2.652174894337863 9.834482516893475 -0.45306797200725846 -0.06053508127057962 0.6440256035681746
Ni 2.9710862531141977 0.9714084552196967 0.7756052529718429 1.0489031319131354 -1.3072298369473292 -1.5461303149361112
Ni 9.186002694823683 7.884541913372519 2.604636992200858 -1.0052180323203592 -1.3721478777769531 1.0140160902279634
Ni 8.542175974726156 2.980325331564437 11.323616857395105 0.6957037486687567 0.15433226702839872 -0.5888240186953665
Ni 6.298049501791006 2.3234930469481574 6.4379231828170305 -0.8050154851224071 -0.4369723519969765 0.8038219790349382
Ni 8.929816381267543 4.69835574299906 5.783079490969102 -1.3740468945718787 -1.3558360279908068 -4.626445085300368
Ni 1.7072996553334865 4.663347933129584 4.155024278540956 -0.53624495904707 0.4789517817525558 0.4169735402775464
Ni 1.7946560277641073 8.938272328951061 2.1429814052190554 1.0408635494381107 0.26169099352073644 1.2917397117315301
Ni 2.4630301682041984 2.4081550766218465 3.364957210743672 -1.3512340104424212 -1.0108957994314267 2.8415425904232223
Ni 7.525784115346615 6.198144391122218 7.165154261868834 -0.33786635243173424 0.5997746041695994 0.36471638274504287
Ni 4.546279206490171 2.2365562088568507 4.92488284336272 -3.0911524844097085 0.2195966354538476 0.6487152957343603
Ni 1.7709290301295364 8.997258857058696 12.961142358309381 2.6401521935647563 -0.8115399165044863 -2.285944423660521
Ni 1.1278481488574577 1.6820530110920646 12.159913812489267 -1.0420190031987926 -0.538956187330646 -0.5492125749513316
Ni 9.07959946338818 0.9929538742898317 7.371264024385852 1.566423775077825 -1.5664191470921347 -0.8144617181369714
Ni 8.294818528266259 1.142606434616014 13.66218796849823 -1.2530407524994354 0.6152385041331534 -1.475644293100407
Ni 1.1196439217775274 3.956852105723772 1.8816777050218083 -0.3871690553216042 2.6552224576343173 -0.10290583292730664
Ni 6.251835463569172 2.036391714077189 10.636202384039855 -0.006144936555473288 0.8876270865770518 -0.1387444398924707
Ni 6.202945728561042 6.92209284704352 9.386048787689804 0.06536284167652613 0.416272914666096 1.1583562790406565
Ni 3.0786921496557373 7.305612494074304 0.5779160107941372 -1.1085226433479813 1.5864215583559904 0.06414285322649599
Ni 6.483157375281932 3.0881643027389294 4.0624554250189835 1.9021016044986727 -0.14933044293843314 -0.6945495804596554
Ni 8.100369023486593 8.88305228691194 4.623598452927323 -0.5238116183797237 -1.0050023167651272 -0.7066587050183636
Ni 2.374182118122681 7.1161880783810965 3.989617737624244 0.36260602127025937 0.4451903690313946 -0.3597456690033288
Ni 4.190374241971605 0.38541500994595546 6.974312752407275 0.7459076232166573 -1.310212059504105 -2.3969348333681753
P 8.779557826895683 9.70718554306157 10.966045875400198 -0.31729495603828584 0.5426768307153428 -0.029662560061439237
Ni 0.798388764492222 8.798306350370387 5.645304413938182 0.5297976607598295 2.204016221426146 -1.1806775682456763
P 8.985819554073384 3.9425692922164393 9.28800920638317 -0.3981723484106433 -1.2280370313662463 0.7782500441031048
Ni 3.7752403517271342 4.7132072586107965 5.487812155258007 0.8017131602220515 -0.6350020599133258 0.052865994761096054
P 4.609871289344948 3.8764506803404557 3.512802976515206 -2.623126091320405 -0.46047943397998115 1.3409408560465295
P 0.8960116083551375 0.9071404559293567 3.9096852584024275 -0.3056406596288091 0.19946026971528874 -0.007326872678716414
P 4.080894425381127 8.865478459587317 4.710858798609167 0.7470157686791715 -0.26009048180283595 -0.17824146954582853
Ni 8.151272523323433 1.8315470806678391 9.237099180456608 0.0019635514842740375 0.6549484211282657 1.093374217742317
Ni 1.1407138685964393 7.623516970436284 10.441786442007334 -0.7674868920493298 0.2652856528505302 0.5521361763560297
Ni 2.6548505911241587 5.153317426522464 0.16746971756760815 0.08593449518029071 -1.576113491561763 -1.3163073737685653
Ni 6.034815011334381 4.539408166310729 2.2704816201308944 2.454955118636701 0.8978017131172087 -1.4240764483254442
Ni 4.3749227363434455 1.0179301519570285 2.590991870889283 -0.32032294423133223 -0.43645221782744836 1.6527483066076825
Ni 0.7765207701300807 1.840888711956578 1.2623601810270415 1.7283652219120493 -0.30169967270319004 -0.9357157145541626
Ni 1.0766183445344841 5.008354327811288 10.628616270886514 0.9814733804052514 -0.6694769537617439 1.2109564217348758
Ni 5.669941334939801 4.437657104548958 11.345490445548439 0.04067073824648479 0.3864841134394376 -0.0905596526571279
Ni 1.9375680697053017 6.1138273119052995 8.890894782161528 0.5422261163311693 1.7710018256356534 -0.1111109944459183
Ni 4.900114468268117 3.6179709123960624 0.4781265051432946 1.1909514393678586 0.9843609863656918 -1.208493304906364
Ni 3.4626033620698826 6.896892817728689 10.847933906703686 -1.4102469986415196 -0.37349644293051804 -0.05804805318266777
Ni 6.763452928870686 2.850036611743954 12.70199320001915 -0.5042797189943831 -1.6195111418211074 1.4558444847656604
Ni 4.106103777681276 4.839104852346455 9.551182165136696 -0.40624766921961 0.8244283424313803 1.6137277023701113
Ni 6.603461177826728 4.0775474736519275 8.946621062303423 0.4868494393330776 -0.12400353413787031 -0.04554220740617318
Ni 8.865832733029404 3.32327134649084 3.416222442410854 0.539556025698174 -1.0491607564498964 1.5574156580419436
Ni 1.8979547050886838 2.398757507421199 6.145876006234809 -0.36798219798050824 -0.4861611550168014 -0.604780542024623
Ni 6.262873878185805 4.571320745054594 5.887942565230055 -0.08653819020256064 0.931763414774634 -0.012958359932880909
Ni 0.15796866322992986 8.650331927401464 0.46551064141083814 -1.4936384156849825 -0.6961495779569237 1.8305565452708343
Ni 3.0818899336198466 0.2868057942363846 10.873272848499758 0.7380423615359676 -0.29730540029023633 -0.13937153195350835
Ni 3.105048229150013 3.017663887763438 1.4914809359061982 0.9446541546943731 1.3925696359664148 -1.1711847982638928
Ni 2.4540614563281835 4.02265373609894 8.084794976512702 0.4170370465256302 -1.956460124644895 -0.8340077585896991
Ni 3.6939905346798705 5.414929717533741 2.318335571470183 -1.6225887523051667 -0.1991954460896763 1.6756365240597657
Ni 3.1894958301613863 2.676983358269334 12.69439310238783 0.30842362169058496 0.6048795294963325 -1.0617108252007652
Ni 1.0359608055622387 6.646962227320994 12.62974286069945 0.7257666294924081 0.2907076924680606 0.7645059550441349
Ni 5.1394914392957185 5.7795703192953685 7.804769789498175 0.106871502443274 -0.3610088519864686 -2.5717899029402744
P 4.350477868839381 8.201383569408234 9.418115195691419 1.433609327516544 1.8779725726609529 2.2892362070379155
Ni 0.2244387516524057 6.844348472475862 5.162785850411529 -0.9856221124663027 -2.074254187537944 -0.4596371405843439
P 2.306105679329896 5.6363412958533585 6.6616216894351785 -1.128681120573727 1.059547241890543 -0.4154329352633039
Ni 5.063779475527408 6.662046817565684 4.247947405505015 -0.38849703010440834 -1.7680833664372773 -0.37228879577566204
P 3.4646544188398654 4.710783282428091 11.603246749832147 -0.7094493803896234 -0.3634321167159805 1.0295247273865236
P 1.8550037117281852 9.337808864758347 7.234375563258682 1.2993139245343623 0.09731214088961306 1.5515969944776375
P 4.632423590829438 3.5460254346962645 7.968661345300695 0.6392911742069829 -1.0746298472552784 -1.251862158810302
Ni 7.848182270631919 7.523807642459177 13.102436862297886 0.3850242410644595 -1.480766959038953 -1.2040874625291842
Ni 5.093454537794928 6.222486705787785 0.8408773377809426 1.7285009761589651 -0.11210832536218111 -0.9915366781785246
Ni 8.549541133127457 5.435514869116111 12.006064976471405 2.002239901983171 -1.0511867857409898 -1.0248368349925512
Ni 6.598408119784316 9.459194133600043 11.761039208639565 0.40716272483471166 -0.7834848101394829 0.6011997666519001
Ni 5.538972037191095 1.5565749516957221 8.514303045520625 0.955427334050477 -0.6848994589644011 -0.6089680977434092
Ni 8.231645979750796 1.9860196244034805 5.206299952085241 1.2856019742649083 -1.0259205549750332 -0.5752869034408802
Ni 4.387033294271661 7.897827167450815 2.4400629938730525 -0.050304661791823045 1.2979859497515582 0.10247105938273321
Ni 3.532833410471149 7.453764053764272 7.817500325950044 -1.430765944530478 -0.10249651330402992 -3.112092319886169
Ni 6.780952172312765 6.868867923862471 2.4650336777490587 0.08522898447283386 1.2455719549262163 -0.261626201721072
Ni 6.104056823291928 1.7264863591181414 1.343395569411989 1.151736459731294 -0.16620150766215894 -0.7175103030208869
Ni 1.0997486711086966 0.30452599243050216 9.285020257290187 -0.4695256033426494 0.3199668464434941 0.9932680590473346
Ni 8.055003376928706 3.263716116278801 1.348923167407092 -0.4899239644933434 0.6652181784853898 -1.346756948507674
Ni 5.630262709425955 7.790305177777138 6.105063705706283 -0.4373976124598531 0.28596246447359136 0.9234651793215838
Ni 7.074225321464317 0.003487728807502169 6.902375665394264 -0.2737600088701285 0.6435021269645369 -0.46375399096619485
Ni -0.1091880071500218 7.970826142491559 7.955752739829251 0.4533736761731353 -0.8494973695848659 -0.6364105102250781
Ni 8.567161575378671 5.533163817337918 3.2456313893587456 -0.00010284412645143578 0.2710420957183332 1.2520915012122888
Ni 0.6159528585934637 3.7976155164905805 13.092708327118444 0.134816051372342 0.15538539088326142 0.6732950419562533
Ni 2.863946505838563 1.5359338622014431 8.307278698143904 -0.6368995340463548 0.9792167231605912 -0.07508546828092875
Ni 4.031109683782459 2.416722900129183 9.954900992157683 -0.6446881768528381 1.3419983507767663 2.472167625860246
Ni 6.279235717419074 8.633214926357427 0.4103707770454524 -1.625518781467768 1.3181053462092525 1.7279456178761274
Ni 8.925965988331166 5.76536208967058 0.9498089628347166 0.08038605455823575 0.43603878443911354 -0.7614180601474306
Ni 8.492978581202529 1.010434471761274 2.4816267270182175 -1.0813203719015765 -0.6499813069309773 1.0663632363711117
Ni 8.479283115770235 6.03059169898528 9.332150744968791 -0.28866623655799967 1.0094318132913906 1.8414135425899965
Ni 6.9177669818559195 4.96240133317836 13.356713828460878 -1.3027651163077563 0.8282487446187349 1.90431660987212
Ni 8.383908975966047 3.006858547779757 7.235835542759497 -0.28819238224537463 2.303497087832304 0.630747655512346
P 1.480760435088912 6.3050697097355375 2.002791674990747 0.29038347635942247 0.15141406494033924 0.4451379185269043
Ni 0.34135178443700726 5.08455108681614 7.631094692902838 1.1145994456696804 0.7726771780010177 1.036367204229654
P 6.901228005901605 6.418325335379847 11.437526956608748 -2.215304649855772 1.0665858939048793 -0.6215446488568392
Ni 4.892348421498137 7.318301077092242 12.534021905841426 1.0651321921774883 0.566812804531598 -0.603277218006219
P 6.6587091888218035 9.138147811185862 2.589149648990426 -0.5188599308014031 -0.41379025745355835 -0.41600783393016744
P 7.154337734302772 6.5696000951513795 5.094081974706836 0.8849212576101146 -0.2954626906545428 -1.373499763819157
P 4.583114321481994 0.8752595753355731 12.8834734999228 0.6182785765110578 -0.2410982569710493 -0.3575664019638229
Ni 7.402375758690892 9.01326642284988 9.097031581335965 -0.322452074759193 -0.6677193476406887 1.4390065872727154
