# total energy = -340890.60861445044 ev
CRYSTAL
PRIMVEC
9.09257287470623 0.00000000000000 0.00000000000000
0.00000000000000 9.09257287470623 0.00000000000000
0.00000000000000 0.00000000000000 13.30789949348487
PRIMCOORD
 96 1
Ni 6.518256522445166 1.871015135999107 11.446164727408044 1.0553694563637694 0.6845474749416212 -0.00209802017960929
Ni 4.648005162586019 0.5992114780317451 6.095150909369851 -0.3012412450095328 -0.7646350244228315 -0.46935591053400455
Ni 2.5292265023280667 1.5851991933387322 4.8691074440164375 0.3442406313891942 -0.37953853535953996 1.3281480751572352
Ni 3.1658884704224683 4.374436915884273 5.009453128248524 -0.5976169343966482 -0.2600071780604103 -0.4483206871302602
Ni 4.822491640274273 4.2116707649151515 2.9717074794109855 0.8784742164331905 1.2130140755948529 -1.2124808287992022
Ni 6.756863825597598 5.930076154091973 2.526956996083617 -0.780527784393688 0.9507867499546723 0.05238057048424527
Ni 5.53247611780474 4.322872933863945 11.802962751189895 -0.4833177720307354 0.07469928858610361 -0.33744854816802533
Ni 5.567937152874266 7.843289921823815 12.201454768897722 -0.12498518132484926 0.7558284818747951 0.6490744788459919
Ni 2.1344542562733015 6.433368260032579 0.32082053056054355 -0.7492778252404709 0.7802516479141659 1.212638437422989
Ni 2.6079681853286028 1.5306801250626105 0.604476987110915 1.101537984500032 -0.14752655696047495 0.4361840517677262
Ni 0.49709097108998795 -0.23079496434942282 4.83481298607497 0.2752558766893647 0.36658274652982026 -0.11610227701292264
Ni 8.783352868943837 2.63571871841378 1.3477311895950723 0.16369185386642776 -0.8386182607785171 0.507926571718351
Ni 7.083150811102707 0.5751016112137058 4.744745594027612 -0.6717361821095658 0.045513668161082904 0.17847466860255717
Ni 0.7091706922384865 7.399317762753357 2.1838132893181523 0.15009226080512214 0.42338767133400634 0.5454919315666348
Ni 7.650390983618692 3.978328061584579 3.5374528329101937 0.17787123069060334 0.7017982916022688 1.5088284931618594
Ni 8.044163046633034 3.9122159626126516 12.677304579981065 -2.2347365333281384 -0.06503913978852024 -0.7017131880876302
Ni 7.996427037885595 8.895673424383286 7.09043578066622 0.038512297142585285 0.1753646622186657 -0.5763611103416654
Ni 6.89017003973973 0.6366501477493788 0.3261196821601639 0.3043666780123919 1.0281553578428229 -0.7945755207360058
Ni 1.773424548973154 6.4394784691522515 9.304643723325503 -1.0700900504033957 -0.2615526681706592 -0.6125470733439192
Ni 8.74231808656723 5.182357498218293 1.3742533160551489 0.914070111259929 0.16992755036349447 1.0343573728884767
Ni 6.570920705809959 1.9479928598192613 6.771458314671983 0.12158849693847447 -0.8122225443938077 1.1928142036082103
Ni 3.885401964556233 4.579438068878509 0.5384121695190798 -0.9034985063916697 -0.19907563268236037 0.6165261125963252
Ni 5.966501001909541 5.5658276759162835 4.798575445263152 0.7393163431523848 -0.8666211737493462 1.3629849803307623
Ni 4.8818934203022755 2.7174063950970146 9.947069473504667 -0.2827544990592549 0.3768072524713059 -0.443313720833972
P 0.2914433361487155 5.658171848266565 12.744643267063475 0.2601755853174745 0.7651572154748887 -1.562483045262522
P 4.101414223568211 6.187896064193612 12.549589389034896 1.4256412217094028 0.7596316576709692 -0.5766444459100392
P 2.599657573520001 8.481288498163146 1.343459498755159 -0.5849141421179991 0.055526829422710824 0.43224460750400395
P 6.532231807291797 7.771131261743878 6.0038723865862735 -0.26841211429465384 0.5220280441167396 -1.6388196123417322
P 4.957107184942049 1.117413585333124 12.668933957190037 -1.194049618677208 -1.864714422099466 -0.9360072776526526
P 4.232510942448318 5.929821562045319 7.823008937535975 0.3585387931794212 0.28817181342008436 1.248824400425243
P 4.880629552642105 0.939017301214127 3.734888965089597 2.3360832492984414 -1.54182423136159 2.4270895025746846
P 9.58775462549019 5.644423877747303 3.58311209796279 -0.8284212656408572 1.2457303348809514 -0.42746338406527673
Ni 1.5278887051225223 1.1325163492435038 2.8582576263931694 -1.981165340701059 -0.38536516934364595 -1.4679494955593106
Ni 2.0441559128693383 6.667829349853806 4.939879486699426 0.10369978958351174 -0.2499323103229115 -0.693160927642245
Ni 6.051207412860233 5.717009888762693 9.23767874099729 -0.19021921073299497 -0.5406238048410561 1.2086825380990347
Ni 8.723514645407288 2.6636783806801363 10.296002421559558 -0.3937531362970251 -1.6496303298039912 -0.10201854522634689
Ni 2.2339906539415306 5.327038521301956 7.051257701715561 -0.2058582028218326 -0.26334138463996587 0.084003596706165
Ni 0.4093240000356031 8.943982265235693 9.0680158733358 1.5590565360794761 1.0289937945837182 1.0059708513259837
Ni 1.3779521747900931 1.0901358660488736 11.536552178028337 0.8041474806951572 0.30370924693405116 -1.488796771321965
Ni 4.277601012425184 6.9351782765587435 1.572102251053054 0.31989099890023615 -0.5817514281193013 0.26143876830061424
Ni 5.764836823241079 7.904864826821463 8.065598787703907 -1.2928398867742443 0.38831293911806025 -0.3278755597676095
Ni 5.039231305133831 3.050203662937963 5.013285647807963 0.9360702696801041 -1.6466445077027898 0.3132516392068476
Ni 0.7506919272756629 7.445808088986814 7.018812673141564 0.18246604915013737 -0.4453760026796394 -0.19688016769293834
Ni 5.464363652751967 4.0538146034171945 7.653014190956526 -0.6083456336680619 -0.3784854115046772 -0.3335080754630385
Ni 8.059229440251034 7.256109736511043 8.99425055559002 0.5546807971547544 -1.2795012606838092 0.11163884192493032
Ni 4.617163154648627 0.2521315963735634 10.38800016687493 -0.23144299326947237 -0.2752641042194808 0.2013492592078855
Ni 8.000936954140592 7.01807526546358 4.423652286274227 0.4264030611215624 0.29470421522196344 -0.15446724994436623
Ni 7.004845571610718 6.032813137489553 7.110450352562384 1.1516534130991845 -1.057655681294785 -1.040094275372254
Ni 2.4921197115283915 5.44551474872655 2.519119198075942 -0.5004320631135187 -0.504509575617002 0.7561475557771106
Ni 2.3911194095919073 5.401033881147033 11.588838110352388 -0.3068866162207683 -1.2765624897704595 -1.4049230153254448
Ni 0.9247510540284641 3.554823284550404 3.587038271025104 0.932329314580433 -0.7836401047704246 0.6807209021066792
Ni 3.666052731218482 2.2520212263884205 2.9172511498892173 -1.0136540789028543 1.618238188645955 -1.719253489418768
Ni 1.103001856977945 3.5809462470516213 8.573680861150828 0.8635487054716096 -0.6113671941032052 -0.7801601166416241
Ni 3.4907479219516997 2.6820453783315314 7.054943830848172 0.5626884979505793 0.4390102083626117 0.6025740212916074
Ni 4.339548712919717 7.157437133286815 6.150511949914546 -0.34845312680864504 0.03272628658842751 -1.7054142695428307
Ni 0.5848970402086802 7.388379397320373 11.312247492353947 0.8489355835441251 -0.07922854391502485 0.4364028526467517
P 0.14882632715756017 5.550288468497355 8.007576351014379 -0.04326369578464161 0.5018978490257678 0.25678995667469323
P 8.514349093935657 1.611040286074012 8.124273161884329 0.38227367490251585 1.3653210846631065 0.06594262543939612
P 2.1206608228885657 3.3220988761902754 10.58650103936373 -0.40335543527347945 -0.3903420537329471 0.1670689978687768
P 4.108524615728306 6.07371153126974 3.929144515200457 -0.6815711659221164 1.0815083195426665 -0.6205493748231053
P 6.877558640857312 3.8911666558983047 10.139355572283204 -0.10958375916811451 -0.044569559080258725 0.31037997408600737
P 6.3326771055813165 7.745835723394284 10.155058446017838 -1.0423085094147533 0.6480005290555226 0.5795845023749696
P 2.4426015584543825 8.540708463337337 5.98242027888383 0.3901209388610765 0.24139084851080364 -0.6960405631828851
P 6.795861871600982 4.042521627633515 1.386563750768131 -0.27955887494009274 -0.39093495012193963 -0.04716611616284135
Ni 5.162299281971274 2.704722255629838 0.6871412061445261 0.806404909270766 -0.1329579151176807 0.979040602594043
Ni 1.4628404372026802 0.9963368820034315 7.095904963382712 -0.4184290417771503 0.4387422994132057 0.5159286160872211
Ni 6.751335541155991 0.7578805155643723 9.158549714382914 -0.14661124423505717 0.5688036097093817 -0.10419986914838184
Ni 2.5953749715923737 1.4292161018982943 9.380658543654924 0.26530879277898184 0.19306259371906107 -0.47156140282575565
Ni 6.542906488105034 2.1363364189039147 2.677017185410135 -1.2458609469215445 -0.7286012707277258 -0.3768604743067445
Ni 3.995076581225109 6.755863642557177 10.119020941814105 0.8641308032273247 0.5631705797933204 0.6079645961795593
Ni 8.137843827228243 7.701845854761882 13.390275967773158 0.29323328710339175 -1.2881566223659622 -0.017535694890918187
Ni 7.859201924739627 3.8672077257936386 7.99712989378582 -0.0033295785938652336 -0.7797335706271667 0.36760990224275397
Ni 2.9863556146666275 8.218995042098888 12.239355341328569 0.6689053975289899 0.5925328350055216 0.6340332682421532
Ni 0.12953552407973834 4.917236251921569 10.577743982216177 0.35826728468558944 0.4508015445705849 -0.40864265181434783
Ni 8.850492428675473 2.188791473087528 5.691536135980441 -0.3107070184081229 0.7244988185235781 0.2332905880011724
Ni 3.5365563052030513 2.743038358651115 12.19385519630513 0.04491331557292265 0.3821191516025225 -1.5962575706098057
Ni 1.2026109952309323 3.4030864247452146 12.774705132229338 1.0943980310211412 0.03002842804129022 0.06423772693314744
Ni 3.1959939799391863 8.195736240122518 8.097231849500542 0.0014027938847975842 0.5763829647185365 -0.020466495384467976
Ni 5.6803668191908505 7.798099833542906 3.9459648661684352 -0.8809435039092893 0.7778970316390602 -0.881098798540231
Ni 3.157905191245278 8.560312050929618 3.526952729500376 0.24073933096973377 -0.6208216546478856 0.36124205104319723
Ni 3.3995948766768307 4.4755736064171785 9.109017922449263 -0.18299981016642033 -0.7113021173276459 0.7761872480368053
Ni 7.416830058533845 6.277339705726669 11.32387871185675 0.15591452391385408 -0.5415370606839448 0.039667750903267164
Ni 0.8180206125276684 9.259512736769711 0.21190059745853213 -1.1460993160501747 -1.10634903273543 1.1586439854844044
Ni 4.886012355914198 0.1628752618462585 1.6557557420393743 -0.8972329850979321 1.0627873460943955 -0.36936776547412514
Ni 6.329212835232218 5.850197899454592 0.08637671662819751 -0.3811213064656275 0.14785000173816473 1.270934859171037
Ni 7.947190754577524 8.921987330919492 11.058012783823568 0.24449288447489506 0.6214094088305556 1.013455589738803
Ni 0.03933447120788893 5.147614776423253 5.72157163268433 -0.1806606205102824 -1.0660570179846027 0.11967559618647776
Ni 7.846754192172915 9.100301781880637 2.4151047081585486 1.4602367002960852 -0.5729392291443101 0.6069690650355095
P 8.519204527968252 1.8244611617539863 3.566970052947681 0.7596326861122337 -0.6905679701040881 -0.3461658734363651
P 2.1015573268164958 3.3224171162485914 1.7867988147382219 -0.2832234682758735 0.06995328926068599 -1.5964768857094633
P 4.767336091881519 1.3833349780621853 8.23740386558652 0.3475781804028594 -0.6581741271544149 0.20979121932765157
P 8.578951825773856 1.6683780520095064 12.389455537976703 -0.4309068625291869 0.04590241895906933 0.8513755604441854
P 6.450662334058795 7.78870720553603 1.4394752521211007 -0.19627775822224908 -0.9617465914002856 -0.2542319661395299
P 1.669987437447277 3.104049880805073 6.1712721128044805 -0.8987126549672521 1.3971461995935035 -0.3582842539664539
P 6.891579388569417 3.8318739867474396 5.913844092603225 0.545132748455003 1.2933106557630758 -0.6960886428120012
P 2.3775896608269194 8.346154676828968 10.198775537457397 -0.502096081079503 1.431921912511792 -0.45475178746758455
