# total energy = -340895.8735730026 ev
CRYSTAL
PRIMVEC
9.03913698261308 0.00000000000000 0.00000000000000
0.00000000000000 9.03913698261308 0.00000000000000
0.00000000000000 0.00000000000000 13.22969066402876
PRIMCOORD
 96 1
Ni 6.56191614993899 1.90013502085003 11.474189837482255 -0.2928388798784505 0.48596318007338246 -0.2885839612568385
Ni 4.699908208028058 0.24871094459491602 6.10223446463406 -0.7947781236651151 0.15367380750879342 -0.14756898016263617
Ni 2.8408470247074855 1.761311958178942 4.829975058900116 -0.5808294305256643 -1.1783406925823836 0.3611932000831328
Ni 3.3224974280431367 4.234492094349736 4.771777480654151 -0.23769463060613905 0.2498783171565245 0.7480840620426858
Ni 5.102005168560723 4.646523066203897 2.8067315146714638 -0.35830533701237643 -0.448704295721924 -0.49818183362676144
Ni 7.271840913523088 6.020354348023838 2.599832905080953 -0.5240679573649039 0.636092207653711 -0.36450683783739807
Ni 5.195171551354766 4.615084948482186 11.45044221733318 -0.4136131084457457 -1.2658278769617748 -0.6354409472229573
Ni 5.7420664439702644 8.020570691304803 12.336937478782692 -0.44456224852909243 -1.0401693515845636 0.3749408886865285
Ni 1.8442369990009604 6.605665571955403 0.46029905834702106 0.39385340932031526 0.2775454440544898 -0.43206257340018495
Ni 2.631591008244685 1.5509170104818302 0.26274058879154294 0.11965939823656167 0.05943567755881377 0.35632918712261213
Ni 0.49073835145451483 0.02446713543678221 4.701143858025918 0.40563034735058534 -0.05767395767270068 0.32705563496947543
Ni 8.736633028762691 2.3172369484379116 1.5450027032865121 -0.15595489023348624 0.5885455682229992 0.1477456149498165
Ni 6.832249613625944 0.8160722507082588 4.92619395818485 0.22093078088423884 -0.2744045844326629 -0.26088649534157005
Ni 0.7876495890164389 7.638567731834634 2.5877674653066745 -0.2757770393001573 -0.43642110747919677 -0.17847235460971198
Ni 7.713655841068175 3.8952080953030315 3.7831887849264207 -0.3632727083199808 -0.31121661105468984 -0.6939422858929597
Ni 7.671931185690539 3.810574657629546 12.737638796596489 -0.07799364306665924 0.21467425845156574 -0.3354186622221901
Ni 7.939697534531901 8.719386355785973 7.1990017415204735 -0.3384353375613268 0.8554001082225461 -0.8904488722965633
Ni 6.963027844562609 0.6001543904384137 0.39720949927558424 -0.8957944528791928 0.6274273328898614 0.7829124825757806
Ni 1.8747169682239655 6.451837542229099 9.190150022783492 0.013587765986763697 -0.26686559574314045 -0.08827522749832539
Ni 9.128262668903828 4.897214485667367 1.2748409831983836 0.13388248381447912 -0.9120564232640099 1.8224791675793386
Ni 5.998904476444304 2.172655955637804 6.9809506449704894 1.5278924517718462 -0.05108833403538298 -0.24640938477131755
Ni 3.350365086736649 4.372962630686395 0.4639626204840566 0.4988526344415408 0.08123503282209235 -0.3917906132540156
Ni 5.988843917207885 5.708368542053491 4.786845721666829 0.27377080750340593 -0.18675336367158157 -0.0067332049587755
Ni 5.35766811325333 2.9233020304169313 9.306716922874244 0.4058293507352688 -0.014206116297052953 0.6011316324181261
P 0.17848046746708132 5.600658188180025 12.570547641472523 0.6761358538391582 0.2240978657583108 -1.9400657424472716
P 4.078295810787007 6.170114766199029 12.4977581847222 -0.33479825502937177 0.8378212187985183 0.5346830138765888
P 2.3363185661810206 8.60746376417291 1.2521726359808711 0.10078235882640063 -0.2608067911435702 0.007418661061574319
P 6.443295557971762 7.753238221028893 5.694151787725512 -0.15745410048683206 0.33608972014728566 1.2849846523958839
P 4.888383249033062 1.0230043051048567 12.524547474397828 -0.45916842847804146 -0.49404724263309757 0.6425978699827126
P 3.914380104413943 6.260162646803886 8.162797892887333 0.6406993674084192 -1.0241061274741137 -0.20441632816898345
P 4.554839101841815 0.9517849464132626 3.663817040692754 0.29716244695446886 -0.14646880511992194 0.09390002988427053
P 0.21478254469024557 5.689305002583942 3.47161606750693 0.7198006417169603 -0.7735526386274355 -0.08763270881832004
Ni 1.6810896192542184 1.1613121369794706 2.664631764917535 -0.49956714401006225 0.4089447564357989 -0.12117454932950743
Ni 1.912473442555072 6.473070474525907 4.752224019971114 -0.27145732887888085 0.7943613478426708 0.8694979810765091
Ni 5.969644790686632 5.529999255968806 9.34398437990554 0.002841583213853171 1.080365464187475 0.1459854377256002
Ni 8.531742915364752 2.2631557930816726 10.087612468888482 0.8246432866556637 0.41381571137485507 -0.2828082351153259
Ni 2.3336339425572863 5.299320485336812 6.935201765898285 -0.17715003625386266 -0.5482805500553654 0.7248461745606678
Ni 0.272446813866176 9.188101754389086 9.266432201985703 0.17702430930927576 -0.37818279266259386 -0.8412826949845575
Ni 1.2839461056771297 1.0138747769568037 11.341522426958516 0.7777594776199315 0.5061427403450508 0.5258679866881202
Ni 4.275909419076845 6.6902628530817685 1.456178721801702 -0.7966280323896603 0.9044534141057715 0.6511632430542206
Ni 5.87823200042796 7.710953139170881 7.833114361014933 -1.1939858553188083 -0.41441837795586045 0.9104484553469417
Ni 5.099582679903616 2.757976218706149 4.725076780478987 0.8090847700957743 0.3471176958266732 0.4365496626372611
Ni 0.7159592912985938 7.350589873152632 7.021234461945354 0.650702244257402 -0.7086672508079601 -0.34426068599385223
Ni 5.234799126999384 4.630677459428118 7.281290427113162 -0.6693663963258084 0.016974937291441734 -0.8218186727226748
Ni 8.195848592610641 6.988228957905948 9.179579656232665 -0.3722826251280749 0.35359610446216516 -0.20171846962184614
Ni 4.780591542928574 0.2938623367259456 10.29002676272231 -0.7601813595268522 -0.7522327941037368 1.0028361623517439
Ni 8.25314768066065 6.9695631404547305 4.878884924104375 0.5362285039868379 0.9568992906103133 -0.3300417141809929
Ni 7.369418395065893 5.914243921360478 6.856789966070647 0.42546049470263503 0.4078170705892589 0.35316955844770787
Ni 2.342465179191591 5.248086658066352 2.6943452153415746 -0.2296329366439271 0.28728401149849236 -1.1223685480921382
Ni 2.4160708699931717 5.333054543800707 11.42580876177964 -0.9417572927625523 -0.6054050629824993 0.3001377275327089
Ni 1.122290183499129 3.4197133441147316 3.833950769256951 -0.1055044468924183 -0.655723094510761 -0.6273553420013454
Ni 3.7920625055035924 2.7017979836168915 2.380775752607327 -0.383065831786508 -0.3710806344001738 0.3980880162269531
Ni 1.0944315639423967 3.204907297668857 8.2551941412277 -0.6310181355649133 0.7989332834840692 0.2048649856706278
Ni 3.627966016394924 2.7485574381811273 7.165570494138717 -0.6560282844560057 0.1450762956477695 -0.1316034579723153
Ni 4.238143905608958 6.805954764732195 6.009718899688195 -0.5903435406636864 0.890510321662118 0.4725787883466765
Ni 0.6761644916235406 7.324774098508236 11.19001564755738 -0.19887200131198654 -0.5727188856033878 1.0608219948379085
P 0.2927306368010582 5.421827906119549 8.155376761590748 -0.5241353202677296 -0.21755569376441886 -1.469303952704676
P 8.185995933520168 1.8607063062145772 7.800502963339144 0.34665746836080297 -1.45424860103345 1.296020341384755
P 1.9461623053350658 3.291086427731766 10.534921383768605 -0.09163411666822928 -0.6871358044940876 -0.8497521659081494
P 3.9707210439652445 6.14880952080798 3.9366534413541587 0.04165367098504439 0.48514736904030636 -1.128368988649947
P 7.075149297184836 3.8253898028123765 10.424771366878149 -0.680202567709364 1.1437156463093465 0.5811369344637539
P 6.36385058481014 7.645952706584098 10.278424126751181 0.19200458476819193 0.2639689909216357 -0.90994914711302
P 2.3216751645970146 8.44940541843345 5.842654861974571 0.5298169440335392 0.08924221939728501 -0.15734868525721935
P 6.756772821510852 3.932458377974444 1.5943365040057635 1.4940983860405366 0.5630350826567208 0.4310187055167029
Ni 5.3864668030352085 2.9344292077934195 0.33723844239333395 -0.7572808980506055 -0.4265719825992589 -0.6132898650472147
Ni 1.2199309389993953 0.8977128301938038 7.0563732022649 -0.06399887144946396 0.8651679862425874 -0.38745496199313917
Ni 6.75491075933412 0.7221990074180008 9.062351091329596 0.3342750355360501 -0.1875522054237931 0.3015009264288227
Ni 2.5465508094160882 1.5070500796872741 9.168625126368681 0.510845545137359 -0.2488197939850231 0.7096432415679843
Ni 6.288491301473191 2.0396992927370987 2.6336211983655295 0.43275959946720954 -0.25843006338127755 -0.22271049849248092
Ni 4.039418483495149 6.8019865836856646 10.273344131880679 0.6560195427052572 1.036321438593383 0.5718308265714797
Ni 8.038956295515833 7.11963992841723 0.48216021065005704 -0.46505111251106357 -0.1425329604006255 -0.08976800999376798
Ni 7.44288849881577 4.002891331766157 8.221564936750454 1.4611774669427997 -1.0983737278394372 0.03539200634604872
Ni 3.2338686919127797 8.460306617390431 12.171063895383027 -0.49287841913597696 -0.5655521926516195 0.32378750574116494
Ni 0.18204550301321212 4.721764840762702 10.281837304799403 -0.1237022008473676 -0.072730594895507 0.5821337511593845
Ni 8.489512068327421 2.580194476512181 5.801656049280389 0.440198572243758 -0.32674555992822435 0.2556303891489533
Ni 3.823753719055151 2.476452303685245 11.453061759172096 -0.6715993994213852 0.9359964790193751 -0.6579617540332927
Ni 1.0554728844195167 3.2467765792349774 12.571870067183472 0.44087605792675677 1.2423480486722798 0.24205033647167346
Ni 3.1262848859542376 8.320344623485033 8.058865898188012 0.5300925662924291 0.46342591820281476 -0.3897936374286448
Ni 5.632087266764956 7.945572973439064 3.6803939136340555 -0.9410623235780567 0.2926586455468444 -0.3317751519323318
Ni 3.0344472562668923 8.181946400242616 3.4744073529446715 0.7697090965116292 0.7865745048084002 -0.03967726398496392
Ni 3.545890654430249 4.324702679416637 9.289901416721946 -0.8024860338323341 0.4651812103310247 -0.09721932406549064
Ni 7.333605335142541 6.049198233489618 11.48016922646239 0.20458962052205412 -0.21108011334240423 -0.44942728993087755
Ni 0.25135579601681735 8.989078040761528 0.39937798818916637 2.0294953952650143 0.5977681152625317 0.21068313501430166
Ni 4.534519122359813 0.3599257717980848 1.3960892522276303 0.030757592897830904 -0.600393982921153 0.4536796374493283
Ni 5.97636990845114 5.556438731051039 0.22042115821376587 0.4997730893732812 0.31966011383635273 1.2820803342648952
Ni 8.041261275394795 8.97500410479468 11.359739903225435 -0.8136574770681212 -0.6019057915799891 -0.20863165180191168
Ni 0.3268588016285722 4.855001716903596 5.59692592860346 -0.7917691616354622 0.5172365362653674 0.7635777868029108
Ni 7.832285472172184 8.999834613530027 2.6899793122767135 -0.0924067331681957 -0.4582500304288301 -0.1407974657667575
P 8.585218448556715 1.7335889256739136 3.739980807203145 -0.2675711064505973 -0.13903677432190892 -0.5698716459625799
P 1.8337696786094304 3.3407474452024624 1.6070373950956935 -0.3775009361042208 -0.9712414182645983 -0.12612186603245376
P 4.639074817496971 1.1320976469057007 8.359669388047513 -0.6722925688336681 -0.6314727066038286 -1.7855848656561506
P 8.569779602936046 1.7284727742562918 12.571327718976658 -0.47727799359455864 -0.6292168206901164 -0.4029306890312351
P 6.207111953040595 7.81084463972943 1.5509829961803259 0.8398091957628245 -0.4226914165979301 -0.6489752342639662
P 1.6965013474645454 3.233425774210547 6.170169001019712 1.019341873316251 -0.6570253582619523 -1.2351713284181827
P 6.745989131332013 3.9465323139412947 5.761821477403503 -0.12601773635442168 0.22157998443246354 0.6935972438487152
P 2.164466497714897 8.418654275107038 10.082981719115958 0.978538980367276 0.9287817064384908 0.5510786816257929
