# total energy = -340896.6747618594 ev
CRYSTAL
PRIMVEC
9.00882698167997 0.00000000000000 0.00000000000000
0.00000000000000 9.00882698167997 0.00000000000000
0.00000000000000 0.00000000000000 13.18532891388111
PRIMCOORD
 96 1
Ni 6.284864083189201 2.0183556405305287 11.432418699191125 0.9635317083251664 0.4506159109223401 -0.39223412854933737
Ni 4.640149546518679 0.47601110881461617 5.816971729354661 -0.24523644750913895 -1.0410116449802007 0.16197564250626942
Ni 2.687432220218988 1.6094089432762515 4.8491417228178175 -0.059906446547645216 -0.009420007762319261 -0.7110012982577755
Ni 3.4048681837656884 4.381686297097495 4.880404154610825 -0.7638876047338458 0.11612901648580001 0.0788163960782707
Ni 5.030465989335766 4.593961289990885 2.9427018404341836 0.3168362712343124 -0.4440066331359386 -1.0798083061324242
Ni 7.02529057348818 6.090534673873608 2.728492652363006 1.294100755764539 -0.7316997071473914 0.14308754735251486
Ni 4.901684805980038 4.3871726727997435 11.38832679672887 1.5431144109279231 0.9134833855185236 0.05135572876415672
Ni 5.708731572663458 7.712952363478343 12.350341605374414 -1.3688915756231845 0.8219801380012038 1.1413761995428924
Ni 1.9310330794765194 6.512318949741521 0.3462425580090259 -0.1153304318439046 -0.34045108243977495 -0.9766312218216018
Ni 2.9242112228170005 1.7108663540459053 0.411067375152979 -1.0618872028776292 -0.6479735324723292 -0.3097996761025052
Ni 0.6556128875915631 -0.01828341459394537 4.350789623684638 -0.5457135606591376 -0.2194631951997769 0.7010038207254314
Ni 8.737066819070911 2.2472248929371226 1.251303561745517 -0.8744915776363584 0.1829689569284849 0.2766010778633494
Ni 6.989858856514546 0.6892419382630283 4.86869628291519 -0.4641368282269103 -0.20623101278021902 -0.5875976024874332
Ni 0.8503936391447299 7.3397346744919085 2.4136269382511233 -0.8700289138793145 0.5067397504991015 -0.003831715041264369
Ni 7.475380584095769 3.6944118866725146 3.9352673835320493 0.26303722313598565 0.8025829644215146 -0.6604222997586432
Ni 7.463173623378944 3.8225354256501403 12.806013485251484 0.47954133570743873 -0.0922576091848411 -0.3617997233188801
Ni 8.015369680307193 8.645573171070858 7.003440564246418 0.030738309624121257 1.4910567710007352 0.6402334835155941
Ni 6.987444490852473 0.5918087705577327 0.42353018655936675 -0.9991309455860149 -0.0012089327064366277 -0.5286319225865025
Ni 1.9259430921665517 6.440131218210954 9.258553586189926 -1.0366610813209887 0.8178987688429785 -1.6060822700097115
Ni 9.171436426393733 4.8613612958925785 1.4067166397662465 -1.214945745399927 0.1094022392849277 -0.07726190710695725
Ni 6.2765038916429186 1.962212630060232 6.951792958497667 1.167130425688861 0.23436736600511895 0.033172372986910614
Ni 3.439993600618013 4.2068700072746275 0.35134065326338104 -1.0532806921555409 0.9781474013558122 0.4069326111017766
Ni 5.891592745084204 5.721641221893871 4.871227763329528 0.4605233998440391 -0.3697871123997309 0.9255824827749027
Ni 5.276488048535595 2.915896075406204 9.263457991661689 -0.06781515987176062 -0.770842438785124 -0.6266084365329919
P 0.16158952987862985 5.6341925372605 12.406089128335138 0.20285515432945064 -0.44498416655785944 -0.499426761777456
P 4.028954680930293 6.050517463907457 12.513879744554187 -0.5216706607773209 0.6316102606229573 0.3830146668335984
P 2.375024114139246 8.498999554197987 1.296163917159171 0.44073001926719585 0.4508262271609333 -0.6407651876493481
P 6.337268430414124 7.885759684858516 5.881856905640165 -1.2413016096856364 -0.570123871182702 0.044948796796548396
P 4.706040107908241 1.0157632728733819 12.445658599594557 0.4539339195519795 -0.2951104495214466 1.144177159326797
P 3.859111263665128 6.183289557667282 8.148718339001247 1.1215920749374297 -0.7554641565568408 -0.40689301611309275
P 4.553097250277588 1.077491756143997 3.5988957973735216 0.42671185061123285 0.01723770403452515 0.7971738775908013
P 0.10118354242589643 5.625571089728395 3.5317295860669837 0.05203424288842006 -0.6071356725203608 0.6239046644485836
Ni 1.548148919014695 1.1668503121219935 2.4189412453558137 -0.28082617168829055 0.2859218410436431 0.5466869803160004
Ni 1.8164678252803117 6.513436044301584 4.714770562248223 -0.1825771208067049 -0.4426622032929022 -0.23593959558824526
Ni 6.1313266429701265 5.5576084981064575 8.969056729184004 -1.0852024805648022 0.027498976751217152 1.052309072270891
Ni 8.603889328091705 2.3760601292554338 10.139900654358225 0.05951461042586525 0.24842692942197864 0.559966728144042
Ni 2.2588372710655267 5.1473915562314625 7.083633539535633 -0.5249902120688571 -0.30558563802115757 -0.640603208150187
Ni 0.6704405161109889 0.1513825287774029 9.154442174957412 -0.5590336748068114 -0.5967142200767207 0.08462786055372522
Ni 1.4248180760528266 1.0572849569647806 11.417149638143933 -0.2946044564193055 0.8404375733754429 -0.38361836185586834
Ni 3.963883922806584 6.952832577144695 1.5734709302197514 1.2747650315504044 -0.11551452283025268 -0.21703016027825203
Ni 5.625787301578731 7.774572740823791 8.034585508505709 -0.47759346795244845 0.4119568037892454 -0.12067472687495345
Ni 5.201471545296481 2.917562708419202 4.710538215277917 0.4621871606997073 -0.9416241096187976 0.6033826332358317
Ni 0.9118464523061682 7.326266477981463 6.742977355209636 -0.2440930779333151 -0.11393432282732636 1.0025641396372797
Ni 4.8671179364077455 4.5141250642547215 6.8910617523867215 1.1991578864380508 1.567510066163468 0.48340313265569007
Ni 8.121313486971296 7.225845082327998 9.270209206688397 0.5221172613964363 -0.31473156618648374 -0.20473823028477642
Ni 4.784083577052044 0.24263564109395913 10.386531710269832 -0.6692908058928667 -0.12261513843077593 -0.6869002914445138
Ni 8.017234507516333 7.171368704870699 4.783558362432273 1.1191608397881179 0.17036669478344207 -0.8107696139973649
Ni 7.3561037133276805 6.288278428659073 6.989345353370001 0.07014895021125983 -1.572178161063099 0.24311194496696842
Ni 2.2199731909678273 5.441926149350186 2.5416829110255197 1.1473154478454628 -1.568425378888886 0.09534884651565514
Ni 2.2243604897642064 5.2163541276612 11.249696262707676 0.013217270021222399 -0.4656231829644497 2.0642860205816387
Ni 1.1849670634146392 3.4363540344707086 3.7250400970378736 -0.8949598727930395 0.1641983611892011 0.17385979553836511
Ni 3.6348094865968594 2.783403255286394 2.585471216014596 -0.6817436869442387 -0.20642153152447032 0.0969652990731556
Ni 1.1170314982739926 3.2391868446194705 8.268519523506397 -0.10448500448896844 0.18536291108195818 -0.6076331809820696
Ni 3.7203663175398 2.67241450544781 7.103213324348879 -1.3532165880900888 -1.4673877095185694 0.03307287129456885
Ni 3.9503616733335556 6.8154479639110574 5.981907137617223 0.2624692664476576 0.8377793098169893 0.062181358624750965
Ni 1.1111217076981719 7.440147061318277 11.299747504294787 -1.0432742157621324 0.12835409779708218 0.11272179057646392
P 0.22991337546716942 5.554680629299838 8.023892030741226 0.02084547599044152 0.23421464247733856 -0.44518779792823326
P 8.399235802922622 1.6519125895212547 7.964176119444146 0.5679978259786347 -0.7017592108342172 -0.25662360630015807
P 1.7204427372503222 3.0999374041766945 10.410305104096864 -0.10454593963389092 0.5402216843066309 -0.05027535121578438
P 3.934641270048788 6.185974188142274 3.771149075887211 -0.542089333642989 1.0655271136230617 0.13859840123290967
P 6.92777002016004 3.951703988571051 10.327158134402447 -0.5101271789140956 0.484606666045488 0.7462071567349471
P 6.197136124915813 7.583054085562552 10.250881296252423 1.1938159053998472 -0.39907223451709334 -0.7064345048226994
P 2.3678440789427078 8.527971942142864 5.61104345515131 0.5270974882198471 0.15000252930479327 0.9422275475307513
P 6.742602588002389 3.92639819325477 1.7455926798578203 0.7997192697204744 -0.4805947166726175 -0.13867733409996116
Ni 5.192381638755318 2.8118531312596287 0.5430917362637301 1.2321952765089939 -0.6052500254618737 0.04312382777266767
Ni 1.389692659200502 0.9961600651096837 6.996438903826405 -0.0472231946530219 0.6921036900223241 -0.5653994691238392
Ni 7.038101125620522 0.601048223628711 9.361834383564071 -0.9389964421879635 0.02470238784268649 -1.0353084239478363
Ni 2.794051688915388 1.504429081111558 9.226341624020863 0.7702911942673444 0.45983074465238866 -0.7496835453193218
Ni 6.474716105437442 1.8284135300113151 2.6518203267034104 -0.304764684781759 0.31484083807083846 -0.5188887271568097
Ni 4.022567422518316 6.647640541569879 10.284477915146338 1.4679093863499946 1.0558371400288076 0.9502252210242473
Ni 8.098016660097711 7.154351030483922 0.3515586668791354 -0.36709979537555487 -0.28692739949002194 0.42445467914594
Ni 7.600819492598403 3.73481647620385 8.181562720832536 0.5774923957326312 0.33740123986985765 -0.34811296986040696
Ni 3.1357474918884134 8.459910253422855 12.278652962865035 0.5580420003175034 -0.5843233026115356 0.48810465189641744
Ni 0.06304917732307763 4.961476391424736 10.128837814682756 -0.6780181584635355 -0.6181749610536579 0.5411768491310487
Ni 8.562367644000307 2.2534139571529597 5.659591123495884 0.9787909484770819 0.8363171234491661 1.3874937641054041
Ni 3.589936518825269 2.586551374383561 11.380297229137057 -0.3681773447104498 -0.5191831184687768 -0.11364455950104943
Ni 1.093401344797807 3.4410836686967845 12.657138113055256 -0.5559264966363974 -0.0937305941859418 -1.181044978887424
Ni 3.1533056959010266 8.354984444220745 7.855832361241326 -0.15614206654362786 0.1173304929930689 -0.03488755590580443
Ni 5.5265550711021065 7.932758735825065 3.803162843860133 -0.5693705379564452 0.4991238858250565 -0.8450635021832285
Ni 2.977417355653582 8.317345564608276 3.4132860318053937 0.7637791041804395 0.3347393767669783 0.6721089920679522
Ni 3.3352659856120437 4.325930666192382 9.421867405574975 0.41286877408055345 -0.46857943737929625 -1.463349534893454
Ni 7.054533226245975 5.973455956917257 11.511860338300428 0.8482048760256875 -1.1750108568782023 -0.6152454461116889
Ni 0.5724830346686312 -0.02393375094936421 0.18608723340428426 0.06883820181963629 0.13354206975592484 0.565379157408865
Ni 4.697049298465148 0.3910137260344166 1.5031804576758738 -0.03743089115294844 -0.7694956949492425 -0.057438187512810754
Ni 5.877043489322085 5.556887791938674 0.6191370475573549 -0.5261158410328681 0.45703107042006447 -0.9611930328896607
Ni 7.973082245912525 8.621816894015309 11.366043462903729 -0.03455074139167598 0.12047598060058605 0.3840536496210741
Ni -0.08482621506535117 4.855532584760633 5.668267524873282 0.6290394145719875 -0.09335547023471019 0.5465751373284844
Ni 7.979100142413513 8.711535803077197 2.440749813992928 -0.22757913943869193 0.6663744035770202 0.6814981465923361
P 8.49748607124564 1.7047133251384579 3.558904713005952 0.4878891934515016 -0.6738668552993233 -0.9435377817017427
P 1.6773985613794815 3.259339590836103 1.55201911113569 1.4509084809166237 0.11076389551914471 0.14332048929892738
P 4.866352186104476 0.8751922374954338 8.090333031466434 -1.0330060010669049 0.900319851553372 1.018871875658368
P 8.336651481077764 1.6420118885413357 12.249790482610747 0.6660419599382659 -0.10364965307186665 0.5743739047083075
P 6.235847054952858 7.663178593765829 1.5509641774825975 -0.3296596482512258 0.6062578979010977 -0.8418565652101567
P 1.7627481892991852 3.2715375427258304 5.952107739344815 -0.138816945001619 -0.3512980524566079 0.514652577588275
P 6.845420331663733 3.922650521182298 6.108235217354359 -0.37182008366935965 1.0261398700746909 -1.018194647085685
P 2.601677195079907 8.562016299743513 10.060933780436951 -0.6265631851173532 -0.8557029841749457 0.7364583048782993
