# total energy = -381164.80334836885 ev
CRYSTAL
PRIMVEC
9.20138548143752 0.00000000000000 0.00000000000000

0.00000000000000 9.20138548143752 0.00000000000000

0.00000000000000 0.00000000000000 13.46715774238936

PRIMCOORD
 96 1
Ni 8.36560542263754 6.116115059483022 3.1361101241119766 -2.041817921386109 -1.0165211160380043 1.563557252163307
Ni 6.044316646964279 1.9689769190885946 4.992423436566969 3.984401802269544 0.041192157967593575 -1.0895584435406527
Ni 5.217664156808711 7.408035616921717 8.461523427458653 -0.3276313049672874 -0.21184861607731256 -1.5534882979630795
Ni 6.642811577615199 5.398747427136645 1.5292224540394752 -0.03326724669356206 -2.196323223657262 0.15182929810088688
Ni 2.158442651777745 0.7218551481461192 3.2327375557695865 -0.09566637775607395 -0.5149443977970809 -0.7706573193575115
Ni 9.201247666609692 1.3706844189227965 11.062960352186048 -0.47368153449255196 -1.1763414027641677 -0.2127616148098852
Ni 4.479087330452889 3.668555668021638 3.4707691222553763 -0.5892382234146497 -1.8003787361358734 -0.039403698608603106
Ni 8.182074583716759 6.903707667395597 1.052746178850531 2.1980548616363884 2.2553069012803224 -0.8547313642902956
Ni 2.9079047174017556 1.223637074252537 13.208656324371045 -0.25671153802827407 -1.7742558137965767 0.2814895163039023
Ni 0.7765196603763641 8.791657184120991 4.5688542089419775 -0.0355033351129324 0.4651465004383473 1.0613202746305659
Ni 3.163013135584782 7.750087928464938 4.003287357111969 0.31046687737285883 1.0373385670039879 0.6381745441040363
Ni 2.827999884092417 2.3516901539844146 7.1330687681481555 0.5237478550213238 0.9842612275630338 -0.03674620638109801
Ni 5.72651918809303 7.3015571817471825 1.9887893427506935 -0.3374809440678575 0.6834634978488229 2.0510525526105
Ni 5.360331641891771 5.782932883742448 6.147057479272594 0.7033113858126855 1.961477889574461 -1.9968835227672643
Ni 2.2531157091153524 0.09906303844906335 11.079794287301137 -0.11830699797372529 -0.5773895516061798 1.1222595333180994
Ni 3.022636795537884 4.900704024035016 5.350111662808781 1.5694059976346002 0.2077235381653455 -2.0328859090038023
Ni 6.672486046457047 9.103630165852119 0.9180268507242432 0.1898541140840924 0.23960187493118093 -1.6491798725301339
Ni 2.84812331459075 0.9730097308992721 9.141695378302304 1.0057643917421326 1.5775178281084574 -1.2808996836932327
Ni 6.084784341217442 3.2275240506391083 10.599999992433318 -0.07552846935561831 0.924465338451324 0.13988215304133972
Ni 1.8594344224801571 2.62510012829967 11.266503284838345 -0.4748205331930016 1.0744575833434722 0.5294492762814753
Ni 2.9199033243381183 3.3901677440495024 9.371391409493881 1.2493810442596613 1.4913084820002251 -0.1338701425193049
Ni 8.71535929400111 1.8490828635818377 4.098338591401328 1.1927144448055524 -0.018731772081548383 -0.7378140475752455
Ni 6.211965894188616 3.943658697303374 6.947289110565374 0.6061229149851303 -0.6032342805834257 -0.6182942602403417
Ni 6.822671063646709 5.97539826816569 8.270787903544642 -1.1497112017711488 -1.2968364095281473 -1.2265252227074102
P 0.9568336948608316 1.3290297459159597 6.152861713364202 -1.6293522962812457 0.81259098347682 0.038632110549901205
Ni 0.7788439304010002 8.422985263784135 7.106578898892714 -1.1048421091726006 0.9399150973474909 0.7252210414015833
P 8.39305315614304 3.7473563350484893 2.4706171438554265 1.4916967185775794 0.6332321124970965 1.4584040179627207
Ni 6.615465059352261 0.8834747273295062 11.702314035981846 0.9835965973958417 -0.3157093567187208 -1.2036933124145592
P 1.107837635376671 2.4934006949559855 13.342883378363057 -3.069089591072398 -1.4048237707434192 -1.4385916112224837
P 4.932301582485531 4.061215600845532 1.279838217892577 -2.621352287249434 1.0366983623168273 -1.9116645655967592
P 6.139339356958007 6.275547469288515 4.086056581785793 0.8997452099968247 0.2422650235856408 0.07035746667764012
Ni 8.899617042391196 4.216516588477385 0.4499808851020903 0.16030416834111746 0.5635086798590294 -0.14139267614859521
Ni 4.970036465189537 2.7331612018124374 8.445146801212227 -1.2861439628113074 0.7079612258798711 0.8261188427599255
Ni 2.0561692498623496 2.841249879482266 4.33596713719401 -0.10479430819927113 -0.7596188021551628 1.1572938992144135
Ni 1.298711180075993 6.775320732899375 2.826097037532264 -0.8657459702332445 2.216341061540086 -0.7313976025259403
Ni 1.980607470597462 4.847428000904999 3.2321045004342936 0.7957194045324618 -2.2299074873706113 -0.903052934213819
Ni 7.298723154955465 7.893749163202237 10.741136366937996 0.4828578016751813 0.17231250565590325 -0.7348706486762053
Ni 3.267945737963834 6.23876032931031 10.0424190232414 3.0552742824558607 -2.7046061502737677 -1.1703908416076876
Ni 7.665398374598155 0.47029846483842724 5.644786039447607 1.1602103015302598 -0.8632466008501585 -0.2326295573784058
Ni 4.152695777349614 5.829795541048351 3.3560425649506604 0.4595088425365957 1.1435297555507855 -0.639511260637589
Ni 3.796832185889612 6.486378819543797 12.386889770015484 0.6865994723746434 1.3113356315855869 -1.8190071498703382
Ni 8.670456531846623 8.824285297768494 12.553640041858165 -0.7818729855676728 -1.1278876781381544 -0.4983132169983031
Ni 3.6621607049688985 4.98451024487581 7.445089597084857 0.5882946285544577 -0.6475279602944783 2.0333258247546984
Ni 4.047054668272632 4.237054081331651 11.361446862915162 0.3350214267837714 1.9341138957392108 0.009987964450647315
Ni 2.6768027144771422 3.2764754224960497 0.7601034681714828 3.3915920594535525 1.1687167963393743 2.3323173544981057
Ni 6.526469256983777 4.461834732289024 12.763297295299733 -0.5416453041270349 -0.25112273108658684 -0.14010352502352644
Ni 7.179040731319518 3.9455081758265402 4.250113608037771 -1.1362918430414495 1.172281116651865 0.3325426262259757
Ni 4.642522343032399 8.18914124792468 10.354184053655993 -1.4543234201354438 1.8836220576372464 1.1051979498501223
Ni 0.9773343821723477 2.3900415295294772 2.2053145104693352 -0.34398094996990436 1.223523202656293 -0.4992138744357015
Ni 8.674137086121581 6.9241991533214255 8.821891097212633 2.5098432860341484 0.6765066069150155 0.39742184339786396
Ni 5.616479816657473 6.248900256337819 10.862717036441252 0.7867472829408386 -1.691506401212487 0.29998860354935436
Ni 0.8867679032670248 2.8432465801764306 8.697629143920071 -0.043989775317388756 -0.2833137139968347 0.09945181294043517
Ni 2.773527680823039 0.3416594123743701 6.039872377677267 -0.22376362234734368 -2.2730567690645755 0.46238976362881656
Ni 0.5125116619564892 0.2543088177667918 0.9560837819273089 0.8976258496609767 0.3577240105876097 0.8969079976583456
Ni 4.058758830866998 1.301250762525714 4.6464522548594855 -2.196411926716327 0.5832750638526794 -2.795174287571328
Ni 4.108887980091926 1.0151888828902906 2.0461866665300947 1.2939989400793521 0.27706644753554216 -0.07848523799109709
P 4.536761615941481 3.137221651503014 5.620895561648854 -2.164097273744021 2.2827431431144043 1.7912050400564057
Ni 7.941016681478385 1.5455475525260514 1.9822305950327181 1.7223920350477497 -1.805544082386897 -0.2585215946538193
P 4.9999501700592575 5.0144607552882805 9.22066719110294 0.1025960149963717 -1.3128014174978357 -0.22867648626792875
Ni 5.316109782278151 1.829962384123431 13.276140207140969 -0.40222363566188146 1.4105061658401772 1.9129588589281505
P 0.38484519595958977 8.697738640409751 10.016858493940385 -0.5578211425559491 -0.34541871085769543 -0.7659020640607133
P 4.661237961520561 -0.0018890444816221943 12.107002020176303 -0.39884520610795177 0.8035784955655645 1.3506480560319643
P 2.60012756754408 8.081540243696281 1.8606766095479554 -0.34248379659908756 1.6707956510276967 0.1877848902598895
Ni 2.0763202845177444 4.8113493676247225 12.545748933492654 -2.1373989385172285 0.10966346336611436 -1.6417115891775467
Ni 0.9929859392266066 4.790462222114336 10.003728116564474 -0.7401457810322156 -0.6848650061820398 1.5980236613712928
Ni 1.6730235498392219 6.937881613838582 5.691423262804167 -0.043539318043531464 -1.7704611226408349 -0.5796336104453501
Ni 8.413379017126495 2.764537927006454 6.07522318134967 0.19895299106156702 0.5797701360232144 1.8081884619882795
Ni 1.4734638970509988 6.937191509912027 10.715117608629749 -3.1834507170244977 1.0548902027345057 2.448945164997195
Ni 7.377505419210941 8.6100310320375 7.730350956165477 -0.8405766700564683 -1.5599042287917524 -0.35036037113368695
Ni 1.821322282962967 7.87445385741577 13.122088767685463 -0.22052943168076214 -0.6477614164615232 0.5594291104730172
Ni 1.719021276890509 5.8433859877086345 8.21694599519485 -1.153838336565645 0.40939032861364977 -1.6445153771749292
Ni 6.0343331434934555 0.776421205549509 9.2086943480465 -0.39909306045269977 -1.1125201945431487 2.463480125388577
Ni 8.20983516433563 7.423475542105166 5.481362068530921 -1.7894566899067308 0.7605521126027095 -1.9021070038153114
Ni 1.3479477948892438 4.082507607326165 6.4876016837016515 -0.8989018881599229 -0.28988313968423624 2.1831987704601628
Ni 4.178588476673943 8.194146801738622 0.538453128624962 0.9402886786368257 0.4462172676340122 -0.8615391312407485
Ni 2.3711142791705058 7.971473268103663 8.849444646653538 0.4410182399315759 0.8493999247750533 -0.9244044033064015
Ni 3.2878851407484198 5.554250845253621 0.7743941402825759 0.5879768402037229 0.6141375577594906 3.527740970704705
Ni 8.41643387717471 8.528138699419685 2.954344110966038 -0.9437244437912521 0.3962687036300272 -0.24614121871159544
Ni 7.855830252784482 2.332707695311319 13.290671035418503 -0.4247012479391073 -2.1420076409338336 -0.3054203160878869
Ni 8.609166101782886 6.0012725647186445 12.000207057334123 1.6760561280956876 1.5802231428547624 2.7709820065958404
Ni 5.414325373105404 8.802174367961683 5.019034764113485 1.0178976846705567 -1.5669189695466885 -0.30776901882572155
Ni 0.10826626441359583 4.685133960150726 4.766310424962062 0.11739245657925589 0.32000232766711983 -0.6146247818085544
Ni 3.8247675928365434 7.52434113201039 6.571164987960298 -0.4414360441952849 -0.6416720157343336 -0.09933379930533215
Ni 6.597476350333404 1.6685332736237728 7.306674072327942 0.2597518675164946 -0.15638734978521454 -1.2006049032972224
Ni 8.32848703277459 4.245197307664996 8.095311037516037 1.068674658113108 -0.05702938211016629 -0.2838410472552144
Ni 6.457054003358069 3.071910215893884 2.1013075674904345 -1.7449925460560851 -1.1973228901118411 0.1823403222055505
Ni 6.574997365099098 6.920490994889405 13.035603103332502 -1.6785819798413348 0.7360870375818097 -0.988520259949704
Ni 7.759013272581712 5.243786890775226 10.288303052272813 -1.890299212547106 -0.6029198346668003 -2.3611085676981856
P 6.256187753802236 0.6261092092373617 2.904071420124387 -1.026276138542239 -0.5171673735903287 1.4152591071441303
Ni 8.559708653713137 3.587859515543184 11.525368628797533 0.7349534381979987 -0.30204985695375725 -0.3889171483609624
P 7.707310686404239 2.2441995663842667 9.779352326577346 0.4565536165630137 0.23963247105880023 -0.45777360501304387
Ni 4.033050159256416 2.0768263607305513 11.278489009834745 1.0251988463176602 -2.655761103746607 -1.4295030186576543
P 9.00956439996988 5.997647218757811 6.548190048037441 1.5100227705802767 -2.6023865447802086 3.119623338155892
P 4.457390463002012 0.11608468183217537 7.757298134289582 -0.629266185870813 0.6472289409968208 -0.19953663147917897
P 0.7935118593252766 6.0098666589506715 0.41814409062370356 1.4576925937179925 1.3897198252224454 0.020653414584293463
Ni 8.769454240457307 1.085450663999239 8.276443995326682 0.6353635570178026 -0.590672384758015 0.08662149394498629
