# total energy = -340887.20379861584 ev
CRYSTAL
PRIMVEC
9.14292038669098 0.00000000000000 0.00000000000000

0.00000000000000 9.14292038669098 0.00000000000000

0.00000000000000 0.00000000000000 13.38158816648213

PRIMCOORD
 96 1
Ni 6.621495101217379 2.2174873910986537 11.345325831158263 2.2685545103188476 0.2461489320210793 0.11095081471897021
Ni 4.823110047588507 0.6780353346675122 5.976190508012553 -0.1512860240029072 0.3080356422235469 0.6218894337907677
Ni 3.236694465193726 1.7809495040410774 4.387568738876537 -1.497379113674337 -0.9254297592471225 -0.26141768525469167
Ni 3.508778639385206 4.6361098925181645 4.7007110266149 -0.4983381566989676 -0.4638118407873238 0.9336912279249662
Ni 4.301817286551462 2.7700672264353483 2.33716090744084 -0.33625632763213703 -0.7503672016499078 -0.44686775673381746
Ni 4.923243314020346 4.927540486703233 2.836080027473014 1.7302331283587233 -0.2796856303259442 -1.415194315344466
Ni 5.727637468574143 3.0580235107916995 13.634768007393749 0.46710182439250514 -0.5013638308991687 0.22254877610363608
Ni 5.7618959920694035 7.9846954200377525 12.216306047871464 0.6445642496804641 0.6163363651830224 0.6728849510020282
Ni 1.9518398330109004 6.783096222855687 0.36820369847909173 0.31922096941640504 -0.5363894550447342 -1.0397554039755963
Ni 1.0835915209735427 0.17238885365647166 13.159721967345154 0.47171669745669725 -0.8412896369630931 1.2583390247838975
Ni 8.275760297398746 0.07877540390583666 7.198545049252957 -0.7826337749930973 0.14001199375098466 -0.37711449929907953
Ni 8.900889207711392 2.6982312992663418 1.2716815121796305 -0.08025595673827468 -0.28774552451594315 0.48641877955356233
Ni 6.975170698860077 1.125054665903089 4.761155789006017 1.242820103212692 0.2520251882961982 0.03902780332642311
Ni 1.2289182439404966 7.801837008000063 2.400067858350046 -0.038386313087682276 -0.7377916789777422 0.14549075747736878
Ni 8.115786615627572 4.180088441657972 3.808065745243473 -0.9714046833153398 -0.1575194065071287 -0.23368962321180398
Ni 7.849544767700697 3.9721509984093135 12.785679599769699 1.1654162712112317 0.15308502488485892 -0.5121740341407953
Ni 8.62511129359675 7.6622703250122965 9.18955132553821 0.08748641304844287 -0.4238980353115216 -0.6677856821022499
Ni 7.333536614771541 0.9347173448130578 13.489042653088552 -0.47613436690841865 -0.43546722820635975 -0.008987291100274845
Ni 2.267992884503464 6.945602493633581 8.914292729313756 -2.966210754728285 0.820941155213728 -0.5353137054820523
Ni 0.2591204270700682 5.172689616801561 1.6394052073271232 0.4586130701952037 -0.2507044126022457 -0.8106878529168361
Ni 6.601334961290224 2.727388073065751 6.956646227428598 0.5392914591828777 -1.5927485290152827 -0.29662920015881816
Ni 3.6995548206641278 4.153171683406025 0.3763006689641206 -0.17045719761471934 1.4465399195352828 -0.0956092992658934
Ni 6.255083415176257 5.9427429615746785 4.6356500036118895 0.9722199801277837 -0.6807520124549309 1.1382376539139107
Ni 5.415708446399649 3.5223741623202085 8.96069945141274 -0.13957670598577898 -0.35094966797825367 0.4852460994016997
P 0.44423074045200195 5.611750949945257 12.579563426304938 -0.666796064495471 -1.9177871335547296 0.6873618044619646
P 4.319042548965412 6.301940883260915 12.747876365957088 -0.7714710735080584 -0.6244068008959828 -1.1319716183995407
P 2.7960696926271074 8.788861001576501 1.2769432629860151 0.03946154842973204 0.2897736106895655 -2.3452055233146836
P 6.629723729759075 8.507734478909757 5.929568927279424 -0.1180689138209902 -0.8916830018139805 0.29780779384795164
P 5.126901870427323 1.1445565155469084 12.3250583455547 -0.0031763408454525944 -1.2853996284461153 1.6356507276954477
P 4.289547487103733 6.450156769138064 8.050055416544444 0.6490410545048951 0.3117971661485082 -0.23855672149611817
P 5.221165381832752 1.0886658419075885 3.527091909350781 -1.2272556731155315 0.21454930283792728 0.8023081134935731
P 0.5235016906544607 6.139900901433716 3.6632766260079106 -0.8095822785574831 -0.6427274535820414 -0.048895697259438375
Ni 1.0128710301179664 9.2235611615931 4.262771529829054 0.21680673141353626 0.9678493618639138 0.9434459933188848
Ni 2.2173593902102273 7.063089023367797 4.713999347417679 0.7865009712579873 -0.375321926175031 0.18106196971375915
Ni 6.255211416064682 5.960873373128217 9.294757998612035 -0.04022439473768556 -0.07371866984038916 -0.5472863044628962
Ni 8.98117319351654 2.857217545612511 10.210700355969124 -0.7327034658215574 0.01295296061624221 1.1469511225275086
Ni 2.487413836028089 5.436746306704586 6.883061259548451 1.000363275331219 0.28174739795097925 -0.5010200744065049
Ni 0.6638638077345912 0.6657143348644127 9.351147875716217 -0.2753679767871967 -1.9217782569919934 1.2876596281248855
Ni 1.9950949903784156 1.4566409673716332 11.3856707968982 -0.3021475588738861 0.786448263643181 -0.7347364370911863
Ni 4.052910416085759 6.972921540392012 1.3975868432040612 1.466568556051384 -0.11102357693843459 0.3927977143622912
Ni 5.643495170275 8.209099263290405 8.571657208297834 0.1262697044642277 0.30671949451528463 -2.5283128055932456
Ni 5.1815856785471945 2.9133550781080815 4.938822850725957 0.9788678244616046 0.9440265484127032 -0.26915901976300743
Ni 0.9103167183107486 7.799624421214407 6.632195975489824 -0.07050967598478824 -0.35096972258291165 0.41237486516327043
Ni 5.363127510018212 4.880216729667878 6.904431007871236 0.04636161798367499 0.6157694369359589 -0.39342634908522567
Ni 0.9162669310384549 7.29559349427372 11.491211186573993 1.3133146096888286 1.5934838645194105 -2.133322968675642
Ni 4.641028783801978 0.4159900872969011 10.239685242861215 -0.02907660565098218 -0.7289789657821186 -0.08249564470207083
Ni 8.221259347690912 7.85902597636485 4.451893756771095 1.0683080188023086 -0.9242645352944275 1.2240181400148402
Ni 7.34096066630027 6.651886169298042 6.811536191679909 0.7697877722683646 -0.18171117326198383 0.5862603717332484
Ni 2.522422079012705 5.408896970551246 2.5976207723790843 -0.09319863294187175 0.6254103024598325 0.003158086013007464
Ni 2.4478249898219295 5.065516301506271 11.559872691710025 0.7114113892120005 0.9701219599481743 -0.026409086121148062
Ni 1.2495081011359404 3.52305988136535 3.672510061523753 0.33879554911422294 -0.411982000600226 0.557735267710362
Ni 1.599837389838348 1.2521229764280792 2.1091922394455125 -0.09992720991495693 0.5271977612431372 0.5068323102129079
Ni 1.1344078736788168 3.7097766058970345 8.220256369300884 -0.44030835834874493 -0.36191156630639604 -1.9086162656887384
Ni 3.701291975578486 3.119153077935899 7.13889023520184 0.1901024826494726 -0.1608494993216262 0.011691577405315347
Ni 4.526934277611062 7.3832923886869954 6.077342295799442 0.3735594349579695 -0.3202491535706033 -0.15838304005900464
Ni 8.690373460853003 7.499846340519818 -0.06213254553422635 -1.7736654885107455 -0.5228615957616285 2.282621272824559
P 0.5229330009930235 5.922646822091737 7.707901727444242 -0.8002052082179574 0.2332679622933531 0.7849063730773579
P 8.605060868716818 1.9519404051375209 8.190776850404228 -0.6942773006348752 2.0432960485935325 -1.4822695117264086
P 1.9900663840473793 3.504444895019913 10.09628767614126 0.2816718075180375 -1.033977878061871 2.439207111773825
P 4.3649491533074745 6.581302822251495 4.003222299782758 -1.637021897011361 0.8199181132658524 -0.8479464801579784
P 6.963678047663507 4.1518185311569455 10.453964215839342 1.564024421607713 0.653919465643119 -0.5064908677130889
P 6.830310264843818 8.011886465907757 10.300932753681181 -0.6043740506148236 -0.9040019283906496 0.14115304933396336
P 2.5699378373806985 9.117530711373044 5.845251999196785 0.36438573887850145 -0.3669956656975228 -1.5149801145855522
P 7.173105786970273 4.260354141621916 1.658126251551542 -0.3700547642388208 -0.9580177204854727 -0.6237097748289581
Ni 3.313531569931963 1.5901367510797484 0.0017508692952608775 0.023643607560868956 0.41894557640225266 1.3098058252046216
Ni 1.3741443947808296 1.2957438506196703 7.182233164607134 0.4479144528307769 0.285511750089418 -1.0422048939573536
Ni 7.086897188615104 0.9234349807903324 9.408541645502485 -0.1511430706671397 0.061943531582332026 -0.6258695014844383
Ni 2.7514430971693096 1.7207708006394737 9.097928289602605 1.4424477517437804 0.46178478305496595 -0.10735564116854414
Ni 6.765532672379467 1.93587629364001 2.361729763682224 1.2694683019278394 1.011114343200136 -0.18925684681972565
Ni 4.1336424050003995 7.0683096310314735 10.198911474145053 0.9222709019031665 -0.13253188332385563 1.7601013766730655
Ni 7.419141780366985 6.133345427362165 11.473547978263213 1.1880368368242251 -0.019198941525954034 -0.5447421978848038
Ni 7.801389004890571 4.3035361556246166 8.256948738260368 0.8476505461841144 0.3534181841234043 -0.038416909215301574
Ni 3.4120465394172688 8.529933490131134 12.202617267146323 -0.6123341860021647 -0.490741061078 0.9564776296918625
Ni 0.42038143206198625 5.545985922055902 9.917537178329997 -0.09155364113928104 -1.2508887391534393 0.016204120563688224
Ni 9.12968165285295 2.5055076758992185 5.553626660802897 -1.0117725456094253 -0.2408064367622433 0.49117017819561865
Ni 4.361758274017417 2.585215657706448 10.954583004811406 -2.4322180820505017 1.2533158605376933 0.14793639080438392
Ni 1.5241705789371518 3.4516262427028264 13.003692541521636 -1.3013828912482492 -0.39148645175003544 0.3789114432985023
Ni 3.2891931152897467 8.75649506264583 7.803540334108194 0.5718362258881183 0.5391875866151616 0.6518391860753227
Ni 6.171197118653966 8.029248872130736 3.488634042423074 -2.012564938058263 1.4548080730813462 -0.5371057643854685
Ni 3.5598967084703426 8.580429840615341 3.213334303055911 0.2578952739237301 0.1298983023557505 2.3472490361072738
Ni 3.205434819655883 4.925922189756699 9.133723738051042 1.5269452573672282 -1.5793800781281768 0.7412300152353298
Ni 5.134920211795176 4.741271765281039 11.330337841415595 -0.6934092962076251 1.1565729618879887 1.020173882299243
Ni 8.348885376372618 8.849487708087599 2.253700671018598 -0.5102814451037727 1.3551775684712015 -0.3065210053512334
Ni 5.020057700273702 0.2846922617014789 1.5069270306819977 0.6462483222511064 0.01576729013658575 -1.61308492657979
Ni 6.424291446755333 5.921174811874833 0.2169916775207049 -0.8884192434610443 -0.2851520527571541 0.5711271156362357
Ni 8.32910923911074 8.975824584964439 11.508272790709169 -0.031969610928061075 0.782999128752316 -0.6516432680144325
Ni 0.538922140541599 4.906411197192277 5.584712590849303 -0.2200365512047436 0.943626227650491 0.5750552470460484
Ni 7.450767142728903 6.210932251589757 2.5529795482483233 0.26460302496120885 0.39992172700158224 -0.023152783967379482
P 8.933703149751556 1.7967576137617358 3.4753054927696474 -1.3323101769547248 -0.7387712692821922 -0.5526817644468546
P 2.19325865150366 3.402601902435522 1.8437549685316028 0.8245224448070831 -0.3179099639144654 -2.4145520322293064
P 4.890337942774164 1.4677313300617192 8.222103239262465 0.2106689939469146 -0.42912868758284156 -0.02388709103024273
P 9.11353525507002 1.77077343341118 12.317645265530691 -1.1188942163902924 1.4589362363171066 0.3475223874642595
P 6.669184575076808 7.8282691914601115 1.2714410533678009 0.0885901876355829 0.817775870111869 -0.800590359471518
P 2.1143461037887947 3.08475741063161 5.74756629261007 -0.6529990107113787 0.8673302840012288 0.4402728771251192
P 7.421646940611901 4.5487310003259545 5.916321749619353 -0.5744695497459075 -0.5766804413542971 0.20188456288606518
P 2.4057584121326587 8.630213043292603 10.25862023142772 0.11790796276309369 0.7897978968417042 -0.20120502032053736
