# total energy = -340867.4447440676 ev
CRYSTAL
PRIMVEC
9.21480971760667 0.00000000000000 0.00000000000000
0.00000000000000 9.21480971760667 0.00000000000000
0.00000000000000 0.00000000000000 13.48680546895740
PRIMCOORD
 96 1
Ni 7.383311107312605 4.848648649407354 4.031341089334404 1.0688782894834816 0.9624243341936005 0.09947161043477708
Ni 8.109714568167792 7.046694103316158 7.802427382458239 0.5680271365546733 0.4680369346122649 0.13895424191043165
Ni 8.796475917027557 9.090667936452428 6.593187236311363 -3.211581156712127 0.08512382635353727 0.21114413381112024
Ni 1.3989647877286793 7.1690483485684116 6.524579291018312 -0.3134490999296344 -2.9509314599717116 -1.0005414527802963
Ni 6.705700064638673 1.5477102484051273 4.919123515176992 1.355776635507781 -0.9098463029865685 0.5247858093675348
Ni 4.384572395499085 1.0438444455437603 1.1796163754256122 -1.2877200490491758 0.859464508099907 1.1595042766021708
Ni 7.238647807401842 8.978652707857279 2.1690694843203326 0.7903321720786195 0.45316721658928405 -0.2803248065718398
Ni 9.057033880482349 0.4536828698730219 4.291946969800441 -1.0279635535469906 0.6345953113932102 -0.923147905191481
Ni 5.430388810351777 7.9504918686864166 5.885399534324877 -0.5350668795785688 -1.4132896421225853 2.7022901005460818
Ni 7.788099274614986 2.837829702128714 3.209495235407956 -0.13551873386632143 -1.0997443829347189 -2.21025346058511
Ni 5.57032491280702 2.9745959099939006 6.247600536402238 -0.5439654676197794 0.6791579284949336 2.6594529507758975
Ni 2.444495543475871 6.343852911259737 3.1795148515453104 -1.472314971616858 -0.7512927987879706 -1.1096215328391148
Ni 6.777105626203645 7.0935790558574645 3.4786791823678413 -0.6874283960338419 -0.7155997162617354 -0.24976313173489892
Ni 3.311498573095847 4.407793716333223 10.021802356737988 0.32217902360346445 2.252903176934836 -0.40616899346287466
Ni 2.1748978515535042 7.7602981932830035 10.519587306576161 1.4244142912808373 -0.9454128872372686 -0.19941244719648885
Ni 8.802253602806527 3.0450892053832472 0.6311435210190494 0.9466020224493633 0.5676198738139256 -0.1438853606634619
Ni 6.756842259332904 2.6535242902225287 11.80880463041496 0.8740238939713206 0.5363778850805085 -0.9288120454557939
Ni 4.283255561145378 2.8026567729128793 8.737777578252375 0.2940393279444549 -1.3528478918967604 -0.9011909413044157
Ni 3.488008255864858 8.0404744869187 7.451567968350187 0.27700499816998747 -0.5574982119988915 0.3348710172488362
Ni 4.26933198345475 0.8809349006394736 6.160220180472955 -0.5382643034699439 0.8072099216705647 1.188797112029017
Ni 9.047782211388112 6.813494910320316 3.0586183892120884 0.14875580138188574 -0.7791926105220323 0.27249656877667267
Ni 3.135633927016674 7.695241635707999 0.33017585190793064 -1.5732073736585614 1.0313761787729658 0.8441942122043977
Ni 3.5656706733212515 4.866212076990636 1.0672353188792265 0.10891501523586405 2.2024990134506712 0.7526745096268457
Ni 7.768093922420179 3.7808549130509266 6.073216710266733 -0.5381720008664538 -0.27103901039453965 0.5212294594748443
P 2.2453911469428505 2.415883558876666 10.166421425561449 1.758644589621881 0.503253591722714 -2.690354268340444
P 3.677667472296691 9.058978205361715 12.26012666600318 0.07279692935706816 1.1600393231700343 0.7515367964779767
P 3.6432870167283706 6.6209791028334894 9.206093566174845 -0.4252622626488999 -0.045413652248108886 0.6195199051173266
P 5.244996050882723 5.737011608270795 2.6216871221741376 -0.09811483929656652 -0.9987969592853638 -0.528360928313303
P 7.326732174804032 7.0209939986310745 9.790679260402435 0.6333573252210511 -0.3867095991866824 1.7573382121056313
P 2.5783314418072263 2.0541377684061337 5.414169823526314 -0.4699439218269907 0.3126322604552938 -0.018239662936478267
P 1.0489033761540545 8.479034932338983 8.075453905127583 -0.2074438021413976 0.428883661451571 2.8353889121170006
P 0.5724709837114617 4.437050737622266 12.495876518366833 0.1851122285237328 0.12124371200454603 -0.23606892207725796
Ni 7.9450367012523655 5.562483109620572 12.536241992935855 -0.9946202021998549 -1.2550786088650707 1.7944667415268127
Ni 4.623779644520267 2.1641902425022073 12.510778708864043 -0.9822272278521408 -4.253190068956695 0.17247499937569652
Ni 1.6805601620820172 1.2090106973814914 0.29346220648437066 0.8334891670820678 0.37136371285823144 0.4757327605946259
Ni 1.5379609795787315 5.867318234427756 8.51396459057465 0.6344179052750816 0.9620695219573432 1.8380819071136023
Ni 0.8848751533333931 1.5780730468767477 11.412615723669095 -0.47224788736981893 -1.1785044718537574 2.950593617016318
Ni 8.299585725226287 6.817706078423967 5.497315974327309 -0.15400959358165736 -0.29809704295359624 -0.8262152591284738
Ni 4.8881156800155345 5.4271636269025905 7.811490147950451 -1.1052511716855609 -0.3889896534701107 -0.09681977463422681
Ni 7.4273763280383385 7.8251059509919285 11.980976902185308 0.08879844699164706 0.4873168658877995 -1.0114151622700065
Ni 4.625364591815296 0.20174628251839635 4.146923370824353 -0.1281895471947599 -1.1734357990815985 -2.852231437595636
Ni 8.337670534356242 4.1987004659175815 10.453623090230456 0.5434692447096511 -0.41091807811208586 1.2096176483187941
Ni 4.353693567675595 7.038041396862485 4.090818079542317 0.3651370152222292 0.5695777688712449 -0.8817081499894557
Ni 7.296009998748073 4.988280663137389 8.58095349377621 -1.3118076861259989 -0.5706946560845074 -0.15199359159289308
Ni 5.800271277924112 0.6668997476986938 10.772720897730926 0.7458297187908703 -0.8176537427117079 0.07701636675505447
Ni 4.9908055210376085 7.9958010887425495 1.9030148867871426 -0.9660771004548394 -0.1644559857259619 1.7234495297779866
Ni 1.8650867294247178 3.5128882424728625 8.059822823170858 2.8127601189738916 -0.6399894858255881 1.302420588484144
Ni 0.8615450977429686 8.645141094781906 1.9796341877679708 0.19964256092942392 1.2072494051969338 -0.5526753366889514
Ni 0.5415543751675668 4.792714753588618 6.697372640972875 0.3068344228265942 1.126195635147712 -1.6594120917811037
Ni 0.32500081469346565 2.8746152230691413 4.702417910340286 1.7070469200502472 1.0202222190386752 -1.3327567775738403
Ni 5.915235245672802 5.657782673139083 11.11194108551136 1.9425689684850997 -0.6600890847889406 -0.6640388134653079
Ni 6.440838784981682 6.857219183081421 0.5485613165811691 0.8328708167717787 -1.6046969596264105 0.5488603338182354
Ni 5.432757016484464 3.5366163778490147 2.072125998723721 0.1152422430054725 0.3144106925119553 0.45285482755518786
Ni 1.3584104095576315 7.995874807221388 4.360567815827288 0.6260679906484895 0.04256332728350734 -0.17653040039199275
Ni 7.124365735582407 2.207481419200135 9.392494425842017 -1.5797037800161826 2.7383261682340323 0.8716075712203442
Ni 1.7018648024663527 0.14263235581876293 6.209770056024274 2.3525413948544647 2.2203784648342535 -2.0796740730019345
P 8.623209847327443 7.34165095195898 0.8217748998905661 -0.04393475370973724 -0.07880431189341268 -0.33562897846078327
P 2.897744395804731 8.557729408499116 2.797757258513073 1.066159605000738 0.07865724479258712 -0.08721901831966915
P 8.078421073900834 0.8560908517899026 11.566999726495705 -2.1576854566804067 -0.13886810995452856 -4.172864435322748
P 5.934484983459514 1.5115052604855534 2.8321883955355953 0.7724421791720761 -0.5718801917521764 -1.0839773499084493
P 3.5559214044948555 6.295899040775272 5.852666686758598 -0.717980557789086 -0.5285244504743608 1.7569160369665484
P 0.6225479463864765 1.988675759197517 2.6182343329215376 -3.0646721787309934 -0.34830246016339367 -1.1125829294602838
P 2.832568045701614 2.9712140747771825 1.0064811560254356 0.14749904615664922 -1.6378446500229726 -0.27484809972798474
P 0.8345954648415722 5.4094804067911975 4.598771572055281 -0.32672936197830826 0.2197763555648215 -0.8496891738806979
Ni 5.813936840938804 8.061640905155214 8.663815828433677 -0.8652507757643808 0.04815959042436222 -0.309515312092867
Ni 0.03405701574241636 8.391908905161692 10.27267094763044 0.4545589547304881 0.6395102321963244 0.1258236180657446
Ni 0.2518315385222806 6.321304271545002 11.080530563159247 0.7369786961581437 -1.2835854580555122 -0.5345408318717697
Ni 8.581181099579624 0.5879776657351469 13.394488188750799 1.514298000916863 -1.4068433722766094 3.1383895630198015
Ni 1.3453990980426307 6.202304217079901 1.0703213586996045 -1.1633686446535836 0.18632373233333072 -1.430732005968749
Ni 4.642421204856562 2.5119571664229827 4.202718123014281 -0.3412720356791735 0.3879635261984415 0.7145265378022145
Ni 0.8821623133121351 8.249411085566809 12.597135299418454 0.6931236466464064 -1.0214640618655764 0.5681042696495119
Ni 3.1483135053769016 4.056525164667617 5.988074631651185 0.0728069566593972 0.45998938171744 0.4018695947565724
Ni 3.4232742166347716 0.5192508493949688 10.322504639325286 0.12477640774815286 1.1724502952398774 -0.7917642765394557
Ni 7.884993000238381 0.22586696879436408 9.026948447787358 -1.8918560155112643 -1.4248526643698365 -2.1733792132665797
Ni 2.5475263324625743 3.466159941699088 11.964320211891742 -1.467146797152357 -2.5211962491531223 2.0569432070633216
Ni 0.26561597258410063 1.8939751583195676 9.264235330434795 0.8466763551963032 -0.8071502720772229 -0.47245537539493476
Ni 2.458465195215773 5.658888450321662 12.056961302767139 -0.2671412180020303 2.375092540682103 0.5977496033197706
Ni 1.1962481857325704 4.161979448646138 2.245809499310259 0.013959804614201765 -0.5144098654498496 0.6238411582004998
Ni 5.632893471721224 8.792771563465921 13.315779890375884 -0.2990915456563817 1.4445254602084154 -1.6353740769952934
Ni 5.283679822653243 4.893985513893052 4.8893854808135275 -0.564121373742364 0.352038015946426 0.3325086876642467
Ni 4.62846998273637 4.258569085544324 12.517333203113772 0.6382761026789072 2.540361509227664 -0.6460822289868874
Ni 0.43081447625632374 2.154302751527989 6.797147837637872 -0.5496447773927436 -0.5491344134152285 0.38458946751988604
Ni 7.917465990166754 5.159657696817267 1.751909513306876 -0.5284056655083094 -0.5301694422769515 -1.213834000392987
Ni 4.725253130641508 7.493557092415631 11.0039250843932 -0.9113483414533917 1.5868679018647895 -0.21373734845959322
Ni 2.5796123003770455 1.903189968174384 3.132634506408931 1.0571756563345729 -0.8886982081540438 -0.15691159771980073
Ni 3.362235316156467 4.24124524301727 3.5316551242231817 -0.4608535294899482 0.7918280398978557 -0.6626015667981493
Ni 2.558842118964289 1.0609102733948803 8.156415224512001 -1.0230285781392188 0.463912113810614 0.4521811985269309
Ni 6.928772181604071 1.7022794689098197 0.7017040845203358 -2.592706598488283 -0.5423690696669369 1.4726875244649282
P 7.420612657604902 1.8955693204244508 7.333989759045686 0.26881346349813057 -0.5849725061597603 -1.6375358605333024
P 4.463183938370525 6.379772240073813 12.956342409773985 1.4044527605572457 -0.7509760388785002 -0.38372814796085525
P 4.702050239427079 0.7232169796073905 8.20743578371615 0.8061166886063857 -0.8474134904726437 1.2462648672281826
P 7.017188282161035 8.619348841998274 4.907619746554239 2.832556327764212 1.2786412266763592 -0.8446063600411517
P 6.331053540371397 3.575069779373164 0.15744884858432243 0.9627367232276968 2.3171545307147383 0.16418242034960112
P 5.655331533717702 3.820552313905476 9.974571848827123 0.659240106525084 0.3450816392332508 0.6122190005805392
P 9.0732980198761 3.7131168458081705 8.414175571694871 -1.4161448521831932 1.6275093295352359 0.31057794902942637
P 6.580848605915764 5.670029155436135 6.553265915577342 1.4037084261920534 0.12934242985228048 -0.6149767658313344
