# total energy = -340890.7813357163 ev
CRYSTAL
PRIMVEC
9.08331417639106 0.00000000000000 0.00000000000000
0.00000000000000 9.08331417639106 0.00000000000000
0.00000000000000 0.00000000000000 13.29434845261525
PRIMCOORD
 96 1
Ni 6.465820878945114 2.0933405631384954 11.653851999514934 0.38594469599619985 -0.4733380351102041 -0.06919841337253244
Ni 4.597928171300402 0.5376204688400258 6.2155864759867265 0.23863745413538257 0.14246893993190946 -0.18809213708766317
Ni 2.7579757377692635 1.6100628374516792 4.709948142206007 0.4121545216223483 1.2325745142252837 0.8761427400865364
Ni 3.6245420677377562 4.295817144961834 4.810825611728281 -1.0647030750598696 0.6477616735718393 -0.31248030825846185
Ni 5.012327126309968 4.728528061158968 2.599363815615883 0.23617305175529005 -0.542473199344969 0.5641427138986026
Ni 7.250973464804389 5.919350537195837 2.804708480385298 -0.11449816575059635 0.32716670662604297 -0.30480325132917824
Ni 5.386986582214566 4.467755197203649 11.800967171035822 -0.448316316254886 -0.13458748030130369 -0.7398801860756548
Ni 5.818471251010746 7.561395723527196 12.238923701114812 -0.8968771444204102 0.6676733248941017 0.8144840867344747
Ni 1.8630513012394663 6.447699667353248 0.43091060334625353 0.26423381454724815 0.06059884462897951 -0.28321318386322836
Ni 2.561158488259219 1.6645445553103302 0.301823993613604 0.07967951540951439 0.026279502521819254 0.16698517990571887
Ni 0.7227266015052625 0.06156761117334477 4.791362794646632 -0.5141319291981146 -0.47187019231542604 0.13923526348596021
Ni 8.706129463916382 2.060050217031134 1.4152766169701765 -0.02863926100324745 1.7973075534097176 -0.5857600350580622
Ni 6.673401855641305 0.7639157975375797 4.931299423049198 0.053647095901494704 -0.3724271211257393 -0.6118598174689075
Ni 0.6150039464914437 7.285744391106975 2.5241848582919566 0.29313789917610805 0.6279770347457443 -0.17529010022698843
Ni 7.469082002520614 3.581795991671932 3.9172591306536138 0.6249919839754914 0.08207064134951027 -0.9331749504101798
Ni 7.6520381147428465 3.862179730728424 12.866522570911158 1.2876673414343693 -0.3833841343578752 -0.7892857330919761
Ni 7.824784581937883 8.929433657287019 7.050817189038118 0.30542751517673844 -0.4556861263563958 -0.6228114313844048
Ni 6.8399080860626 0.6079998030034801 0.3660212242134375 0.019051103094180094 -0.29903369583525274 -0.7188434200100136
Ni 2.0759278500449585 6.067908138992809 9.437764071541014 -0.32089835711882797 2.685739652386568 -2.1794076788488463
Ni -0.13288616001278855 4.9788641972350645 1.4637206559590967 1.1650763713733097 -1.181502892360449 -0.503589634905894
Ni 6.378321314401535 2.4167701276254885 7.203515873724679 -0.16108629792278065 -1.158932463259101 0.5225291521228743
Ni 3.2826370424097333 4.401029171963628 0.3363696537269787 -0.08155384961409179 -1.195053377351374 1.336191514287002
Ni 5.977265747777158 5.664608993790392 4.982974396856778 -0.42870574111281007 0.02329136642777279 -1.3558658527874776
Ni 5.475884977126639 2.8592001898894384 9.596963684115444 0.0896217142238908 0.17655996807834756 -0.1628331054105583
P 0.4058797147328683 5.517095973112751 12.365857565410233 -0.04135465168738684 -1.0507005901331903 0.17070248085630602
P 4.14892178964171 6.177025991049491 12.814794913881908 -0.20130195090971784 0.14190201168484592 -0.6074346918180183
P 2.2351765125154266 8.411167005759667 1.3764572575816276 0.6730124777188281 0.7376494969729233 0.2518981758000307
P 6.30220314240162 7.869429070646664 5.764708931627322 -0.8313898613508778 -0.11321209994932115 0.022971521194508824
P 4.6065482363634 1.1425083284393087 12.442898602120792 0.2758567434981572 -0.9830569228422875 2.080610982993907
P 4.041738683484311 6.305118886221663 8.272274958476432 -0.15307936845790412 0.1766263025399087 -0.21074921236554672
P 4.683838155879783 1.2160922558105878 3.6374803403149256 0.368603633614591 -0.2712048465484426 -0.19249617969262978
P 0.13158906276200238 5.545099830424891 3.6619417051354235 0.532119881135103 -0.7174835635480095 0.4878729955015856
Ni 1.365621772214241 1.102578079738637 2.5689601467235064 0.31192469286530794 0.16627401277130718 -0.04719259852540259
Ni 1.9266889996919017 6.64073825820554 4.801333548513495 -0.7694239611710426 0.2374303212011588 0.4709289114480793
Ni 6.0622038177498565 5.802766200964463 9.098904681424397 -0.010543579843801196 0.2890120499331926 0.9476749437985679
Ni 8.569925169269755 2.2988959607945922 10.23820387499884 0.44416578442162213 0.4372996534294082 -0.3305633910124178
Ni 2.5194660766268067 5.215539028933131 6.8223273316585615 -0.6196320052151586 0.8587901077407016 1.3573208400664494
Ni 0.597231534160294 8.913319858107084 9.056854387217188 0.3236772054155458 1.2240520785765692 0.04240006223276569
Ni 1.2287362290115285 0.8982970710481232 11.307149167689257 0.2160865654180601 -0.08425659325723554 0.210123920076722
Ni 4.157287521910436 6.794900264790573 1.70444210408031 -0.4276325626532893 0.6095183138199244 -0.7198667190682054
Ni 5.67435538979945 8.235740960910697 8.063900100129551 -0.6865740184533466 -1.5435769523866385 -0.2896777085416495
Ni 5.315546316966435 2.8852602179882156 5.02136865714633 0.34933038720727577 -0.656444803168134 -0.1542132249520312
Ni 0.9111926520491113 7.7196997213332255 6.902039771040383 0.16060627296256857 -0.10397464051145319 -0.2662279621591415
Ni 5.269121498697751 4.852288215514441 7.064111527527268 -0.6255105754831227 -0.9288138452280068 0.21340876147558085
Ni 8.203722278774695 7.196019414613518 8.96681149473089 0.07462498370474245 -0.336140370879563 0.40536963749003085
Ni 4.70445727884396 0.3014851859983777 10.510804122219207 -0.41339816422146225 -0.6834002487110552 -0.8016902774039161
Ni 8.23456921339423 7.185273854055535 4.85404583678914 0.46588363571468794 0.49487205252723804 -0.6539207511946996
Ni 7.331833126754657 6.297788651758187 6.883361752295343 0.6987384217300223 -0.659434224813761 0.7897621585077624
Ni 2.2419072482495483 5.367203124145852 2.760864231647065 -0.2296841015968367 -1.1764912980784705 -1.260541174641539
Ni 2.695518870147376 5.12368855694469 11.470389946698385 -2.077881756988202 0.3992002754545254 2.2799812640985513
Ni 1.1100082306570058 3.3485364860683715 3.873760047850464 -0.2067706873337729 -0.18644174596843374 -0.2976509565551132
Ni 3.5843756528709747 2.8833254720889343 2.5944315760698267 -0.43512655703748937 -0.6612563656241643 0.07167258594463786
Ni 0.842293898080882 3.4544388449403307 8.203437062712547 0.9287508532005554 -0.28607533590237183 -1.067249238520491
Ni 3.8366828681026766 3.026660168289253 7.78481164166103 0.005130122137713746 0.3082626706326885 -1.4070552311770994
Ni 4.061949057314838 6.966602150866278 6.150044914902885 1.1578145476045738 0.4642507280969553 -0.08600288652438091
Ni 0.6417797397398151 7.3928184974954005 11.32580084482346 1.413158772971676 -0.47272791233003103 -0.6665312408698585
P 0.3772845336740456 5.820851079300004 7.71732897635805 0.21788556630001185 -0.9444078430115219 0.8000067190539061
P 8.594550033743714 1.5914329602712702 7.950818289807862 0.01312213920425482 0.5047085790016856 1.683011219257282
P 2.0364517670483435 3.5021080772381303 10.076995941681071 -0.8338447506492737 -0.00031675990947042227 -0.8173269554999084
P 3.855194662200031 6.289241253207839 3.8864966708550317 1.0536100504705015 -0.07176257455528286 -0.04360899493920231
P 7.195410832570082 4.083703594539157 10.442364983943483 -1.1672494677652285 -0.4111008835468533 0.7311037254346054
P 6.484160090074926 7.677662143765731 10.174270968838767 -0.7738645134408995 1.000747141033199 -0.13925274698745696
P 2.6987706965884226 8.61108166537138 5.77147509228636 -1.7586600162408486 0.615653737293701 0.47989717638496054
P 6.897941379726975 3.823448479486462 1.632665756211177 -0.006445755625343739 -0.9450128235853724 1.0929415010802723
Ni 5.0968836970912585 2.8110313753171767 0.46356420913652774 0.6798117600288486 0.11972598980843896 0.5821990571796812
Ni 1.5380321567882747 1.2740528829623137 6.920439840374539 -0.30161379785760317 -0.15395302931210905 0.19470861396291628
Ni 6.913809929426718 0.7123407401848921 9.36787614466935 0.5494812552316859 0.20511438267727253 -0.23657825761350867
Ni 2.527849975523695 1.6429262677972278 9.076237271134922 -0.27981341415306005 -0.561330441260788 1.6331690989241745
Ni 6.678642927866119 1.5350891630259866 2.541626637990553 -2.3954695616765584 2.1987081789496714 0.30743811784886405
Ni 4.07292170072485 6.741290545083711 10.571200894207493 1.2534588138734608 2.5344903951588673 0.2352150587173949
Ni 8.156043963162814 6.927889066252479 0.16753446157528004 0.05808224885471287 0.41956212694032896 0.5252465510540373
Ni 7.6474328745037115 4.164926589052672 8.381103052813925 -0.043456271411421936 -0.2328229043361345 -1.5565800495145257
Ni 2.839607481416429 8.530067587081733 12.483074100301655 1.0850762393995828 -0.5010565840713951 -0.33396727448764424
Ni 0.1855593900378854 4.995450328747218 9.99167364752274 -0.5997936303329928 -0.5946457675834662 1.0940992688337996
Ni 8.425400558924807 2.264997032643795 5.8737622921540265 0.8442777730571395 0.2157034710470285 -0.21448065438352096
Ni 3.5197478731836953 2.5859922689570434 11.370842274357587 0.5573362324997305 0.5711623397495454 -0.04980895310232712
Ni 1.2705013071565896 3.240009049426964 12.051154340760988 -1.5532581842301445 0.6019947517493697 1.1529448782170983
Ni 3.0447359633107127 8.66787054500664 8.11206528137618 0.9680355097327908 -1.380711708186564 -0.720951724602268
Ni 5.707109820376024 7.5718597013486635 3.5019046110027126 -0.53848438990055 1.2254255618853283 0.15530645801620996
Ni 2.8963055279108767 8.69867206305577 3.575528504955949 1.6139308195198527 -1.4902715560952786 -1.1800635888107613
Ni 3.8431229377862017 4.628130190620178 9.644371316967707 1.7854462831957572 -1.9305791431130752 -1.4999059938612493
Ni 7.428679421487724 6.0516853400439015 11.359994072350487 0.3971104828050322 -0.7133206904195715 -0.18605942292835054
Ni 0.30986635990104144 8.910667530395392 0.4020438311964048 0.5544733091296387 0.649478656262946 -0.19100956784477427
Ni 4.482361166246115 0.1297397000150832 1.178680810104615 -0.20141842188292408 0.4290124737199515 0.4328639862555577
Ni 6.190242213037543 5.516796223748073 0.534407700649528 -0.9633409324705989 1.0289660266695764 -0.2645552024424089
Ni 7.9576643836308145 8.772392240138267 11.49836201241124 -0.7159321599004896 0.9498125589668611 -0.12084004880822413
Ni 0.193851547462554 4.702640616027733 5.7046046423524475 0.07060686368428484 0.3642019050024695 1.092612399875628
Ni 7.867521574689625 8.746359461981731 2.5929028543099713 0.5733621756143416 -1.3380182830830956 0.02590335012932313
P 8.545954303409639 1.5112454635630057 3.7903116413870714 0.011987511379179356 0.19268515577498427 -0.7680877588581223
P 1.6738004523590073 3.3126755620760484 1.576377367181788 -0.3422122881052558 -0.12839549255797886 0.11431278921266765
P 4.788187268043867 1.1151584697410097 8.35859550885228 -0.10107495036615496 0.7284084379906294 0.1652928798049605
P 8.62459763672411 1.6660978020182045 12.544493653455476 -0.5555585717740175 -0.17358340194852687 -0.5836612435475044
P 6.292393163193993 7.692313529378602 1.1802776567200786 0.18041996525438608 0.36263970272167223 1.562474817732406
P 2.1801316291837454 3.25077277661311 6.2554558664830555 -0.2487166927482555 -0.9561248743381339 -1.4592653375217512
P 7.118347995905728 4.085583840553952 5.992081541374898 -0.7050047143547085 0.5735020436263155 0.582666740844719
P 2.4450646509882255 8.440969359259874 10.18357682411489 -0.4485194334046275 -0.42391731858523124 1.0956316463179259
