# total energy = -381162.3117084808 ev
CRYSTAL
PRIMVEC
9.31637430259172 0.00000000000000 0.00000000000000

0.00000000000000 9.31637430259172 0.00000000000000

0.00000000000000 0.00000000000000 13.63545550539748

PRIMCOORD
 96 1
Ni 0.9486863957061069 7.055951725447607 1.7725678462801533 -2.231326993425957 -0.28934037980688876 0.31117315941126406
Ni 6.655506008599571 1.741323521765967 11.565402031614413 0.813148912862819 -1.7974114259774334 0.17968462975025828
Ni 6.559118800016879 4.8664453848833125 4.319658060417172 0.43778944858163304 0.8373275669915515 0.5495529890098858
Ni 7.014540441651932 6.733428163305314 8.484594434526878 1.4117366958131687 0.8244728225160705 0.7898248934248978
Ni 0.371035786434946 8.588625728228658 0.22637951092902153 -0.9860959667789276 1.3252681825062789 -1.4402918817430421
Ni 4.2227025530017395 5.656846581109436 4.173158074435845 0.24622297979212435 0.8183764798103456 1.2086568270674216
Ni 3.91815027689811 1.002572304699175 7.19110716243501 -1.0018838257408036 -0.9131108326704532 0.33794271419562444
Ni 4.32590934757733 8.066955348894833 2.288983790504696 -0.6977223217606823 -0.8550820627614951 -0.007924397053399257
Ni 8.574576635773344 8.759730258755402 7.575586476995301 1.7962659995190806 -1.9818677660847221 -0.14062700162716427
Ni 6.21900592318252 8.661330713322348 7.163959247703717 -1.9233229757712942 -2.338971883700146 0.5973150868855133
Ni 6.282916250930177 8.25120528356909 4.155459758164384 1.0721608168894954 -0.9171783178716074 0.39983868036947273
Ni 1.6409116394825496 2.719822315255237 12.345718252652953 -0.7724676330933727 -0.11659438615799275 -2.6581987666538223
Ni 2.0321341457664204 5.105102945511844 1.6842924048067751 -0.1757338726326264 1.679951863605668 -0.44784837547953193
Ni 6.904253202602841 4.900217241747052 7.133906487463427 0.6048198799029906 -0.20105306812370538 -2.27871679556383
Ni 3.776131466958565 0.22157039851162494 9.878669668376572 0.5853962239607402 0.29699326836645623 0.619568756077391
Ni 1.9684567273764444 2.4828137528790877 6.6846047721107995 0.8258992705499517 -0.350778432507712 -0.5244610790382646
Ni 5.538006910446301 2.960333834370909 7.296645845499701 0.13289029510453887 -0.19325234113236395 -1.0198586650516692
Ni 1.0056373918462564 6.4756720353469435 12.854621472636136 1.601830436711893 0.580513184836826 1.0095536835812353
Ni 5.464519349910803 3.269097111661411 10.570300527472213 -1.9146069360545348 0.6059694201264015 -0.33835949001806886
Ni 1.714101076040216 8.596581911887041 9.68020574142176 -1.0052486284479785 1.0895692421739298 2.313307646164822
Ni 8.934114153038294 2.1790440522172654 1.8530585253824028 2.531471148716569 1.2435927197126582 0.6441770415443745
Ni 0.8943533007462914 2.255466270659544 3.9852207188107824 1.6011580932352167 -0.037515737557270876 -1.3879383078419905
Ni 5.31310963466956 6.599244424158157 6.021021789504531 0.9232209245212617 -0.38135039175729807 0.6676244739340373
Ni 5.336102446459825 5.199505766367094 8.88580409406811 -0.9777365390706388 -0.03342254132450373 -0.42568083824355724
P 8.87616630484727 5.356449407946834 9.306498018835498 -0.12313218727651054 -0.22744801317746635 -0.20376275374538458
Ni 5.010113193075239 4.789184692753383 13.064688943790614 -1.1682897361042848 2.172376225923362 0.053560192614643246
P 6.644512686917029 2.9416917693821247 5.3013700714050085 0.2828511725381193 0.45239460008931764 0.2577908871353818
Ni 2.325758314807659 5.157759093096357 7.997481282410893 -0.4003544436636266 -0.3334180868523935 -1.0874740502077982
P 1.2323047787413717 5.313286645781398 3.7161656920925927 -1.6728227087600545 -0.7564005523281812 0.9815715965460128
P 3.99406009475349 7.977592686539801 7.086659426801697 -0.8887683992703469 0.7459585310592508 0.15161538231786792
P 6.3723348115310525 6.449111052197007 2.5943093256758267 -0.03946154842973204 0.9508535986368656 0.1955344522983213
Ni 7.265216125136801 1.2654617549008338 7.272919835051456 2.153251589278769 3.2396046385082466 0.3666071720098525
Ni 5.018553828197597 3.43886940066222 3.2942308262674795 1.7095786853331651 -1.5440351229699796 -0.8281101621583415
Ni 4.123166409903203 2.201394034180331 12.576089829972624 0.34538091564122453 0.40719100696948585 -0.748582084725027
Ni 6.11155086192283 3.0843068272773335 13.498828259958211 0.8116725854276086 -1.787914799340908 0.5150827231471581
Ni 0.005151954991902947 2.9442351395680006 7.591675855423902 -1.0892159725995691 0.9443970443782446 1.4828079007283819
Ni 3.642888681616438 3.5204528904707084 8.609058400359293 0.35218791126072896 -1.3923420933366408 0.16243998373719767
Ni 5.6517039424918405 1.1406596046810655 8.771688756816175 -1.0292287934126596 0.6341674798271724 2.0678331145029483
Ni 3.6349418143323637 7.277541688345277 11.635352164825452 -1.4970690386330865 1.934613718193765 1.1177827284936686
Ni 1.7506585288218202 6.26212210347642 10.553597199976766 -1.1895807842725772 0.06484065062446898 -0.38087293790024723
Ni 0.9567450594818682 6.994696564377514 8.339390356211688 -1.9198514722829259 -0.87691021438018 0.02182609473615596
Ni 3.6985540181021888 2.253798639658548 5.046468480534377 0.16733407860470537 0.8505607778523739 -0.34522356412775385
Ni 1.7248149064935403 9.07606774835769 7.4157109724210715 0.44823198407119574 0.9873303534066609 -0.6178067790809618
Ni 0.47855140412763314 8.42064218309484 4.986090921924024 -1.091300880153056 -0.4028360724348998 -0.002173610612551095
Ni 8.773565074601652 1.334020953427803 12.85175761917409 0.6738992511991555 0.4093859577382756 -0.8690269549773614
Ni 7.615008714876381 1.8411112069707998 3.6410617406147887 -0.9425358227997896 -0.32720655872504295 1.0222240799600524
Ni 2.0482328405693284 1.6690377735161028 8.971079663014557 -0.8719171320409629 -0.030958910275359585 -0.0863463859067287
Ni 2.8990041423063575 3.6578880442510924 0.3830585674784374 1.832945100107669 -0.1355030501370376 0.03151863943357153
Ni 5.703735892997767 8.556530818740223 11.032733672410892 -0.24314896885249093 -0.3419850025857981 0.6310189068958616
Ni 2.2416407711876016 0.469297449528253 5.097410415246356 0.472657978324044 0.8353527026533677 2.0545932187739067
Ni 2.969333451951702 4.939355330211762 11.914510799479842 -0.06031345217807677 -0.9962914192546906 0.2679603714692159
Ni 2.7595566516756103 0.27790465067263537 12.443498259194575 -1.426965339837465 -0.47021234499702885 -1.063871837407826
Ni 7.6474949120857225 4.721156527561926 2.0170108753534794 -1.3051415869597327 -1.413504586346869 -1.000484888510748
Ni 9.142782304771826 5.0066568182072535 11.583933231748942 0.9699322125348715 -1.3134642478928154 -0.15076640405401132
Ni 7.887959849329858 6.900927256975157 5.88243140531005 -0.09283790716834332 -0.24070564951832096 0.21656633326795605
Ni 1.481079921867564 3.9555275706187514 10.012501248574916 0.4459634997519933 -0.05763487690464913 -0.378095118044794
P 9.153095531129939 1.1204430724343577 8.802900474020285 0.15779065789064436 0.5820360492392557 0.4591378323504222
Ni 5.672116118599 1.0052926859968887 5.6399923283502105 0.035256252099132836 0.2727482797761625 -1.7888100574616677
P 4.434091086032984 4.759316396724376 6.81997728061956 -0.8864232960769379 0.48576854756407306 -0.08336544890153384
Ni 0.2824556995217214 5.250298639090158 6.776221065410753 -0.6428482954306218 0.256551615411642 0.3479507332509298
P 3.3525531927056544 2.6307764096266513 10.503568269946895 -0.5456629099268603 -0.7023557067676356 1.3365370705518786
P 6.833178583012918 9.132869682508924 12.849862668639998 0.46398359047849774 -0.3534402956105913 0.1937853308176985
P 7.7542512452723695 9.110202943819413 5.558056679592909 0.009449832558990177 -0.1101915679554425 -0.9803351530357503
Ni 2.2039839862377435 7.161087009504795 3.587460912675522 0.5061640805012896 -0.86332553371721 1.1440964266875326
Ni 7.249527350803411 1.4583293358092875 0.8990916087189529 -2.130911531020672 -1.7607120136738708 -0.14742191306181063
Ni 9.129674166121541 1.5436766408379003 5.7659021954751095 -0.1964137695794811 -1.073161747350184 0.23130029704402097
Ni 7.963972147302618 6.741654521818607 12.602419767039743 -1.2845192827236909 0.8474222322233922 0.2850718343385219
Ni 7.333682159920698 9.12114036725611 9.516088491625446 1.0388786577975981 0.17279021662327015 0.42263613787996246
Ni 3.0606152874140253 1.483576710181904 1.6790836199315984 0.6499987904324741 1.0066064280274534 -0.8229743835936729
Ni 8.394388640297041 6.224698227884243 3.4834501149972183 1.800887814561808 1.119045911476808 1.2561124494462237
Ni 7.910458893281839 7.3577836202535245 1.209708844496595 -0.08324512127358566 -0.8261761783604222 0.40590134162378483
Ni 0.06820424466586308 4.4975914933111225 0.5879284334069065 0.28907401351937956 -0.6847783600055045 -1.0800942128039592
Ni 8.694198881878286 8.981208425161386 2.9513258320532403 0.2029788243915085 0.2032742441447402 -0.4353656696314889
Ni 1.940600768197801 7.065556907358371 6.231880220837693 1.2599169107939785 -0.5448311580541843 -0.7886383293159643
Ni 2.488850763430178 8.481953242410777 1.0036679103177062 0.5987227658663172 1.2017408166738788 -1.8919179790974514
Ni 4.73538263112908 0.07057060373990169 13.597085264864363 0.5011933667595756 0.6293644020115742 0.826385466157751
Ni 8.842180171374464 3.9076693558024664 4.931371197430458 -0.36468372973489455 0.5486407616082616 -0.1326630095850812
Ni 8.91061825703544 7.3972011999474505 10.602889204798934 0.16696846773517052 0.5216812023002821 -0.729969354719846
Ni 6.961222831491605 5.03895668793045 10.79434442336241 3.6900919942725223 -0.6525812064476697 0.4699207818985391
Ni 4.421113376623 5.874495717675144 1.9663549533327314 -0.2867551355782158 -1.8776738104736115 -2.085012968716345
Ni 7.22736369632649 3.6508728143977414 9.05694216354236 0.4935152813890275 -0.8520034238361713 -1.5126157281184336
Ni 3.9727349139642207 8.10215261102758 4.684365233785211 -0.3930172865722651 0.4510555695629199 1.713163060250314
Ni 5.6097709417349595 7.161478297225699 13.412420751533434 -0.30757258654419933 -0.046084967283520635 0.23803453044406106
Ni 8.781511941885727 2.854425291246221 10.480429191080006 0.1366919282388162 -1.7120842253638386 0.44145404191741394
Ni 2.9320027401025968 4.001690205311118 3.3846741880421516 -1.5757905610047054 -2.1668087591379135 -0.4930828218372991
Ni 5.2261505968857955 5.951700511559231 11.071963061343814 -2.624617331153951 1.7169050437912494 -0.10001359898117614
Ni 3.3016392071165956 6.863205257405148 9.09457565755645 2.3264428979951997 1.590337348470629 -0.7984020935709476
Ni 6.346034686861719 8.914680196233396 1.9015595700258867 0.6826487152570114 0.23758278761862311 -0.5417103530370154
P 1.345629155814622 2.2382309781911522 0.6767218652917669 -1.155575888082042 -0.15725869664657433 0.6360330722810014
Ni 2.297278158550431 -0.006944425408615654 3.004572637768832 -1.4176695163578357 0.2813558189395154 1.3403762417923109
P 5.153697153898401 1.868138008836099 1.5481289361193296 0.8330309964987266 0.2523182940565848 0.21768836268754124
Ni 4.787926982221906 0.608270736706762 3.410227139492046 -0.25561264853714044 2.826637648286932 -0.1266214313766916
P 3.133180526893107 6.724074523500846 0.18098920366672433 0.9555530609950639 -2.023354572474599 -0.8649733537332782
P 7.400517829200827 4.687114495843277 13.134162078637123 0.7804282827013462 1.0820778188928912 -0.09190613938269333
P 0.6851839280750317 0.10720538242825604 11.57037977040677 0.24789291129537955 -1.023521201504921 0.23654817570652165
Ni 2.4864098733616817 4.576147161469758 5.593223197690443 -0.18805717008466968 0.2690428059001173 0.4997100973458297
