# total energy = -340895.79307274934 ev
CRYSTAL
PRIMVEC
9.00411241177186 0.00000000000000 0.00000000000000
0.00000000000000 9.00411241177186 0.00000000000000
0.00000000000000 0.00000000000000 13.17842866426177
PRIMCOORD
 96 1
Ni 6.42668503161785 1.8897650452762047 11.170588846332626 0.11784548495627446 1.3458444639957337 1.200915749669422
Ni 4.53414671980611 0.4958141355818513 6.07243534774052 0.2855042938902502 0.12720121513956156 -0.23366596906272014
Ni 2.6901495764783654 1.4756659284928704 4.757359559879399 0.27350726942937414 1.1559394420690479 0.09842774255129501
Ni 3.348287144276675 4.439360431430851 4.867860725152286 0.536642708706121 -0.5724856865466592 0.009579416158318987
Ni 5.0426539522553115 4.527159528794502 2.5916436893828805 -0.5998203698058702 0.21330206069438748 0.42344783514798046
Ni 7.1898105468328515 6.148728090215338 2.665112742294244 0.3805533497772995 -0.4287175681873519 -0.2829596730915256
Ni 5.04606651075196 4.4586472396098005 11.623229164670198 0.039283885201287186 0.08957414881540703 -0.7890288798861638
Ni 5.6090126051292355 7.7250059676305165 12.317916224419951 -0.5132865504786837 0.26936059425085224 -0.38618020904577366
Ni 1.7770065490927365 6.248295562130757 0.39069022607202075 1.302560713606434 1.0494824014553732 0.10121584681939343
Ni 2.834197362307889 1.645519499682277 0.2694597607869776 0.534061578242506 -1.136077155927482 0.2681640028395898
Ni 0.6126262830455076 -0.05119017827215944 4.569185321742415 -0.689602006646393 -0.051303021149350356 0.9188395076241143
Ni 8.551439395220026 2.4574923231936388 1.4446062437060883 -0.4197487890298384 -0.9573253224041384 -0.13163071166582493
Ni 6.954785212058366 0.7734964515644485 4.576868530621545 -0.7372836289930722 0.11593155576301324 0.4031217219961186
Ni 0.7475853180926633 7.61976590507423 2.6076944196628973 0.96365897793165 -2.361619445896333 -0.39541329760826743
Ni 7.6792650780184415 3.7874717174496237 3.869410938640137 -0.5623424274650702 -0.12551225747291286 -0.7861407597050912
Ni 7.602333943993723 3.792928209399411 12.51451200863059 0.27889013100784227 0.18178085015765466 0.33910073905946764
Ni 7.931947476676643 9.014736980672726 6.755512505311965 0.5011797399128207 -0.14890826779935 0.6316791661876798
Ni 6.729259215579301 0.6726377899698226 0.516299391085086 0.745345065844968 0.059628767406226336 -0.8829991008867373
Ni 1.707305717107092 6.460846633032852 9.347577587142453 0.675281990479295 0.5490004589405254 -2.0650439817935857
Ni 0.21857302109354393 4.746922893511415 1.473387888124395 -0.9122191740941192 -0.03493743530713338 -0.2941668546612547
Ni 6.401824678031444 1.8508312644331704 6.824804550606981 0.4067585474177575 1.3267509376993925 1.1232311532027495
Ni 3.5545983654738165 4.179006529239285 0.25714663745144356 -1.2369433327169408 0.39362046737390277 1.2051670687466083
Ni 5.923625287006306 5.532657734280732 4.787578260593391 -0.4792993948999616 0.3038833106180702 0.16829258586323276
Ni 5.140456618193572 2.990670822874551 9.133533634449474 1.114972769848699 -0.9547693887515041 0.05341981038203703
P 0.2256682614506926 5.466171370324912 12.325730893336154 -0.2301682403221068 -0.5970718605264556 -0.5807759515799095
P 3.9621154762913187 6.126550962043184 12.498513502200918 -0.6560588805836249 -0.5340512938298609 0.8778226988921204
P 2.3876834418624537 8.427101610839486 1.2676196148885934 -0.10758678334274374 -0.30826472751521744 -0.0056469138731322106
P 6.367275899794922 7.904430910012372 5.656735299820763 -0.28129539801522524 -0.7082769573480769 0.9735428127042653
P 4.871990010974353 0.8959532769213743 12.510268370584493 -0.9850603264255614 -0.7419375828253157 -0.3340076408072764
P 3.904426129884908 6.301500860697243 8.019495359311913 0.5489765476811255 0.30199072158104767 0.9941697449259975
P 4.879220313013427 1.1366881191964537 3.878925583926176 -0.8976538746854347 -0.38966096850552245 -0.40782478389874277
P 0.16615108028222464 5.493841006895367 3.4949983464737677 0.36304670835210384 0.8132093337871091 0.742993792003972
Ni 1.5363806565744103 0.9472235917914762 2.5044946889148973 -0.0018509371658097153 1.5665271334249085 -0.6065533176543296
Ni 1.7980221468003317 6.40745224811167 4.693444770347439 -0.5093555908553937 1.0355161690832682 0.9680054278258039
Ni 5.829379245358749 5.588933435082989 9.23015766211013 0.08617515043618708 0.6724591763185194 -0.3254677216570653
Ni 8.742317568229158 2.424528268691708 10.212913281182546 0.3737345270832531 -0.007409919310825948 0.42719804621903196
Ni 2.279156878379316 5.419458036602974 6.955442512243736 -0.5521744857931329 -0.563161838042572 -0.3139854320490786
Ni 0.6577873078365163 0.11045704512345893 9.05501687627895 -0.42071423826690124 -0.2992296138961427 0.7096995487272165
Ni 1.254759041535655 0.8312146111296697 11.602854659746141 0.31880830735901866 0.732414730936545 -1.1637861918069763
Ni 3.959459263213452 6.824603758906519 1.480332759809 0.40987883821429416 0.2897990646108622 0.3542849029990737
Ni 5.732936200351872 7.785171444872226 7.968191729226936 -0.6922587275429497 0.6535232586459648 -0.12067626953685025
Ni 5.382433127531152 3.0010345559342944 4.930089944893816 -0.7277641195384111 -0.020225840128571617 -0.518655785210397
Ni 0.7289017854263136 7.481147598858109 6.924960891455594 0.553354365033847 -0.4509704660482814 0.0844144589913385
Ni 4.962751461228234 4.534849040552122 7.125339303171359 0.5008688935406214 0.5025701925024442 -0.7105647249409892
Ni 8.088700064719283 7.333966382007915 8.980097260903708 0.05987070821370335 -0.5120907303983697 0.08020402045441671
Ni 4.769406161495933 0.2549478332696977 10.371963718640345 -0.7230358608248063 -0.8566350090709118 0.1071761781678864
Ni 8.219583838617144 7.017372795462605 4.990011410696847 -0.051768905042175364 0.3917849568270607 -1.4009977121291097
Ni 7.249633867813683 6.074417152819972 6.966789494347897 -0.45070435687108834 -0.25184109730985016 0.45578691360031826
Ni 2.34726398251824 5.148389240978658 2.6730993897521005 0.023924886246713635 -0.470616522413983 -1.0066874177770342
Ni 2.24786758873326 5.153692663022262 11.273090758390676 0.10555946850006982 -0.3127762422323258 0.7326219618513446
Ni 1.1267655876309999 3.222940899337758 3.704877897307379 -0.06268709461657591 0.20315597339932112 0.0021085617025705617
Ni 3.555750891826247 2.5320373675043415 2.6622926543756416 0.2579289553751429 0.6780022176239355 -0.265830983831039
Ni 1.2841304552983694 3.454292556363872 8.201212748641648 -0.873452851959199 -0.21685866769739423 -0.133292415638964
Ni 3.482403394428616 2.7284710776966707 7.041457894994759 0.7290764105919314 -0.6037742122472957 0.45232852273807256
Ni 4.2298887668766545 7.12426961465051 5.965254899020571 -0.3140404536567301 -0.8626030537288886 -0.44745551091648744
Ni 0.5038728159367346 7.382678628622349 11.223579847030457 0.3786617891815414 -0.40065294874065194 0.3918566906052607
P 0.163094184214646 5.471988026759833 7.875244080548288 0.618079316016058 1.170705287524313 0.7115006064916973
P 8.524589132853253 1.8545139462936704 8.049212530980357 0.050032124856726735 -1.4574077154877223 -0.5470417925522579
P 2.038765092776327 3.1990349816369585 10.263794618408703 -0.9981945498146745 -0.2963954868814573 0.8253894207930688
P 3.7681218804857757 6.368563487829277 3.8225085185635033 1.4135665499330556 -1.9900004224941856 -0.6086490238410938
P 6.743737827881707 4.010152414496126 10.42301613399694 0.9596596269642699 -0.7328117092646476 -0.4992329005990951
P 6.337733407901769 7.697048199471954 10.210633439991646 -0.044466972064123415 -0.5378719531275317 -0.7639151155376714
P 2.3827852048646254 8.554077600073636 5.672628458138533 0.19212902616119815 -0.7097620265340358 1.854199381500755
P 6.912366839821656 4.0470422618860225 1.5955250675007642 0.11422357193297102 0.0923231723154539 -0.01502886930866444
Ni 5.35716758889897 2.676778469967749 0.2001037862958493 0.2614639651115949 1.5690550420530849 0.9561775819529404
Ni 1.472964694854362 1.078143382137849 7.0715046171671005 -0.3668010331882134 0.7959451473900228 -0.9294000567487799
Ni 6.8704076773034926 0.8076598538018767 9.201798310550645 0.7234585501845218 -0.5851427131890374 -1.169745751824521
Ni 2.832207453527521 1.3677786569708457 9.304300222608697 -0.3651953792639904 0.7649016478206568 -0.09796442976163128
Ni 6.224326615645059 2.186324482335911 2.4574473026329966 0.25269727466255837 -0.39524283346867417 0.7131985630194104
Ni 3.967454914783437 6.785066702550885 10.469536779719332 0.5535577392939047 0.5113775063814291 -1.106668620858378
Ni 8.335790909745775 6.854353345378624 0.5039565541795284 -1.3580073246105129 0.3502156180257065 0.06388137203499321
Ni 7.596562308119443 3.81628487626038 8.368038236922287 -0.28589947244613984 0.12639363163660167 -0.8658169326804959
Ni 3.132638658802423 8.294768174888961 12.37177702234938 0.17666718308017315 -0.11038980000917761 0.4275225194379863
Ni 0.04554189873403842 4.905251201176519 10.093384593089764 -0.38270099224792153 -0.2925133782182317 0.29438128466490593
Ni 8.722400472201222 2.3536298897929915 5.66465531684887 -0.25031874712805274 -0.3450615846285928 0.5432036497530902
Ni 3.825108906146174 2.460391647298971 11.265539909959832 -0.3634814818966772 0.12122648561336542 0.44325715656442366
Ni 1.1986184024153226 3.273462972489993 12.637651345686846 -0.8844867411758572 0.4470299933432947 -1.459234741394132
Ni 3.0548881505740235 8.477389577076384 7.964976360785898 0.649894403644126 -1.5012666216542017 -0.23016232678483586
Ni 5.510921807602867 7.723817424829573 3.62325111880772 -0.028383436238699506 0.8792789717226728 -0.34379248810818214
Ni 3.025741839614518 8.35834621062732 3.562102392521593 0.6826877960250629 0.17355923357881078 -0.49494275786417347
Ni 3.468329967171987 4.469632256406401 9.150600028577571 -0.7735351551259388 0.7419342403912061 0.12736807973472905
Ni 7.161276515498074 5.961667660748633 11.370611595619318 0.4266709700709684 0.6588935218189428 0.2510296571521483
Ni 0.3724010735168934 8.892209022829986 0.41650681636645814 0.10827095389396192 0.8147178000118355 0.208182480079635
Ni 4.621981833618274 0.3365106825732454 1.7355597205546769 -0.5252645487761664 -0.11741585361802358 -0.1142060884314743
Ni 5.9862668950833156 5.617872651463543 0.469771542072992 -0.27789871362885044 0.03678965802452374 -0.5149210007583133
Ni 7.734073108543776 8.822598231965625 11.479518132634274 0.4638434653562076 0.1944435332269877 0.21300818360305254
Ni 0.01600751054180065 4.832128806582097 5.649908382005039 0.4940184462776911 -0.4519382292781894 0.7953021144893851
Ni 7.841762289598977 8.750025088211034 2.474013068126756 -1.3923642048238278 -0.11553354899364618 -0.09911345576440996
P 8.641534541176409 1.5012105946010312 3.4373693276186175 -0.727531948922947 1.1479227424121585 0.6418005708923978
P 1.6800592738066709 3.052141896374873 1.5107351444104118 2.0443777116934854 0.4419464081728001 0.8771058753307539
P 4.847570858882237 1.0181579871387063 8.26976645674214 -0.3963656342192077 0.17870786765928579 -0.8635345644042226
P 8.391778478959925 1.7405218867486167 12.481790164744913 0.07884159288925133 -1.0919559972385517 -0.5496589184601308
P 6.172291851655259 7.6724579692494 1.190990118620175 1.1343558023610012 -0.2984513409692215 2.4843461702043084
P 1.7634193438910393 3.1937405637054823 5.95276169344247 -0.3222476720578708 0.3603961581031342 -0.697148194424767
P 6.884814256708871 4.040559301153602 6.147736737470005 0.370889087214658 -0.506502951897947 -0.7040948009459292
P 2.352792507365054 8.336727337407124 10.303066953867763 -0.2039761553077713 0.8154132834169634 -0.465959740368262
