# total energy = -340874.30093781604 ev
CRYSTAL
PRIMVEC
9.23352531804022 0.00000000000000 0.00000000000000

0.00000000000000 9.23352531804022 0.00000000000000

0.00000000000000 0.00000000000000 13.51419764199181

PRIMCOORD
 96 1
Ni 1.4297467526307477 3.1826668895415478 2.198002831914027 -0.507926571718351 0.8486239658409773 0.38491651184200165
Ni 7.943694120856342 8.595331699393373 5.8299573638645485 1.5850480750472313 1.504884420912447 -1.408721820246245
Ni 4.851368042508966 5.93961286320835 3.509785759167396 -2.3797179552692564 0.21062657074475336 0.3335566693127868
Ni 6.360726249975788 6.519902992021612 9.610297416883519 -0.39729765911517384 -0.2759433896746925 1.3712693318267417
Ni 1.3034782946298984 1.139186179587185 6.4628813567467125 0.2873500888497374 -0.1584123506350433 0.8636278954489771
Ni 1.2720935422536728 1.4980748395928158 12.501443446753928 -2.015302134483768 -0.6553482276698455 1.2101758348151095
Ni 5.943380141516529 5.257781657054295 7.2189196353991525 -1.3607843731350178 -0.16305679138559015 -0.577953651639766
Ni 4.7761609792243656 7.550918423127631 6.858454812630762 0.03328858684980073 0.3889649708797624 -1.3818846454487426
Ni 8.797444333922119 6.7240008344823625 4.053354158001179 -0.4245840056349527 -0.48045947664633376 0.6771190436880339
Ni 8.107192152726252 0.23267560315637262 3.364035486209619 -0.4780115293264735 -0.07832814358794252 1.5959888903294512
Ni 4.560078020969457 2.972530321557392 8.400438758269445 0.3892655328393167 1.099592430737887 0.5055920100479034
Ni 5.368334655053869 2.6942411035912066 6.143351521536286 -0.8336208075639255 -0.5202802081876975 -1.3385283899502947
Ni 3.619052527097535 3.86784986536685 12.675046648674014 -0.028223770732383656 0.4243963151041788 -0.062333310821582964
Ni 1.2297485953877207 0.32697205657413286 9.632190105287176 0.5514252663319341 -0.587375459174298 0.8335791556927128
Ni 3.3465988970989202 1.442636753900889 11.948577811330672 2.015715567872103 -0.8519370893746102 0.44551329958845204
Ni 0.6183525666612404 7.631527098692341 2.2609523904091486 -0.08241028407711613 0.8091613889699806 -1.1532328417711624
Ni 2.856880417611459 3.762772347849507 4.198644601400752 0.2079369397277322 -0.23292831956574722 -0.015171822644431936
Ni 5.0490024172841155 8.507179233687042 9.345027469541188 -0.32300974703487595 0.9224704195084823 -1.5128790090821493
Ni 0.8228936183347181 5.670141661870377 9.84203858728306 -1.7172382587609523 -2.057740506153637 -0.10210467718224996
Ni 8.52214677814184 3.198206912562785 3.5708701455589584 0.04638758612560398 0.31476601896884504 -0.9507888068372014
Ni 5.221281531681179 9.012003760508279 2.632619326029213 -0.8728067337347679 0.07156459961186384 0.33097631018012025
Ni 7.745274896433655 4.483596731198267 5.634393145453844 0.7120256257572317 -0.47525582095820723 0.4674617788350852
Ni 2.212186450073815 7.711886469074892 5.634920379746483 -0.3468323033757704 0.41593275771785787 -0.308541635325688
Ni 2.1936547648666704 8.337854847374823 12.797080611988267 0.024582317325054438 0.8860574280970869 0.2328920670111731
P 0.10476450101085438 5.300542112557178 2.4392046723002343 0.7766893844842043 -0.9186662152710436 -0.5983021333891309
P 6.6645092311990375 0.6631120803840276 7.229338745308342 -0.04220825793693376 0.6493274753970624 0.1505630297939536
P 3.921413545429952 1.297892011844486 7.1371179883701865 -1.5930732593445531 -0.37355737807544054 0.7445166564064016
P 3.9342019779221773 2.231050542190505 3.074845168315404 0.2482173845143338 -0.49130644666316675 -0.09028403039823805
P 4.005180086635342 5.977377981542791 8.049718074713361 -0.27586882768301524 -0.3033752606334001 0.5281387850001679
P 7.653410553570733 5.45768747904467 8.381112989889498 2.6789082312870316 -1.2217319150838248 -0.14819041579671896
P 0.38832883196101714 3.2124634755721684 5.399286355095159 1.376531351556629 -0.020254379373661893 1.3052071500903457
P 1.9266304477239609 5.418094122707731 11.751432813394576 0.7992353881055204 0.3346702140919397 -0.23615993912916747
Ni 5.8030120904358045 0.09049039430346772 4.951452992915445 1.5313665263633756 -0.01469334034611663 1.5035361344146687
Ni 3.1585766221247864 7.451334853143049 1.2921413723093542 1.1932492342630998 0.20125541394249855 -0.14639115780445114
Ni 6.377152691422481 4.057404905534998 10.286358593099385 2.3211939908914347 -0.549811384877595 -0.6480766337090968
Ni 2.937359823822457 8.255039359271743 8.046866762111485 -0.9116003095631977 1.5136863354747931 0.6187575730300053
Ni 3.491740680741725 1.2271262742124198 9.56953878965812 -0.16496634970347718 -0.32139972223527874 -0.6027969359356908
Ni 0.04295620623850458 0.8706263271928819 1.2871137178024832 1.3909665531453528 0.6688472905975449 0.35706220863389476
Ni 6.501158935733368 1.6371686641869503 9.711193994160803 -0.3654023530684739 -0.8389897851853229 -0.009144385503429412
Ni 1.2102381565024707 5.375222864901667 5.392367674613986 0.11769867496576505 -1.681444903211427 -0.7282778259500361
Ni 2.547732758209161 8.548019115934775 3.20713573149418 1.209765486750568 -1.1325313475577528 2.8850441132502826
Ni 8.654758667999843 3.123092184530836 9.88608157944527 -0.18102957381392693 0.10996839620104286 -0.40369122134634344
Ni 6.888052877868182 7.7532803628385345 7.631629590822784 0.8025641953684371 -0.27849958043764295 1.213018189359911
Ni 3.590003856613391 0.9802864432993157 4.959480619780962 -0.17338465567415945 0.2068215951763664 0.1327961927288358
Ni 8.766391988455437 6.5623495076654805 6.391972499473037 -0.4189093238476785 -0.6667089040983034 2.179144397885131
Ni 7.308658420746038 7.79742584713119 12.372113151775158 0.7361466871751515 -0.40321145349644755 1.6787015361383348
Ni 6.264983826501506 2.099795980546478 3.821477254780242 -1.5352488921369172 1.0685926399222627 0.08719125040552726
Ni 2.043240638297469 3.0759735051028048 10.860454873164787 -0.8411687951145126 1.0163596507594754 -1.2303404826884423
Ni 7.957655211057239 6.220367432420329 0.7478536818574164 0.3339852722097732 0.23003068630297802 0.4794127805493743
Ni 3.751996823865084 6.324918638997558 12.678520300878763 0.03304253227726568 -0.7775959554588737 0.4094222102928497
Ni 7.774674440877874 1.8670003415616585 5.752034720799468 0.7252812052155573 0.18410692718767002 -0.18378811039567056
Ni 4.4152871112867285 4.9562608895210065 10.125282514906521 -0.33892718959608076 -0.0973872171019226 0.43651263875173857
Ni 1.852180533511102 6.195049106143303 7.564126057666893 -0.463784329983498 0.15673419160167198 -0.300349843543515
Ni 2.223414416796231 5.968089055126055 3.121225165722224 -0.1076654590994791 -0.6600924272230503 -0.05795677902044212
Ni 8.39593372129258 3.8187459780068123 0.9486376121005069 -0.3494576568137594 -0.5478624886813404 0.6624074485094721
Ni 6.010258565011969 3.4417873090572937 1.499373073245095 0.31559828506215326 0.5976863541820029 0.7205902274977912
P 5.14709938970101 9.008956697170781 0.4456145460584992 -0.6977557461017789 -0.5338301789579903 -0.2221533404374303
P 6.10946356046068 5.894248553580695 12.636167043840071 -0.44543925181740707 -0.09145285389535864 0.22430226845963303
P 0.6439857561498075 8.019325926303138 7.573585804301033 0.2584125798797808 1.0804827064916294 0.2788687908516036
P 4.328565841996492 4.826714530051031 1.3573799217177052 -0.6134801266811498 1.3207165585798544 0.1406660823952158
P 8.75060266025204 2.6576948105917655 11.94965905713922 -0.5978619605279187 1.0182869496891753 -0.0693429093701967
P 2.4887120647143584 2.5141873609208916 0.5521306468121514 -0.501156342874053 0.7750963289654715 -2.470106115345527
P 6.927997108165197 7.355749399598274 3.094967789925733 -0.5522459624610166 0.6670539461425479 -0.20139631039573702
P 4.583660444496636 2.8442489550487418 10.73258347517791 0.45267099367915586 -0.7133947381906165 0.12810495790075357
Ni 8.831239036392546 7.546846438485702 9.592485946647056 -1.1263223905335633 1.0647226154438956 -0.532939805933237
Ni 5.664666181388146 6.69949505842867 1.417233479191424 -0.7914732276615982 0.1507160104320501 -1.6707177466019096
Ni 6.876677174741525 3.093461801954988 7.762568365902743 2.1687550842310066 0.04431733386013658 1.1903135486735437
Ni 0.463993878098769 7.044302592404955 11.839829044167907 -0.42393171676293445 0.9408442940299796 -0.20719980445139152
Ni 6.539884340695385 6.628821656049254 5.098068447190566 -0.3767116074337061 0.47252505229060554 0.9159156491091001
Ni 3.5832079820182448 5.508776574336713 5.790076844891863 1.1386994240416775 0.3940516413740504 -0.07525464686894136
Ni 0.9415333377615049 4.041735613160048 12.962588782308401 0.5218737779270625 -1.5776060169468895 0.4366761609127963
Ni 6.495083276108904 3.4991367344791056 12.615409155691498 -0.8639564824329894 1.158785139047959 -0.45581802394856985
Ni 5.711452453906633 0.8668692057624946 12.187900629325421 0.24339579475597437 0.11171546079913663 -1.531205318195163
Ni 8.779697498362511 0.6271373425984986 8.115397063276859 -1.27327636282002 0.4734668473785846 -0.5242708174043293
Ni 7.261290436135848 8.649255486941817 1.3094754692896098 -0.7384722499845346 0.23282316144645063 -0.6037194477499603
Ni 2.8654583625827783 6.490817387436407 9.987749156082197 0.4169848531314561 2.7845602595009074 0.4068541924553573
Ni 2.54667090280367 4.382775868828155 8.759199995626417 -0.3114091866814701 -1.4728302206903796 0.4079764789852587
Ni 7.549884268297935 1.594546711563044 13.30356532665218 0.27576392667403476 -0.9078791519578688 1.6649556473071518
Ni 8.119389639601508 5.254688426090472 12.041623122075006 0.043375024551525296 -0.7217050578285248 -0.7952748607958755
Ni 8.503808996965263 0.5109528175397138 11.194822983476302 0.2266517425284161 0.5357135120236323 -0.038122517903334346
Ni 2.7122834119592985 3.364567337264891 6.65978258961581 -0.36429806426070166 -1.0475967543968863 -0.7433491184608617
Ni 1.4128494013955335 1.656208193283678 4.1914286014060425 -0.5196978533216662 -0.05697410339219865 -1.1342611857646658
Ni 5.045964587471884 7.899844109372171 11.524313022390238 -1.01682090666661 -0.8103242989298303 0.9037309341174501
Ni 2.685783194448334 0.8676282015392895 1.7492913614815984 0.5891924577783788 0.36195733194266694 -0.5256602415526882
Ni 4.638129010035723 2.124421792428618 0.4131577813989903 -0.4187776833658208 -1.7985069730344574 0.4925408332909001
Ni 0.2838856576293898 4.209056324489729 7.6522517461499575 -0.5139144138706697 -0.09458779997991452 -0.022382738570574354
Ni 1.2593235768119784 6.211226242407836 0.4333865885498685 0.15237720018455694 -0.17748325122356529 0.371326946083025
Ni 6.928366449175803 5.069149969412661 2.9897056019030877 1.5172064328129096 -0.19779059532234972 0.06800593572632804
P 7.411039748885958 1.9200654112604432 2.094929912731747 1.5548399268949673 -0.6677543146436823 -1.4924593077752168
P 4.279665092192288 7.943426348623651 4.713441335508346 -1.2506586254205043 -1.293515058464398 -0.8991952510306256
P 1.2297208948119254 2.4101070641321845 8.84786676869002 0.4881828134325205 -0.021412661347821188 -0.8947472425616009
P 0.6989400051178407 8.706632612939424 4.261675414918208 -0.021264822916047248 0.4510447709296425 0.8939728262894215
P 5.769143519763254 4.369728897628506 4.8347449269741265 -0.931725619558163 0.6248400317786593 -0.1569650766655555
P -0.12668027322767453 8.210118258856816 13.811509861660507 1.1747210935519252 -0.7260278535735948 -2.3357207237527
P 2.9317181398854544 8.604768362214351 10.767139943482713 0.7580013211563977 0.4222427590962857 -0.1855043217558289
P 6.898671431923099 8.567825027628508 10.499436962233014 -0.5434594745176383 0.8257668587371456 -1.8852459663939145
