# total energy = -340863.47557515226 ev
CRYSTAL
PRIMVEC
9.31086743016325 0.00000000000000 0.00000000000000
0.00000000000000 9.31086743016325 0.00000000000000
0.00000000000000 0.00000000000000 13.62739564094966
PRIMCOORD
 96 1
Ni 1.483779790622583 5.01417198082448 1.7446060434632547 0.9840426837943247 -0.4138658478865002 -1.7224933365123047
Ni 5.475851328954629 5.696788895795011 12.489085110772141 -0.3131454526462865 -0.004144104075360605 0.05884380961108576
Ni 4.689381001681109 5.4073699009926 5.018724063779018 0.6363788856561944 -0.7414932961990456 1.1670340093203126
Ni 4.123177858812446 8.407862019382796 7.086940468429752 -1.1088309186170193 1.4106727733250286 -0.7199253402202827
Ni 6.432226360164401 7.476598396903628 9.490962608074174 0.3133179736684088 -1.3016914236276034 0.36766389540914096
Ni 8.250405944839507 5.294857382230782 1.717882923627249 -0.4955382253563273 -0.13916121571491516 -0.7268089547139935
Ni 6.12803101917902 8.1294577804307 11.900027513372468 -0.4126805693291474 0.33089969130591396 0.4206142223539272
Ni 1.206260084050691 5.135697418997207 10.583634768206062 -0.5970906295795331 1.6346366846086364 -0.5597713243037843
Ni 9.210542566381932 3.027177063670846 5.025129009298404 0.858848728892779 -0.9232710610329067 3.5153973615376874
Ni 8.184242922800324 5.35689569011807 9.847945910423352 1.1686885142046002 0.726510192526652 0.4542393666075403
Ni 8.22745465729003 7.3869440570196865 11.223509216391754 0.5829832436438734 1.4643118988067232 -0.804935266703775
Ni 4.84778678467472 3.381893169866557 6.876042809648031 0.9033771503224571 1.5361145825713223 0.232080112632839
Ni 6.682725930237882 9.358538799890628 4.124262574836591 1.8311489274391946 1.2338996607946104 -0.643708329438072
Ni 7.8514259761650065 5.8206792942263865 12.509907934088835 -2.123501611709846 -2.580711116689304 0.9418573086755263
Ni 8.68893847720982 7.234357566001095 0.380258608075825 -0.3945704899919979 1.7258242006577502 1.9753546475565527
Ni 4.576365696092648 4.030050565477814 9.161221040861815 -0.08820915014708035 -0.37090734204710313 -0.2701771766148766
Ni 0.3953059004931515 7.381506510598229 3.1953108406732587 -0.1701499507869457 -0.5292502728967917 -0.40558432460399824
Ni 3.846877875838519 6.483091627459652 10.623208746896344 0.5402067719082955 -0.9542713660691631 -0.39803839393594026
Ni 3.5272451171018053 4.004548100326488 0.17210486184616597 0.33101976182354603 -0.28924627743118575 1.0504506789059136
Ni 6.623145691280842 9.057518464606817 7.612454190722361 -1.3635544796809869 0.19874087505076096 0.6879055927805766
Ni 7.526122899327835 0.3341437452056222 13.651788027161489 1.230525859226371 -0.40730593528079534 -0.8490327712436216
Ni 2.6028715363210613 3.793135550590818 7.777290989663406 -0.497127424220318 -0.8657590828593671 0.1836271593377741
Ni 8.370869944155992 9.203000763982306 2.0297187622041526 0.32176044800880715 -0.06095314264460469 1.96505223718928
Ni 8.965014999371906 3.4323208264052867 3.0065032142287125 0.8476456610881078 -2.0766692247373397 -3.1165495843265743
P 2.703112332165958 3.8484886558572042 9.942956792184459 -2.430445820641427 -1.0690976045831395 -0.09547663034277105
P 2.8313509055610684 9.027435052812756 5.535257454695777 0.6153068954772435 -0.3399394329106791 -2.3225379065138387
P 7.297140743261185 7.056529314111658 2.751466458588148 0.355013296524666 0.6545427010494147 -0.13727968242148614
P 2.183957001056934 7.097618170888876 1.660974903545138 0.5032934438217138 1.0307796828395475 1.1262959081710022
P 1.755657111695496 2.751687126139841 0.9900375403401489 0.47653211656746963 -0.7442621171934344 2.5382082103300867
P 4.41887237808072 2.0509512636758878 13.05125664816051 -0.30297905363624594 0.3808665101423441 -1.4469626088949983
P 7.31651665782121 3.5274406453121663 0.03670343834484326 0.7315423556339208 0.0007607894254244962 -0.2255762500760502
P 0.16201281293140807 7.266973533662685 9.369038664786997 0.1769556608548694 -1.3667812141484008 -0.7827924120581485
Ni 1.6542245248541152 0.4748234992999666 6.954223367930666 0.6286190392051174 2.11897467037377 1.1877992668921222
Ni 6.92036719276336 2.9023276459219867 5.797707522769158 -1.405863267751527 0.3093926704720736 -1.038122496357864
Ni 8.808750715825102 3.8733021168386874 11.815796753609245 -0.8265919257416023 -1.452892344115872 0.11703173080572747
Ni 5.644564241894396 6.834846877898473 7.156453540473113 -0.05719418982280473 -2.2501063309159894 -0.20724325609481728
Ni 0.24150247913674303 8.748118348878977 5.310064821563261 0.8990759518439418 -0.6008344128926814 -1.4165446587247734
Ni 4.978976902959561 1.6609004166078578 10.717019457880522 0.6868856361564945 0.2148904882274299 0.5640483544125834
Ni 7.840820898469731 6.6836756386882055 7.608474726098163 1.6696949617643504 -1.0801227520490493 -0.05597934357909714
Ni 2.829758747276703 -0.11088497918224438 -0.2156108197381281 -0.09068255138823737 -0.614206206213897 0.8837190097718973
Ni 2.433795499562053 5.611920341631326 12.378730851018018 0.37562223102426917 1.0231293653831413 1.577021348088013
Ni 5.660132011785968 4.247440691930224 1.2469327450658554 0.33048934324137275 0.5390384626318071 0.3782712386113421
Ni 0.16751274216283854 5.426997208965945 5.634205902178861 -0.6715194381130694 0.45054751957824984 -0.6897652716971346
Ni 5.348916276961924 7.8908574985877395 5.018274348895189 -1.106532866611462 -1.146402192002574 0.1853063468124099
Ni 2.513719983263762 5.472415618972577 3.9897875826176907 -0.011406184954412613 0.960591651860236 -0.6306985474419654
Ni 6.243653367572287 7.285297320233626 0.859651880977935 0.663003173111942 -0.0391077646347391 -0.5663404928808699
Ni 7.982103996756045 1.3357556245124058 11.628733052583772 -1.1089491893624386 0.4367370960577188 -0.5474765660968313
Ni 2.743912552061215 1.08692269966057 9.23693421934704 -0.2865134518810549 1.5534109077579246 -0.3351142436078938
Ni 1.904239929835275 1.2008504702307128 3.897830665285074 -1.6688107593871842 -1.35188295688033 1.0524265716853616
Ni 7.126332885210412 3.10563974122843 9.995285727797267 -0.8661619747247404 1.1848273287479916 1.9309321555771195
Ni 4.117321323368787 0.6636646448662887 3.8947776319433 0.4392860877318177 -0.019594120081843674 0.9855817461466702
Ni 2.1424026009217148 8.243460037938124 8.722923142343934 -1.346364855275578 -2.0000562640682906 -0.11614829975950965
Ni 0.14536218918912416 9.107005723562384 10.498613515820953 0.3945270383485721 1.7783659793102082 -0.8557772890563068
Ni 2.9288543064609156 7.880224488290984 3.7358411295215657 -0.47865456222711117 -0.5485505158873004 -0.08453581506055119
Ni 3.145918552562725 2.9972891800871455 5.533540530791466 -1.7585294042002553 -0.7563542724712781 -0.8132126762212188
Ni 5.360936606465523 0.1948317574970863 13.797873670728949 -0.8040145546617186 0.9449793992442758 -1.1004010426821114
P 2.4123525724925012 5.013054676765275 6.020323838958493 0.2815771909217022 -0.8660002523358956 1.1857706664978676
P 5.195044886275246 1.3340424249549598 6.382894592690407 0.6062298728766399 -0.6178157779420264 -1.2096518439908392
P 6.0713371490415895 4.957459488952728 10.495833290886967 -0.162958575244829 0.6182569792445031 1.5569032371818992
P 7.0644714837991645 5.05926451048051 5.989867061391315 -0.6096646095898016 0.642958595756241 1.3156694830742501
P 6.5126722524270715 0.1963503599308874 10.201877110517472 0.21028795645841203 0.507011001882617 -0.7215340794682994
P 0.2603188105804502 2.0229255535241935 7.567346763678873 0.6858618228776704 0.6110033830058832 0.1819824246454995
P 0.4397541181417088 5.489789697093196 13.469031533284248 0.931793239571305 -1.1915253095934577 -1.0979623513336316
P 9.734790941827493 5.168574090939278 3.509667130990382 -0.7163185967056309 1.7944585139966969 1.909876620458401
Ni 0.3816561692365457 3.2566992500327765 9.489259650470604 0.2997214659308967 -1.269003446476279 -0.05527023332721448
Ni 5.5269028135930816 1.7706289860888262 8.428066601120063 -0.5297565231092489 -0.18040093909099253 0.864523410680053
Ni 5.174775128467858 6.488836432497392 2.9741246736797042 0.04935541050467629 0.09858278007192055 -0.1589186008475005
Ni 2.553095640483534 3.2002753950429876 3.199521214803025 -0.5516034437810113 0.5436458794968315 -1.155007931393714
Ni 1.7897348855012103 -0.0873685219961534 1.800028980233341 -1.0899281681752455 0.33261847376923365 0.7039274221301296
Ni 7.84627706662551 1.5186489881369 8.829584712182388 1.4533304600945551 -2.1906945646165754 -0.7845993833599004
Ni 1.5506504385659274 3.328076357681576 12.678356418401256 0.07217780771583053 0.17114548193099557 -1.5694571625875098
Ni 7.067041283135333 2.211535789584947 2.725301990781744 -0.44363433739818436 -0.552674565358003 -0.12040141860890875
Ni 1.875068983022897 7.0276097607126005 6.330824499184649 0.8041950461036409 1.8753513329880218 -0.5936425231299324
Ni 0.9277934622886237 5.622953719215964 7.893164731469994 -0.44237809639358006 -0.12130387581852012 1.9051874425128477
Ni 4.047806389151994 3.915322060331909 11.493385632111979 0.826973734561053 -0.7043210580241225 1.0075178840981294
Ni 5.089273435337292 2.8722349232607653 4.119452580861719 0.4975771101632269 -0.06680754454285269 -0.16027640042697558
Ni 2.0848148875369215 8.12634795079925 11.300340630022902 0.6089747826116286 -1.1757428499482203 -0.12355050576085172
Ni 2.9586863248416564 1.0287204690432148 11.571239378957296 -0.7529028235875678 1.887193834148905 -0.581528770585534
Ni 6.550688523041479 4.6919880444859166 8.432033030530237 -1.3833015804009274 1.321421297956363 -2.494939629449439
Ni 7.196471647526928 4.675964042103503 3.8922432139023395 -0.9788955923757464 0.5274769830464529 0.1463657038831544
Ni 8.895602484693875 2.3296348286427833 1.00050854154832 -0.12198753214910604 -0.6156460239842171 -1.2351232487890664
Ni 9.13572043788392 8.739375444615709 7.688317274168863 -0.3991231423596868 -0.7334753109905755 1.5976971312698096
Ni 8.0939088896137 1.0904701400485421 6.276260024366717 0.2124795647930921 -0.21466551670081738 -0.6306316987597721
Ni 3.8173531160740595 1.8422109328151466 1.5482761674401193 -0.6948632550453323 -0.19389023182667897 -0.15297086790449785
Ni 4.0126671764900355 6.530735334717532 0.5966142971867556 -0.743319807884823 -1.9263509639643406 -0.4922495273027265
Ni 4.300400904336482 8.592738597712376 9.317063542126268 1.3811763065278084 0.9106099206254704 1.9363355859808784
Ni 8.341661753874973 3.9268954682118276 7.46106693939398 2.0524311781255813 -0.5999324699037022 -0.5730955522165163
Ni 4.155281728780234 8.434537653796285 1.7019250284016716 -0.764274041538987 0.3370014333282777 2.238880380293183
P 0.7677312760272422 1.70624433967721 11.380006271617562 0.5295374651199073 1.151090855727495 -0.7369151899100599
P 4.250597075897474 4.4661436506521985 2.972012037921093 0.7044228737093093 0.3965957479521428 -0.4449587126365627
P 3.91575036022127 6.464376784467989 8.461985159097342 0.06165942468300993 0.8287174567250373 -0.7944189405534835
P 5.502191772150358 0.7171360238796324 2.3090531567855344 1.9752142653239468 0.18008520762278665 0.27446037737126283
P 4.03477117512795 7.706651302693681 12.393857285806204 0.1217720737041903 -0.23838497180494433 0.19198684415637904
P 8.96275245865202 1.114268716509582 3.967275767998167 -0.7782451590070983 0.1914176019164703 -0.8155276975076406
P 0.5283135000476302 8.439388615586662 12.844515360479027 0.6932694281956512 1.5457279372913701 -1.034631709595786
P 7.638421268144972 8.104206708692697 6.027192465662449 -0.6070423414756061 0.18171040193103544 -1.1415728889347307
