# total energy = -381165.0745307618 ev
CRYSTAL
PRIMVEC
9.28632763853493 0.00000000000000 0.00000000000000

0.00000000000000 9.28632763853493 0.00000000000000

0.00000000000000 0.00000000000000 13.59147917538680

PRIMCOORD
 96 1
Ni 5.026039100667254 7.9968188849648 4.064355369481048 -0.764318007403045 0.6365444646997812 -2.2094147667338984
Ni 2.6235732807133987 3.714168883361927 5.491215395872776 -2.561745117109762 2.2672627880906178 1.5130240193004458
Ni 2.159600493568122 2.946449605919133 2.0202377889962326 -0.8984514308860656 -0.7935285675287301 0.4121568356151934
Ni 2.7021913303895975 8.76668330408905 8.172257115095642 -0.7274982674715342 0.013051948087951714 -0.25645828436688733
Ni 1.7918619196043297 2.85370705192478 10.789255675850294 1.6129764260263832 -0.592092147923677 0.41140967303652376
Ni 6.951865582594858 3.232979244799255 12.452975560552442 -0.9435822617864329 -0.26204683419825836 -1.4719640160353424
Ni 6.576957963704298 0.8786890353001807 2.0679026514316203 -1.1837690626868063 0.3966325147273492 -0.34831145902445826
Ni 2.29924828839811 7.447848341064711 1.0518799741456888 -1.054508651025371 -0.6686328605938936 0.3720895352806624
Ni 5.164331091663941 0.8676271618328658 4.440064398445677 0.4280549949026886 1.5710479041133973 1.0615871551387073
Ni 7.399540864757649 8.187745780941961 2.637875153889197 0.02512893385714382 0.49862637736334775 -1.4245994107084499
Ni 4.883976860654676 3.77984179232839 7.824695873796206 0.40448646355412915 -0.3059031692615764 0.34205467948146895
Ni 7.438144128696221 4.86632355183889 5.521320741401393 1.1881545933490119 1.2646253720132414 0.7127275369202628
Ni 0.9327837509833595 0.5875431629574986 12.244047118473544 -0.7681792901306641 0.5415159776380223 0.37381757371536267
Ni 9.002472448824268 8.867022074080937 0.9720296287936064 0.9452038565502561 0.5900218956582096 -0.5966093190677403
Ni 4.67026131668491 3.1771219841327847 5.517678643706731 3.4608544932948004 -0.21916469012275158 -0.1517699056178612
Ni 5.853209447567528 5.6924073984069965 4.17784357939043 -1.1929782399899003 -0.11070270326390613 -1.1964816251574684
Ni 3.1050507954324567 6.712510488051506 3.6764951808186512 0.7121210136845155 0.11118709909949238 -0.5490385112673125
Ni 8.986964281689936 7.626963028302429 8.475918171179007 0.014009941125846838 0.2687260459906469 0.6294453917611547
Ni 2.68399941457154 3.1894913725297487 13.332547725609794 -0.9902200162496302 -0.8662079974713276 -1.3481168049696781
Ni 8.595787016799765 2.5541115500757936 1.878940742379983 -0.12740047563456122 1.600874757666843 0.20803849830260301
Ni 8.29039684651256 8.273765033735563 12.102981301415166 0.9245165034042336 0.9186415326806954 0.6318223766337635
Ni 5.597473271093061 8.625345397631248 12.534415725193986 -1.296374125179748 -1.2174805960066386 2.620091161148823
Ni 4.313034865593012 3.814814102165452 1.2321006630035856 1.5554670189560051 0.5500610389945558 -0.12213331369835095
Ni 2.200302467550024 6.596849277477793 8.939822239499856 -0.08404987656306816 -0.6604729504909206 0.5412264714220614
P 8.084193941591701 9.251717482288615 9.930314944878178 1.3872273978178946 -2.2940300288821334 -2.485290279285133
Ni 4.291295572622072 1.869588481828495 11.55934946726689 0.8357152281991092 0.8671479927870936 0.2000631934066103
P 0.3411592470345204 7.984226624704827 3.397339814705819 1.578974872269958 0.8864652050584669 -1.0294725339923494
Ni 4.223774684458165 8.449453066079526 1.6299306530045563 1.5750829934147195 0.28620954748739097 0.03490761051046246
P 7.892226976920502 5.369271056027753 8.789664179063498 1.4745942545693378 0.2341609064212677 0.7779181146849828
P 3.040269373918027 1.9013662949624366 4.346500933089243 0.0847924111560475 -0.8127401074601746 -0.22731688691624077
P 0.6535745241703003 1.7907568466169135 0.5782707648235883 1.4975840305962917 -0.9988303836264605 -1.183444589467852
Ni 8.1348229998051 5.044063862588055 13.303475948345879 -0.0029056036825691896 0.23925760421788475 -0.839735919322728
Ni 9.06746745587408 6.731278156182335 1.7112491667542062 1.3536264219339977 -1.0895823548000527 -0.3369674947665487
Ni 8.281017655610958 4.728960193604737 10.906251331703771 -1.029439366761569 -1.196602981226681 -0.17226442602678718
Ni 5.830560094489304 3.798163716733202 10.211346149171332 -0.3835725962195975 0.07248891119834612 0.4565782991533621
Ni 4.0817031581179615 5.958767133684861 6.057572730985806 0.09190922470648688 -0.9824342016566242 -0.9047958850468547
Ni 6.317795132336077 1.903511436643892 9.083701813828714 0.8226293415494284 -0.6040711746624241 -0.08218762654334878
Ni 2.7704551247635325 0.6183765565719425 10.509203250488852 -3.0002567885694007 0.35299832297716627 -1.2623841413875483
Ni 8.419903971575668 6.99683926728442 6.27761876449777 -0.4425529314085475 0.6852144191016586 -0.5175633234771667
Ni 6.423185664556155 3.2186318686180915 2.9980360845107055 -1.5262199491654296 0.44281981191668895 0.7191768920900324
Ni 6.228089207475213 5.696558386855527 7.547932665679664 0.06754416559856109 0.6918779471647633 -0.44053384409598967
Ni 3.3264275596931343 8.466716349135048 5.747482750287412 0.4375397944646722 -0.764351945964774 0.2239780523509949
Ni 1.6063582389603723 1.5014227367939366 8.688203620694468 0.0028012168942209825 1.120003133183755 -0.16839363021747128
Ni 4.01395011176342 1.5273223045410331 8.703480558270929 -1.7495508548507288 3.178828130650822 1.2976308804049845
Ni 3.6291896992623647 3.8659446220706193 3.522381144813896 1.3712672749442125 1.1113441719571764 -1.1985356794730198
Ni 0.22604778705622802 3.239813981931511 12.557806127216713 0.05310613579636015 -0.3970870857662645 0.1138358495762491
Ni 0.06929457674034893 6.624819696285343 10.783017120951584 0.8685888389986782 1.6202580472894612 -1.547302995087974
Ni 2.5279983967933144 0.6197472185294439 0.8757684852620087 -0.8474816247064179 1.2476936292549092 1.2240330524131757
Ni 7.172044410591866 5.446681883112656 1.6111063382752129 -2.4580157598398955 -1.0208449402243387 1.9503118456553121
Ni 6.233976739189684 5.612591412467128 11.974772404954084 1.5205252127734974 0.944038118376929 0.6899853581277408
Ni 5.530342408689418 1.4554089834103359 6.831485060321944 1.4477370251671775 -0.19593708705337867 -0.2785070366368107
Ni 4.3447476744335765 1.581498739907315 2.4573117995419254 -1.59075566695497 0.5632963067379073 1.0164972047786043
Ni 0.8113575882198304 2.9630999913513825 6.74307272089929 0.000954393493469324 0.2660032477428451 1.8052273224774267
Ni 0.3062593705529364 0.1397954474392306 4.990954426265926 3.0485472481446725 -2.7786040419174727 -0.761081245633302
Ni 4.824470073231444 1.3790567976747223 0.36125578864853664 0.5856325083412625 0.0475821206543374 -2.130511467368776
Ni 4.9926640391817525 6.0192118401982535 10.071530271811325 -1.4808731455995139 0.3415394304079473 -0.7978626761277098
P 5.79299689924477 7.456967514792802 5.781584002593217 0.7257594304035565 -1.781708927640512 2.545680607447732
Ni 0.8213264609256418 2.4375495657224215 4.5401385081002426 0.6852563280831876 1.0792727453439284 -1.7153412988485555
P 5.699929323783529 6.995548467744497 2.303619362811361 -0.3465209427829387 -1.2680616513883 -1.2250537803682062
Ni 7.638561651506488 3.5986841130130958 7.45197704232694 -0.5998738487516249 -0.29945278565054234 0.6367840915144131
P 0.4475359872484101 4.776376182459766 5.050213268741561 -0.05710291566057908 -0.5269877021148602 1.6776813224039366
P 3.5445912545954417 4.323565561120158 10.094500003192625 -0.28535054192120535 -0.20214270164345832 0.08039762452246153
P 5.171137969813321 9.26745780761358 8.463359341698485 0.5387386720032012 -2.016917044379371 0.14879822458404696
Ni 7.4342624437488265 8.700221057274431 4.799097040260705 -1.6698152893922984 -0.19753065679274368 1.8319068886511416
Ni 3.4129761331613806 6.440077494506664 12.553103530907235 0.3931694958794132 3.4068898661528872 -0.21659435829241408
Ni 3.074108751784796 1.3996910176582462 6.585329588058549 -0.8689819606720389 0.8852567865726624 -1.1311290678935872
Ni 8.420173275076802 1.586513356825003 5.974121147780613 -3.2243556827689757 0.96628227448711 1.9809475682632982
Ni 3.066967565840903 9.044539512967095 12.524683653842619 3.0540059572663982 -1.1180856044460679 1.5978282575310352
Ni 8.524523738602841 4.536566057862771 3.2797052595117195 -0.0743925559789622 -2.8609999278168856 -0.6612669071471257
Ni 6.579474558490767 0.5096290169153014 11.125305585425346 -2.2578247826061695 1.9160161576972359 0.12172682228855163
Ni 1.4973646116216595 5.108148809530584 3.3045638299320146 1.0732337382387 -0.09797368573301192 -1.055768491574401
Ni 6.7544846889180805 8.403439312695925 7.4336151867133395 0.8624927534032694 0.020472923142371192 -0.08847397377269278
Ni 8.240752139027448 6.519066997287877 3.9448997654396183 -0.409448692655411 0.9978775327948878 1.6453306739873728
Ni 1.8363248562744974 5.14762498826594 11.58596129634285 0.026679566173715346 -1.7055258554200305 -1.2480600114553924
Ni 7.605715910695631 1.14129895148293 0.01774802935756565 -0.10323981922795768 0.296325038654838 -1.557260106300686
Ni 4.438279566276085 7.216340193364778 7.924566612875778 0.24136205215539722 0.8544925088066123 0.7637752475256976
Ni 1.7622199618242178 6.519782044515028 5.560450540116323 -0.5592720160698625 0.07308437869049993 0.1824737624596212
Ni 7.009849412287533 7.276729181912417 0.18261006095589888 -0.013937693127014705 0.1800929209322705 0.7282192047979587
Ni 2.56242281330048 9.108754468496379 3.5442903775803805 1.6553088682460073 -0.7107549865749243 0.1532907131377618
Ni 2.563379305045891 3.9794606909628767 8.097205015227578 -0.05407338480563591 0.19581084588815953 0.48313702347849696
Ni 4.418731846624727 4.532740090881128 12.301470982610411 -0.8108894274046807 -2.71666719520336 -0.5130667211583938
Ni 8.418260291585982 1.6533842020551361 11.008500299288192 1.9542240362255248 2.870404251849921 0.016347331009771846
Ni 8.076031259609021 1.3591469112459755 3.7322744363330687 -1.4768750801837147 0.7045881956425801 0.16084538555656816
Ni 0.6306010782579511 6.463971215486684 12.98784110142239 0.20927494181286535 1.9294249749039738 0.6880827417883892
Ni 8.596186328887654 1.666635791576508 8.335354744445159 -0.20315031697236627 -1.403905372694208 1.115700392043343
Ni 0.8430796833880202 0.8985264883734497 2.7395121524831096 -0.6653549611735702 -0.07091976693901335 -1.4118246275412847
Ni 0.38062985397330074 5.329033398427118 7.172930326247324 0.1879029038949925 -0.645911764847294 1.5764667611361238
Ni 6.8274287924151915 7.371635450243477 10.599654867458034 0.27171109676089983 0.14385630719773934 -1.1930682286005454
P 6.759499305835769 3.1013176917270666 0.9223812067774445 -1.3056023286462353 0.025175727934679225 -0.5761569647506593
Ni 0.8482354524856136 4.719599575358386 0.911318404677367 -1.6432784194440344 -1.4540161733076702 1.0975262922374776
P 2.716882300692898 5.310952918540565 0.5982372978508497 2.142375051575581 -0.12105319326029473 0.06065463756757941
Ni 0.4064114853595552 3.705096141271962 9.2876286398486 -1.0453568093227739 0.5279603504407746 -1.245741647734861
P 0.67376764359162 0.3891760612869088 7.029173331443121 1.1678696178477306 -0.6297325839842703 2.0615105147190302
P 1.8625865907989823 7.979694896823658 11.249435926793378 -1.084068881180991 -1.4548924052650363 -0.9936506391977339
P 7.037160501833682 2.94330154085414 5.06319276886351 -1.5731289550121423 -1.6526619175414634 0.27985429469332446
Ni 4.569978264658774 8.721588897140357 10.475632247490456 0.869875933241218 -1.7340779560261104 -1.1030953016848226
