# total energy = -340898.2405115539 ev
CRYSTAL
PRIMVEC
8.99913265681674 0.00000000000000 0.00000000000000
0.00000000000000 8.99913265681674 0.00000000000000
0.00000000000000 0.00000000000000 13.17114028952709
PRIMCOORD
 96 1
Ni 6.33559630991391 1.8382888067738614 11.271809506798514 0.8880757440786964 0.32006891923899716 0.6969404492893352
Ni 4.461796926015551 0.33402260345803564 6.129887838217063 0.5299151601743003 0.3046276449832625 -0.781707406524086
Ni 2.591840171724937 1.4128908110181253 4.77398493411698 0.6387401867995193 1.1712801861911764 -0.5173830891455605
Ni 3.350215071733978 4.377880014792556 4.88709863105278 0.7630008312535181 -0.5414977228055771 -0.17517697168789187
Ni 5.2502559262088795 4.3800038100792715 2.9903622580578872 -0.45171557174442206 0.036165137066647396 -0.3887351142571434
Ni 7.226555430088999 6.172828999105296 2.6229798701597824 0.3442776552747167 -0.986498858644301 0.30433428211255975
Ni 5.066664622631363 4.659201898089292 11.450449487635558 -0.802711776689895 0.15885226638593933 0.10368127764075047
Ni 5.508567027522003 7.754723519803622 12.42118861779083 0.7162118959244376 0.6625681424570524 -0.04196965956356643
Ni 1.7457777239457222 6.506039880805443 0.3429857394985829 1.2802013720746275 -0.321690256892504 -0.10174600829125056
Ni 2.8813152691308463 1.800942406604914 0.30518938270109414 -0.19648627468862936 -1.5992557340061813 -0.2492607381771836
Ni 0.38544454688101903 9.041608476564976 4.689861042844856 0.8897202216606548 -0.053593616955739956 0.20718977714906253
Ni 8.594468576518112 2.1863032615530242 1.2495772528624618 0.3395612236356539 1.4456006955504652 0.734753920592683
Ni 6.840474644535222 0.7513519769507647 4.8458205098636356 -0.9436601662122199 -0.3416453598581923 -0.25349868751793114
Ni 0.6549820660762533 7.470377927963085 2.2966119288664952 0.2098341567504451 -0.6699096704237881 1.0682175159710312
Ni 7.570268299499306 3.772796338995044 3.8158373902548126 0.5437443527479088 0.16293466398542905 -1.2523627525958045
Ni 7.6577218698226375 3.939244295025128 12.607033304164082 -0.1296357927229832 -1.0598801997499294 -0.31395432170082704
Ni 8.014717458907489 8.871146907408303 6.928441165415092 -0.2575877699856402 -0.6816408428177875 -0.1273462253578581
Ni 6.948617220638894 0.6788639640927239 0.4236242667260252 -1.5082217128157962 -0.9596367441461342 -0.4607913087934451
Ni 1.8272198737117396 6.3842186231941085 9.09915073004938 0.6127820721728608 0.4228899057619813 0.4243402650552627
Ni 9.05690700193539 4.869277648822763 1.4875350160401373 -0.13954045343120483 -0.7713664296093942 -0.2751319495169907
Ni 6.421457033772206 1.9580222656287631 7.022141033655838 -0.6725792468361513 -0.4083351478762581 0.45550460647320906
Ni 3.4596265255301373 4.256580706870329 0.3644324722413866 -0.15014522553024465 0.8073472185793773 0.1331898286228287
Ni 6.11469460269773 5.79444247189958 4.994865043414991 -0.7855108394305762 -0.8061861083917407 -1.1170350516943663
Ni 5.3632580339008 2.921856361362439 9.257428373618408 -0.1728130994414056 -0.6024788904746399 -0.9144177244073349
P 0.1647534193669964 5.504976373626241 12.419818949813552 0.4502063341887472 0.2725338497725113 -0.42193088428282177
P 3.9181953239419545 6.236767836021048 12.563147234355913 -0.4634976519810146 -0.9771842661115945 0.2444995693431144
P 2.388207799912181 8.456754850786691 1.3768447855056631 0.0797371081203272 0.43773288431208485 -0.06452337649436629
P 6.323276497424443 7.797757371757333 5.944583099798061 -0.6113677083238375 0.7650852245863727 -0.6736945913875172
P 4.69092384040147 0.9778277468813174 12.440300075631503 0.5165695921053296 -0.19176470084324396 0.31968659619891393
P 3.932827913502125 6.0688440222493485 8.242750078772795 -0.19689662275317057 -0.019401030234431103 -0.17221891750083246
P 4.643327428234347 1.0108545634162658 3.726589392896857 -0.13371279100583422 0.17133934310935653 0.6817789110575483
P 0.33073522032991115 5.623638935705214 3.5515319667362597 -0.4841703498390178 0.10234096156277213 -0.25732963122824715
Ni 1.4053765353214818 1.0886520644910969 2.5242755842963973 0.15382910213973508 0.4266707129606523 0.08419103012662274
Ni 1.9817079825551893 6.362926675531523 4.732219059942499 0.2318145176762782 0.7443436211636472 0.19819014475361352
Ni 6.028275932620044 5.572451869642329 9.14725109364047 -0.1924082479645138 0.4952209512262245 0.8240290501104325
Ni 8.599121128057233 2.524175693924861 10.123207020947056 -0.2651334435433821 -0.5795667617631566 0.6548430058986529
Ni 2.3192024513590512 5.113685090313953 6.958089707582951 -0.4266925673375232 0.5451497177358676 0.41923122596347157
Ni 0.637782923906882 0.004232292048061657 8.971903895411092 -0.06403023890803165 -0.17240789358318692 0.5937697927364162
Ni 1.3662303086383685 1.091360803394917 11.428387214224909 0.1543520645227406 0.3986073790655329 -0.5106815087556689
Ni 4.067661916810882 6.822440382863277 1.679688994258799 0.1153733692666981 -0.25568823897008225 -1.0026500144828667
Ni 5.428087784941064 7.893535139708685 8.016061029400316 0.2918073532901426 0.11529777883375626 0.6093802455801635
Ni 5.192274515055018 2.8825211528953383 5.07773805525977 -0.6627967135280908 -1.1354559774037156 -0.7697211806964873
Ni 0.6896980197947469 7.167116159458662 6.607842568012964 0.3683827758530365 0.5894421118953397 1.0142500606156402
Ni 5.193669380603496 4.511679117855666 7.184948840561021 -0.14705964462638546 -0.18703952745343275 -0.8919272566143025
Ni 8.254643332378405 7.150530758130621 9.25737527873624 -0.4910724762754897 0.02056779684902264 -0.13094654111460674
Ni 4.664214414931245 0.2320714305630951 10.167422459007318 -0.6307304291211654 0.3807055590844476 1.1259426385966416
Ni 8.10541971608889 7.127645964002999 4.728425925563894 -0.22438351531952969 0.2125736671687952 -0.25327063066752514
Ni 7.185708367349999 6.211813241402135 7.116353852453122 0.6366964168966132 -0.19217967689347545 0.049098300188547696
Ni 2.4610557780730553 5.146621915523194 2.561615685072545 -0.4575810293862636 -0.013926380273105048 -0.14657807700427658
Ni 2.430044767233973 5.1197955013295475 11.280699749865237 -0.1625700815571587 0.5068441372874497 0.08834567572494463
Ni 1.0945824928552743 3.4603374570032326 3.8083294139509687 -0.32190802933026497 -0.46990561238988754 -0.7219017472203632
Ni 3.5467651262134905 2.55795843759576 2.4887659070851567 0.9221909405948505 0.2903958176545966 0.9996040285676914
Ni 1.131523932058534 3.2388598053025195 8.192515120935905 -1.2647665255767961 0.7944965878689544 -0.5858101715697073
Ni 3.516042087616674 2.8018709267955537 7.071822544839623 0.0028420974344854277 -1.031754388047991 -0.5222301328252167
Ni 4.174481620426641 6.783348150975589 6.155348184086458 -0.5141776948343855 0.20460993223702825 -0.7488672200656136
Ni 0.8215443110899867 7.350095522021363 11.305856824966993 0.8043236012617051 -0.607661977337476 -0.04744996595184732
P 0.10903618996795547 5.551519887282577 8.056667815299674 0.44809494427269925 -0.44815073721129917 -0.8931446739611715
P 8.486083023835029 1.6592150677469022 8.000861494488182 0.006983887517000876 0.9215723331742451 0.24486723709517833
P 1.8139371540371934 3.1590285002666807 10.34191383972921 -0.7098707841977582 0.5206681876547357 0.9051578963719636
P 4.119307938634878 6.116503428344467 3.7797481689060106 -0.2775991801105606 0.06316711957678799 0.44118561874737566
P 6.7607693273553755 3.935014702716837 10.474889522162089 1.956226411367534 0.29676469729541793 -0.44146201233721394
P 6.290060699105507 7.689578799123378 10.12808005123416 0.3382103660347143 -0.3169440004567703 0.26838331793924747
P 2.349781503834734 8.48599303250932 5.7458831525473775 -0.022318460991542208 -1.247049310802691 -0.199308831739089
P 6.834490221375621 3.7493176021177463 1.558461679397139 0.5659697398050124 1.2887911706261674 0.0264723352589157
Ni 5.3383754323424535 2.8188792873544233 0.2664697149018382 -0.08330425664629525 -0.00759709562096756 -0.004138704758721904
Ni 1.362900629587161 1.028969817281348 6.900452963206552 0.17537314685909797 0.890786201031324 0.06319128794650407
Ni 7.012583054952359 0.689320056226772 9.240674688511293 -0.7819449764561888 -0.3952274068497065 -0.7405368458230472
Ni 2.616722773283284 1.6156862635017941 9.146395276132987 1.0916682907948039 -1.7021037171123592 -0.02243133242032266
Ni 6.273574288235745 1.9270202539222514 2.5238670236776817 0.19608518259546875 -0.345415882644218 0.6696170788840339
Ni 4.173086754878162 6.853091428399527 10.32734604392355 -0.6018294298160991 -0.007432287908329134 0.10821567517599426
Ni 8.154347999876498 7.257908407965774 0.16731817214968311 -0.7820061687114274 -0.7796158141023799 0.6016391681821639
Ni 7.555707702999701 3.86754820583332 8.021737682225995 0.7998429397825323 -0.007206545050768234 0.3822425645542643
Ni 3.138960434633728 8.3712630913638 12.430790692243908 -0.38809388112871873 0.14070593449421573 -0.20442249881657049
Ni 0.08828599008613414 4.89275638570006 10.170609951763906 -0.09679354938198169 -0.28056571893805227 0.561500391179749
Ni 8.551038762731284 2.3352299064677005 5.812240056384912 0.6722277770340036 0.8902439553746088 -0.28072435600310364
Ni 3.801638558884556 2.67616204391362 11.258321606901351 -0.4453405214560137 -0.5300421726704677 0.06134960675207499
Ni 1.24631686713205 3.4041648714961075 12.533051435299285 -1.3031577237604848 0.1441347576701066 -0.13220638166363682
Ni 2.8946159870705346 8.317592264711367 7.923336667130247 0.5107925804122364 -0.0915245876735585 0.36057947775853383
Ni 5.508854999764269 7.871478265777578 3.583235010870039 0.591316188989601 0.28492502434801253 0.587481131514227
Ni 3.0266602592823326 8.208369792699195 3.5160222895250186 0.03707582180637486 0.47684810514599174 0.24729692958259344
Ni 3.3353215073292533 4.093669409940582 9.118129900641264 0.29468878860299574 1.1549341407329852 0.037241400849961664
Ni 7.198208162490882 6.088057170288072 11.408854596979921 -0.13682999647857727 -0.34236655429493296 -0.39779542468719875
Ni 0.4958207076887712 0.06486844731031861 0.31686035773220445 1.0470565656227 0.2932343155446563 0.20520051463317565
Ni 4.651984593767486 0.17754748614294633 1.5735820219426486 -0.2688756841946337 0.7161231928653731 -0.6992876093652731
Ni 5.901946109590722 5.466091121787682 0.4737485352322948 -0.04800763822753022 0.4896642830740536 0.3960460460962599
Ni 7.975112276463264 8.652000031043434 11.223233989007682 -0.7076586070377877 1.0383451538916313 0.6878976223607766
Ni 0.019425527567395053 5.0084492340306594 5.692158331099518 -0.3289754777000076 -1.1967760164694357 0.3697164070627955
Ni 7.779147165600856 8.792935446235212 2.640366194286627 -0.18012480261147043 0.19436562880120076 -0.025392729041491754
P 8.494389223197905 1.6797060926106835 3.5976309232435963 -0.32239936714438666 0.16964961411175947 -0.407025427925899
P 1.7523110941921451 3.2754322800703752 1.5156159093141575 -0.235725165584594 -0.16672832669990642 0.4079849636256909
P 4.6530104948805615 1.0710137646522686 8.218119452926432 0.1739299866546682 0.8396842401491862 -1.2601781348751653
P 8.386381634082795 1.6208697638625926 12.295667816779629 0.26298297285928257 0.1600804823660856 -0.7846315221494163
P 6.329053940534917 7.595195896720506 1.3679023474700287 -0.4830280087044584 0.6983481282701391 -0.1926203639753199
P 1.6923588730052714 3.2892549476991713 5.893650709186931 0.14454073485927366 -0.9807426728868143 0.43969797845825564
P 6.89309257267687 3.908251282451187 5.7992795056564015 0.02687317024176017 0.37581763486452696 1.974521095911664
P 2.3875238658367977 8.534408365740388 10.230867243544932 0.30531875751301607 -0.5321065113986643 -0.5049222376743885
