# total energy = -381176.3028907553 ev
CRYSTAL
PRIMVEC
9.20615780774162 0.00000000000000 0.00000000000000
0.00000000000000 9.20615780774162 0.00000000000000
0.00000000000000 0.00000000000000 13.47414252432734
PRIMCOORD
 96 1
Ni 2.1453846031348487 6.611374610953931 7.0487011695921655 -0.9436249420989103 -0.013162505523887008 -0.7261049866684334
Ni 8.66723853556904 4.856938705270676 11.225577315162653 -0.3106252573275941 0.4194353715544776 -0.06512604307537172
Ni 7.872857590678936 1.768926398072197 3.420599487845461 -0.2396576678697808 0.983751634916467 -0.23892721746165949
Ni 5.1586797335679835 2.9573769279106226 4.384431735187014 0.538436053161118 -0.16014835948954356 -1.3041866792456311
Ni 1.076466826268483 9.222176522044917 6.90497279267054 -0.936709960146632 -1.2452384828461973 -0.5632726525888235
Ni 4.9327145901838785 2.7426248847360046 13.01916148630635 0.8620410105778314 -0.3532865436415464 -0.5943547187056086
Ni 8.417576741988533 8.819250613285817 8.957313520692733 0.7417601767071871 0.19914839490182476 -0.7713396901365168
Ni 2.6271244288836124 1.1785815286688284 0.27744229538029713 2.2234573608698933 -0.6204092497008155 -0.21913100867133875
Ni 7.910731723898826 4.098351301935977 2.88081207527332 0.48904259032965447 0.536064724715464 0.7489867763626133
Ni 3.456507185757678 7.926796469272844 10.853745204398251 0.8939196044539829 -0.9661763450368649 -1.2736136915547809
Ni 7.58289123821737 6.699661664327471 3.4423877015283764 0.4215601312069643 -1.001603061275591 -0.891524107638613
Ni 0.5464747656034796 3.159093051629877 4.559852310360821 0.0511775513150796 0.3996149943944408 -0.6317439579873443
Ni 2.9616209666598614 3.5037439814677547 0.3029525586647686 -1.0991663989440617 1.4709042073122602 -0.27611488225555025
Ni 0.9019051856181121 8.577441672315075 0.9515024401900217 0.49649081907758363 0.20536995033150438 3.026982891710335
Ni 4.098968114509077 5.3925529665086955 3.8825746133973893 1.6040055899863408 0.3658309559654602 -1.182944509902982
Ni 7.939970481095319 0.327567983410355 1.3609288169769682 -0.43360934906201454 1.1236332737371744 0.34386447899669814
Ni 5.926049811450998 2.159129396741386 10.700207666332776 0.9406622599261606 -0.0023998676907442543 -0.3853777677491363
Ni 6.392765187657988 3.0267085023586033 7.189168725418389 0.03987369626648617 -0.433268420782828 0.9692189885179308
Ni 5.179025342322469 7.92706344784926 12.61641878008762 0.9142431465026835 -0.08576505948196196 0.7752547089202068
Ni 0.9165346909899467 1.2319404193208663 9.052548461363564 0.1766144754653668 -0.18468259718548194 0.5966962223545916
Ni 5.314282212829671 -0.2161964893346084 5.9055817607976735 -0.1670170615849188 0.2620668888029164 -0.12491987530455262
Ni 2.1865545408498095 4.31888481221368 2.984765247387816 -0.17651805909681859 -0.10751222135106644 -0.9458373763691968
Ni 4.355405640235873 6.925313798346123 6.32282232433159 -1.3095571995289252 0.4628926714071641 0.3001624101230572
Ni 4.870849209717748 7.777362115742155 3.768704568092698 -1.4346729928943678 -1.6553230093133946 2.5452535472126425
P 8.679390663874885 2.852399110432157 1.2598378393248122 -0.8259116118451261 -1.3644255694320309 0.7079126320301228
Ni 7.448508952701878 5.222386345595606 7.448748312804872 1.3461118587245076 0.8404666268411655 -0.5983939217719888
P 1.5162357785730367 8.564497814437786 3.1019633187399034 -1.8753492761054928 -0.01705952658544804 1.2881090569574782
Ni 0.5711399036012262 1.6641787345389178 13.243720849393256 -1.2925023009291676 -0.4257767403914732 0.7837455200000373
P 6.135048005995953 5.077868080334099 3.6597653409096824 0.4812197518511261 -0.30439778836064346 1.0894921090790914
P 9.565566208263172 8.539862136145024 12.534940601028476 -1.2448268492300754 -0.748304148473292 -2.923890396693519
P 2.25820606706527 5.476218528662891 0.873819959994894 -0.08319549898257285 0.18522998504851973 0.07044462707480773
Ni 7.823208781623305 4.904902787447542 0.6789955660103039 -0.7747039786230594 -0.4929018161747447 -0.8879304767500839
Ni 0.5714565954298029 4.021590358137376 13.316386894199098 1.1844848578069085 0.27767811297761213 -0.8047056671914721
Ni 5.024058087949496 4.564532720990133 1.7429208434976842 0.11925264971644625 0.09048663332734738 -0.4205941677492692
Ni 5.352073490629294 6.524855139879422 10.566018710131239 -0.05416285919564866 -0.344214149026633 -0.98116999023222
Ni 2.306602838659087 3.211807511235393 9.1337974070933 -1.3077497140065413 1.412647380552896 -1.1734746227393338
Ni 4.575147420942135 3.455107849770944 9.080426548436114 1.2019434196029881 -1.2808857997361618 -2.931448411546435
Ni 6.742497916605583 0.5497724113301117 12.653015098603834 -0.9366073731304966 -0.31933204107297264 0.7310039666319474
Ni 3.7737605899605544 6.760044853386601 1.801600893362434 0.050169164655223274 -0.868482138217485 -0.3514320069313109
Ni 4.163724228526751 2.3656879594673645 6.434590603808839 -0.7969735886545372 0.28480058295500627 0.4626679569908677
Ni 0.4889427236173202 4.370503739040108 6.58086540398001 0.2925694282671477 0.8161128805871493 -0.9148663819089793
Ni 2.446508818859056 6.943449929226819 4.187722840699236 -0.8415387768594217 -0.5396946081585674 -0.007683227576870638
Ni 4.1914807943162415 4.134135637333574 11.022158052249019 -0.9588944666634711 0.04648091717035866 1.6652729214372546
Ni 2.8979327669478536 7.967312769783475 13.282688674160672 -0.5806656512542903 -0.017749610673937172 -0.31245356878558445
Ni 6.565840954438234 8.800157041993145 10.449655637292288 -1.552308161612049 1.1472905081447984 -0.9753484984544364
Ni 8.602546864656018 1.9776299955673138 6.40555346146833 0.6575118109800676 0.546046261408208 -0.12064567340923095
Ni 3.93506168090506 5.904792793073573 12.60333590922744 -0.09402627104948967 -0.6399606894701817 0.9040204403334108
Ni 5.2655724318704 5.532551008286738 8.264244501242166 -0.4098904081785199 -0.41266334293796675 -0.07277893163493918
Ni 0.5192641249719703 0.7656356377520901 4.45802760193141 0.4626319615466097 -0.48877262449771947 0.6942708728769721
Ni 7.474184926826884 2.756360472184735 12.790518271616056 0.651264287408459 0.6800662992418159 -0.12317409625803949
Ni 0.20584140303277745 7.718691272035213 5.092727739651121 -0.0676863476033802 -1.460416420407059 -0.22283622543706783
Ni 6.2359935263547515 4.714390557779966 11.88032662335545 0.8500894946429101 0.3244418514957122 0.8597442441238548
Ni 3.363239601010301 1.2667673143064873 9.687383008987263 0.7010842962543797 -0.8859640970523323 -1.6394089091862993
Ni 6.943100095230134 4.130710946629199 9.527336717351913 -0.3239523134538034 0.01751846849973757 0.2993607401573683
Ni 1.8327895147825466 7.915868759955389 8.985488046046683 -0.015420705430444409 1.209803796187671 -0.36183597587345423
Ni 0.39746481594771377 6.049449150702192 2.265744069078018 0.9827417055947139 0.2691592768733235 -0.02956485814131037
P 8.969697644175328 7.1160101511698475 7.174522648962501 -0.2588663795877477 -0.4590416730921901 1.415700051336291
Ni 0.7785767337820365 2.814239586320235 11.080474458880373 -0.3517227986988523 -0.5894071448923461 -0.4095931886530752
P 4.584132630962215 8.330431252183118 8.712609243091544 -1.0844805147971128 -0.8220624133023647 1.2941035839780166
Ni 3.7290646938053365 2.3120989148701407 2.1825958929926017 0.2482613503783918 0.39499780733740364 0.10840310859645201
P 1.9442668796730789 1.8945536275127952 7.1954215478012165 0.07333146170429951 1.3071637595960843 0.1502329001480445
P 0.47242779712651783 5.383899178169682 4.371982247983985 0.5015070413452524 -0.019282759489011952 0.06104827346157229
P 3.099943487716947 4.59984754233955 7.515755332406469 0.7323036592799775 0.41581345853117424 0.13052847974058165
Ni 7.436936812337901 8.865088073009161 4.129864900726694 -0.656228830502586 0.261398144870666 0.1111053380189635
Ni 1.2318575639005993 1.7118390135081378 2.3727021311008687 -0.47460147520366 0.2846234339471937 -0.7486047104328463
Ni 6.434496700999204 7.023313348206534 5.434661011704237 1.3566011882916054 -1.4054799162701794 0.6827590155826306
Ni 3.01309259496137 9.156398524510616 4.853399858209488 0.050853592316757575 -0.5570140732736214 -0.0897276436741358
Ni 4.197750187783122 0.8223649027774389 11.692335039695557 2.051840338619118 -0.8722794004763882 1.8083722958643114
Ni 2.793949214512594 2.1098120093668236 4.304678790100989 -0.25580728104644973 1.1755862697656978 0.4144559160620152
Ni 2.670651142997283 4.727454095708752 5.360822102393723 -1.366828779556885 -0.8213283633498178 1.4704447511773384
Ni 3.4162026268766184 0.23867240300574108 7.190071849499301 -0.13945303592372113 -0.9757616747324549 1.2242757645516011
Ni 8.027548660317684 6.695749047259301 9.55971569497653 0.9385704103941385 -1.9106050139839934 -0.33390505379114105
Ni 8.955796345886064 3.298280951520864 8.434772924157087 -0.6968535460024837 -0.23979805010238703 1.1452076574738406
Ni 6.202998656772816 2.420777607787205 1.4953598951288405 1.3996573960511314 0.23392590759232618 0.6799487998273451
Ni 3.2793162664374966 9.049993752571995 2.213869211064543 0.9805830073804983 0.2797090273647118 -0.46592014537957827
Ni 1.8536598745320583 4.7620876613804155 11.049915538654291 0.80565286159609 0.23619336347026418 0.9942216812098554
Ni 0.5650546332904952 6.372769412900184 13.23395219534376 0.40069382928091635 -0.01036797349788537 -0.16846279289250984
Ni 0.902894847582414 5.4677672757956435 8.824552439567134 -0.9942677039564426 -0.014812896643116424 0.16987484274868808
Ni 7.939685090203287 7.204518152330768 0.9079186478979449 -0.7486188515002332 0.7448190181381689 -0.05489125272124096
Ni 5.944738311800141 8.0644653531256 1.957995102195563 1.2580672591797495 -0.22515047539254124 -2.9220196620333674
Ni 1.9590335567962447 0.3090755742225102 11.398316136567146 -1.922577098744205 0.46617159926875196 0.042703452405797426
Ni 3.190246689650322 5.877892399960175 9.376089671348936 0.18917380018761612 0.12171602365527426 0.26494703856418883
Ni 1.1324402657378392 6.895430610103107 10.951540377555336 -0.6706434632660192 1.2608803031485123 0.06114160450632696
Ni 7.371296907170711 7.129349873832856 11.607030781451632 1.3366579124004592 -0.7538158223201405 2.90696508169309
Ni 7.790959610823772 9.060442741683461 6.618162311105372 -0.561340468563117 -1.0415536335265998 -0.28344946824375056
Ni 6.457033375311864 7.4785854702588495 8.134272885932226 -0.5100515884811538 0.8645532354767239 -1.0577991488511846
Ni 8.655629570573833 0.9730632617750928 11.333061048796308 -1.0911157607254436 -1.1294851045322611 -1.0850109333792863
Ni 5.299865369703188 0.6985163030252419 3.163189791854197 0.7154246241364517 1.7942937062840583 1.3600215268270641
P 6.0608371679100195 6.091309550252712 0.3936055945948266 -1.3554179666167818 0.8883104857973219 -0.5656663496319806
Ni 5.659163296612735 0.8839771139038646 8.13975607352235 0.8723277372158201 0.4900147244349367 0.6609838286890681
P 2.8201223211592024 2.4639176632729622 11.680842072288725 0.11081814579584784 0.6879084209940539 0.382461879653922
Ni 5.0910420921565755 4.731725752931414 6.00017042919042 0.45453710035361716 -0.25128239659290275 0.3146824581161032
P 6.505199992960495 1.3568495684524826 5.338522946952493 1.0461731345764822 2.2953335781849047 -0.2786178511830621
P 7.804713610588118 1.6555341523577127 9.35092003590334 -1.004460328218728 0.46706762872046015 0.16284956047079052
P 4.994128868917444 0.7298135571074827 0.9588627633570859 0.1126927371107414 -0.3527270715936506 -1.3057607086009704
Ni 7.393133913490006 3.79316717061868 5.293222206229325 0.2207729151501359 0.6438106593438913 -1.0623199195396738
