# total energy = -340885.8229365331 ev
CRYSTAL
PRIMVEC
9.07779115794268 0.00000000000000 0.00000000000000
0.00000000000000 9.07779115794268 0.00000000000000
0.00000000000000 0.00000000000000 13.28626495684404
PRIMCOORD
 96 1
Ni 6.482069327730332 1.666591660450568 11.159651717713357 -0.24518142590148745 1.3588051379214596 0.9662210822318713
Ni 4.658177703816136 0.5531007314101675 5.842183098241623 -0.43316454821511197 -0.5151374876444935 -0.1800183589405932
Ni 2.580779686799143 1.5422622341118186 4.414999113600722 1.0665234160980601 -0.890578455895892 1.1469709200218505
Ni 3.3728805012004464 4.627984970755192 4.837369668196713 0.6639904767258757 -1.0529837297404123 -0.6963737781525877
Ni 3.650234251414217 2.5392578704970523 2.189683030179176 -0.15756748613624477 1.663092368846168 2.4791479138328207
Ni 5.16885791760941 4.537679105304121 2.5995244175560708 0.2199643032059115 -1.6405427656804261 -0.9749291515288306
Ni 5.653956916199515 4.371482906603053 11.727453931742948 -1.2400466542326125 0.10456650845918121 0.11552994944922038
Ni 5.614341436019733 8.1579384906428 12.543442953314987 0.2626741833696121 -0.5791800678476993 -0.626026852997909
Ni 2.301247266731305 6.900682584607163 0.3821287068331642 -1.0682164875297668 -0.9900163848792563 -0.7357360820002942
Ni 2.786500587769407 1.7174999127072639 13.594240841746402 -1.4929244203370935 -0.9887012656122585 -0.8444253543785972
Ni 8.081521645511407 9.015117989143294 6.5312754941635385 0.621342303038046 -0.779362046220361 0.6550273539953171
Ni 8.582434156125615 2.5536461693249515 1.252514575765725 1.1999209898563208 0.432286516485533 -0.5959922543090316
Ni 6.950319946115654 0.5234989625471398 4.485362887654235 0.3121789749679591 1.1204055108284963 0.11633521895933513
Ni 0.8237577951600004 7.570777887180721 2.2405958213314014 2.071297418902465 -1.5658537615069679 0.21253304373884685
Ni 7.4037919206575555 3.9790136879750246 3.7944513024041733 2.09438875350429 -1.2156731104842546 -0.6819797142144449
Ni 8.008454505280637 3.838952449731701 12.412068253335649 -1.2324757838638902 0.5455652080067314 -0.21738805783830306
Ni 8.296547282316746 7.404436443822716 8.806268881374232 0.4403587519707061 0.3093283928930414 0.20020691807332616
Ni 6.858089588960157 0.9043358997126636 0.17012415889212898 1.0762840950292496 0.02861329286131846 0.5189630320381707
Ni 1.9742833883822202 6.373153990609106 8.986709949804473 0.16104773137536135 0.9796818357224676 0.5071827515737911
Ni 8.924212989482353 5.38912143985557 1.1001837951275812 0.3684565665137654 -0.5807078173461354 -0.3954778322976157
Ni 6.767656634434264 1.9428833091104811 6.605279462431554 0.2882576882656713 -0.03676368988259474 1.2101961465300834
Ni 3.476367319268622 4.570967365116052 0.6359818715544004 0.11742613803066873 0.27109634599503635 -0.2320117212887488
Ni 5.961221987951412 5.453328656013133 4.619766846509831 -0.341289004960038 1.5010501347680212 1.5885900267622188
Ni 5.231095253107253 2.910539524794281 9.561394037235596 -0.17729401803089465 -0.5346310775927309 -0.4274302168344961
P 0.24549796583088987 5.852361117576538 12.184328262373617 0.3963206399138852 -0.2505974547107362 1.0138065453203187
P 4.451122367560257 5.96568826115225 12.651074690780524 -0.639403274304815 1.7733975795613395 -1.3345318671963917
P 2.7780037753385463 8.653204615218552 1.4340930914156105 -0.977257028331059 1.4536988991775674 -0.25270190264824866
P 6.315473706222686 8.010061274298014 5.713705121389087 -1.8153944928184156 -0.8961469511226051 0.058719111107763386
P 4.639259587249988 1.359744167087367 12.552238425071677 1.5826710901746226 -1.0603856786314383 -1.596859465859863
P 4.216461468695137 6.0836269225857365 7.976714916623307 -0.469490636339656 0.06687027945998807 0.42178278874073166
P 4.77470022984448 1.3594445999824327 3.804681065148123 -0.037755364371902723 -0.28955686669306907 -1.2038437219494944
P 0.062255491079960756 5.754393596471997 3.436612041106537 -0.16522166024739285 -0.458837527501184 -0.09976317353326689
Ni 0.562809428947353 -0.0528082339252633 4.550412522822036 0.090691807359618 0.6851360004552394 -0.4563291592570335
Ni 1.722991976297724 6.511871715775755 4.719068802899987 0.5779865617602304 0.8886825244247597 -0.9384665378264224
Ni 6.313494747771908 6.122979146824819 9.11348765639173 -0.48954009879136334 -0.4344835241368517 -0.026112895036967933
Ni -0.16665008825399819 2.255213788273084 9.89465336368383 0.11348180867094004 0.18848320187849474 -0.029176878674272332
Ni 2.292750454300444 5.371891792426325 6.798780748857821 1.1659184076586306 0.47789171591915763 0.6462760901652483
Ni 0.9872279332061669 0.028430733816466765 8.834356474688683 0.04046427866263354 -0.8228954507266215 1.1554609597707326
Ni 1.5037179332769524 1.062174176186067 11.374491259801998 -0.2409460476639012 0.9725136001088026 0.08153250945785313
Ni 4.463558941310555 7.058527215534308 1.4862150443368427 -0.2575250350685048 -0.27329978140425837 -0.9130599248278598
Ni 5.470885103920488 8.119158167240412 7.823086011863782 1.1335952700458929 -0.3087264976429845 -0.49512196375451506
Ni 5.504672642240641 2.99517177083372 5.089449940324202 -1.5016260618761492 0.5491644953222156 -0.9623423160027557
Ni 0.6864961476791526 7.293741859654003 6.682951766066356 0.3741425611549492 1.338328872344979 0.2298363109039848
Ni 5.7524600269765145 4.414166680160648 7.709753421613436 -1.9510631219990395 -0.05526277712804677 -1.471901281118207
Ni 0.8671805009097647 7.621513661407304 11.11265871674024 -0.2096842614361421 0.5502081060953814 -0.3832131559976497
Ni 4.904267541624048 0.23258753138733196 9.943135122390556 -0.7967658435191053 0.8383331254379304 0.27409065273666994
Ni 8.087213420505156 7.238739523629873 4.655387190844719 0.4747238597141372 0.2662559871835995 -1.2011931717005249
Ni 7.352983524102504 6.395013311478244 6.655502341463325 -0.1234054955425552 -1.6988181043825519 1.6456417774698884
Ni 2.0120288436039284 5.461235412025184 2.4083216278258446 1.037822705729258 0.6661579166908398 0.774739202736369
Ni 2.3140378743328895 5.777369485641345 11.49288471856752 0.5857708336913395 -0.2770307092016003 0.4653367620722824
Ni 1.5602725715721049 3.427392636507411 3.652500068062446 -1.5580797739885037 0.5832807202796342 -0.33704668474391636
Ni 1.4802881545546749 1.3530538350771697 2.240688414800199 -0.8718803652657566 -0.7906098512200384 0.615085780605373
Ni 1.308418336441975 3.4760314409994533 7.871341733573152 -1.631543904615926 -0.5748130491282551 1.5143095708810888
Ni 3.6110091162499547 3.1795507850251874 7.423115814484023 0.6689290516780738 0.878973781777428 -0.008866192141378279
Ni 4.220183363029168 6.691920623632265 5.704391307762951 -0.0033010393487749603 1.723254383048045 0.5420664508248535
Ni 0.6381814203279021 0.08457142483934652 0.15269116894317059 1.4269419427986973 0.8669955263696295 0.5661538307913604
P 0.23185676920711368 5.5907845682226345 7.797496626648662 -0.03391259358704482 -0.6394523823751954 0.8109544763146614
P 8.957982372220389 1.48208555718428 7.695045584540273 -0.6149417988283409 1.2338775493074232 0.7953265399694174
P 1.9216231224512121 3.308682362833942 10.323613486809267 0.16561940990644378 0.2878645665923107 -0.2419222955342414
P 4.131139310535244 6.10643033372497 3.4377013760335706 -1.001587120435991 1.5666181504768182 1.0109994148888266
P 7.005340437721901 4.088292136738595 10.209989499465939 1.0828766606451028 -0.08052360857736456 -1.2882949477160393
P 6.626079405084152 8.035551711590594 10.243617268663462 -1.2488112877991204 -0.9563269630466111 -0.5771344981725801
P 2.37276210469105 8.68088280015626 5.683319031378596 0.22792880946862681 -1.5845487668133096 -1.4553585462681773
P 6.97343200215088 3.9766988512550783 1.3518909700425616 0.40436099371985845 1.4702403484760163 0.31044682276820085
Ni 5.298552318463798 3.0822640982500427 0.4460654048171799 0.3332141983717035 -0.3801890244593452 -0.018416554833974735
Ni 2.0685925596901393 1.1457806318358832 7.029071599107324 -0.3442807405985103 2.089689291146091 -0.22083873539106483
Ni 7.028606816205123 0.7655573533459217 8.786499268006786 0.0039024203781997304 0.4340937448976007 -0.19316080985982217
Ni 2.961738266364852 1.6615807197862142 9.469267166898168 0.17602235040732267 -0.20341925436303676 -1.0849949925396862
Ni 6.572039314912235 1.8787850264456223 2.5749708083007374 -1.1818901004965388 1.2846452667785941 -0.8517506843954169
Ni 4.403572897995247 7.0352880704242615 10.349827424049222 -0.5667343858851788 -0.23527033743536255 0.6943222949401977
Ni 8.140454665063915 7.691013229752038 13.006416651757938 -0.29746326602433937 -0.5634084068357395 0.22251689442443615
Ni 7.837338143825804 3.7032303956143933 8.152079684293573 1.3297041067904454 -0.4477943823131449 -0.017660136283924426
Ni 3.3291437038800535 8.61366175736724 12.299294855014512 -0.36720546771548374 0.11905364633176271 0.5577211266429749
Ni 0.23363601625460162 4.6591036385041145 9.844523985899963 -0.18246630626045351 1.302582825093621 1.3451106711535028
Ni 9.084871735637668 2.493106380755069 5.6634295911691765 -0.7344934678424446 -1.3856554253450846 -0.5363552593726892
Ni 3.513822285176455 3.0995028234703472 11.901875516922223 0.699501268037976 0.5974277012039775 -1.8964904289594822
Ni 1.2689481009191301 3.7244905822736625 12.446732706272066 -0.3953294796452095 -0.2999222690877931 0.013390305263976937
Ni 3.1454999907643337 8.201530043306256 7.601989148398442 -0.3093011391995318 -0.8292920982815847 0.9585563665977621
Ni 5.544805556510765 7.979696063206956 3.349134815349329 0.07620852614177843 0.4347686594774383 1.358419215336951
Ni 2.9938282577570456 8.198706850287028 3.5727825381021394 0.7322039004773195 0.04990022726455277 -0.13464301612958748
Ni 3.628492941828841 4.8291215872408575 9.919445718844003 0.8971052012708163 -1.4114600451130142 -1.567791087738997
Ni 7.429427602607075 6.159762356194315 11.215759728688427 0.27323678937680684 -0.18708760708254873 -0.3534603502152493
Ni 8.388922884129183 -0.13349345641241803 2.3486396905110007 -3.362403610815054 1.839139144733523 -0.3088874487008809
Ni 4.858333918867471 0.7979596207505312 1.3969177214723827 -0.7485082940642981 -2.4318622413729796 0.4541010412574631
Ni 6.532251356702338 5.981066039205539 0.18958875848000473 -0.552002736101959 -0.9910404552683963 0.3616205174285385
Ni 8.195384378759575 9.230661060038976 10.798039726451762 1.7367236211790738 -0.39075420156970125 1.240856551728418
Ni 9.369460485325153 4.842438706723842 5.554402597217931 -1.4470142880685402 0.10527741848327676 0.004076998282851043
Ni 7.082728606496567 6.17372399884246 2.5487042198726435 0.6075969284274956 0.002452575305550615 0.11165144033042061
P 8.505853910755164 1.8453696775588717 3.3031912070225875 2.159246116299307 -0.3729680812308738 2.3432959649967966
P 1.6580494590644141 3.6983374662338018 1.3150478472520792 -0.5980082562977959 -1.9688235313062548 0.6507210133104794
P 4.802850459917235 1.4997872497485734 7.802584728537013 1.1346959593092394 -1.095262178793649 1.6036132396439287
P 8.605909323803184 1.731198299414709 12.410700230223116 0.41097824192606 -0.6161671865950098 -1.0531865897798378
P 6.558504328443845 7.9868765959343175 1.373188375645171 0.3523028395720384 0.4262768199563432 -0.8146414382479453
P 2.0530604591888544 3.1950374965711794 5.888751258593196 0.5544383421266451 0.3387112169305328 -1.1081976559083948
P 7.174913574696772 4.125356757630907 6.067916897379702 0.12420305174318609 0.15634518369336947 -0.8718561968960404
P 2.704555367883317 8.58187133307998 10.280977825544284 -0.0012444139300623728 -0.1882561734693532 -1.6560832845181865
