# total energy = -340860.22220645146 ev
CRYSTAL
PRIMVEC
9.36863532813214 0.00000000000000 0.00000000000000
0.00000000000000 9.36863532813214 0.00000000000000
0.00000000000000 0.00000000000000 13.71194479888883
PRIMCOORD
 96 1
Ni 3.566171034237641 2.895358008115262 3.9401959989479334 0.47941895119696143 0.15594152049704757 0.8738246334763209
Ni 5.105812562588131 4.303201574795832 6.363315764575102 -1.018576455905136 -0.10360620142844093 2.297461166050869
Ni -0.15591376584496583 0.8001048778444244 5.36174025791924 1.5143810475489727 -2.139063727814161 -3.2948820709243125
Ni 2.6790924304078096 4.12877632242374 12.340174385371387 0.2613431232630144 -2.3148827039614264 0.8372653462950483
Ni 3.445784070386456 4.857178349852986 2.6200372376734946 0.2913638379948208 0.6934393781146122 -0.45839889730186856
Ni 1.5984016090722513 0.5808760007855223 2.97250309878734 0.7233204819447606 0.2023854137818837 0.7940435594919356
Ni 5.104978754044725 5.1905612376852375 4.387164221389661 1.921623733692 -0.09920010194094528 -2.1869854911961046
Ni 1.267323405528513 1.148866380553074 12.989612870013108 0.7400830461150802 -0.8135821437454956 -0.1292213308933839
Ni 5.620319277045671 3.927828463463112 13.615906141098845 0.25462971579858085 0.06214613451144137 0.20561729045562005
Ni 5.677318054327431 1.3566439746613688 12.684467985896331 0.7178869696340152 1.265616532281917 -0.46179892412235307
Ni 7.982742465030609 6.316877313025098 3.3851633786903097 -0.42936265797051865 0.8667620702025847 -0.7916853436724043
Ni 7.550792165005492 1.2679604727302156 3.1263510805444312 -0.022626479150264257 0.4152038499716333 -1.2681187298784806
Ni 5.138827633452845 9.391963221103095 0.8324435332390953 -2.8901516096801774 -0.5144456037837913 -0.7966241757349184
Ni 0.28030582129509135 4.406987316861468 13.345643496865891 0.4911591224520251 -2.198291146016911 0.18111082067382356
Ni 1.2224851168910207 6.220502161496915 9.34436118504645 -0.29222567177448383 -0.375877798678501 -0.4344405867140583
Ni 7.430761209296434 0.10539339988640423 0.891735752446985 0.9954182726211179 1.1429795394742703 -1.3377367472869348
Ni 6.500249612126985 6.1113856659346775 7.293178115316934 0.9185811117564051 0.9429063187653309 -0.2509373545486582
Ni 8.010164460609785 8.234430852879798 6.241594707054468 -0.1063264285730814 -0.36977502821487285 0.8635633607596289
Ni 0.6104537193516373 2.682165342792494 11.486674844252486 -1.5449987724348295 2.956464988195431 0.4663338358782292
Ni 9.259668721761258 8.520483395079662 2.052060910858922 -0.41491254398345967 -0.4158815927649483 -0.1735407216360495
Ni 3.519374700818445 6.604663052759006 4.286107562792495 -2.4512241908393593 2.0612153520761143 1.2561584721928107
Ni 8.294558754358157 4.299585281562637 8.257525475805057 1.6771876705969695 0.42189437461793144 -0.14284072144903143
Ni 9.110135933432172 6.379281792886012 0.4428919292143618 0.26295289095229557 2.049577767837186 0.5276525893923687
Ni 0.08291429630161559 5.89829605560042 11.409270242382066 1.0209490699023707 -0.5320252645387676 0.33255393907988534
P 6.3911799597413435 8.28216404983091 8.497758833249511 -0.004210438536921781 -0.406007785294662 -0.058288708438564124
P 4.784290367069934 6.684952257444192 6.15448326212987 -0.14327780898645 -2.6887344733488336 -1.7477791076622866
P 1.0435629195657339 3.9426683818086596 9.246101064092054 -0.8421941510552334 0.01709397936780927 0.8467180070675159
P 4.151663898508445 4.898447188433879 8.277078754579671 0.2739842090657927 -0.4496332352940966 0.8921727969662054
P 8.69850620341431 1.8660166769640105 6.896683415657171 -2.1249517138928113 0.8661501476501987 3.9391511579618608
P 2.6693209437699275 2.3910724747909233 5.909148682754133 -2.3828994383210316 2.7075762886456856 -1.1989591401636834
P 8.059565274647706 7.369209275249564 12.333770923130745 0.8209979765935924 0.24687526866414256 -1.143536954639637
P 1.9356912178325916 6.452169775669064 2.439835284763611 -0.8039543908477444 -0.2689620732608529 0.10863013700559357
Ni 2.338879807427892 8.493848364867295 0.2932214219460831 0.09587129467802845 -0.7451566039832458 -0.10922920404217316
Ni 1.6277067003505787 4.180978358422092 4.186064590536862 0.016044455057372366 1.319283939898386 -1.3610880204183655
Ni 1.9524142318772892 3.3073531149105713 1.7354797336080492 -0.3659335429815956 -1.1858776243893772 -0.23911490799243337
Ni -0.321664598775048 1.7957893866115993 9.276816134985914 0.8463945622898262 2.2170350022833176 -0.7432550160851586
Ni 0.4088238237397743 3.1634977195848943 5.695379846359236 -0.16606241098113336 0.08201536263154262 0.5779009440249595
Ni 6.21088057302414 8.233671993418946 2.3756629434179715 0.6189046401308309 -0.8309111219422465 1.4359629153503852
Ni 7.451981168294328 5.299621521435561 12.579050227558097 0.14814542149139648 -0.3728582951258869 0.7294080828997374
Ni 7.063491967514787 3.470189365392863 6.649497593942369 2.714737582280815 -1.1366415130713845 -1.5574963906812078
Ni 3.7798977117736015 5.860128235310168 0.46840553377902583 0.1517053709285129 0.27463675504812707 -0.26478145952060206
Ni 6.765185250317465 7.283270783466924 0.24010032282292312 -1.3513664222552275 -1.208475821404867 1.2553344336296186
Ni 1.0617380720849012 7.797271591617229 4.049973920163704 0.3116819807268825 -0.18166952139077097 0.07538654446111534
Ni 3.784844351222117 2.6382732863222365 0.22774402970048513 -0.5157548095135183 -1.078352547522504 0.12875236167676535
Ni 4.566329066369714 8.518975044793278 6.863554984305097 2.7331950176550537 0.96628227448711 0.4367044430475705
Ni 1.0801755463930047 -0.4944465925121585 9.994129445651405 -0.2632521673602692 -0.019043646895012364 -1.4635482811678215
Ni 3.21475352341601 5.311941276880254 10.611509397094494 -0.25772455267382066 1.9308750770869392 -2.2123131713276156
Ni 8.128415375608201 7.0546854503147784 9.792536087717284 -1.0850327877561572 -0.20433945218446095 0.19438645473680716
Ni 2.2770561829567657 2.5255779720680804 7.954847353367814 -0.7128041557944691 1.6345610941756945 0.16504682523242545
Ni 7.892897252319879 3.570555555567007 3.9580629233651 1.5176777160223733 0.7331608650739502 -0.9321344249608076
Ni 6.340889125348101 8.691938790055579 12.120686933977677 0.012707163154023277 -0.22038930655847205 -0.22173450773245684
Ni 0.7275757137940959 8.105762015406478 12.095676425129653 0.04298781641543564 0.3304183807941212 1.5869332078850864
Ni 1.2482769699246639 7.791247559107011 6.402628432101354 0.6675627674581665 0.4007797041265033 0.29384855208988747
Ni 6.014982408500537 3.2097787780615366 8.691535938736855 -0.6143239627386838 -1.765487066465011 -1.702967607774551
Ni 0.5985040250020508 5.359777528819876 6.765473804285295 -0.07113599671487748 0.9759113129364418 0.5572750402444919
Ni 3.2267266393538945 6.86586997409246 7.939819125452352 -0.4576095686313539 -0.8798590125958589 -1.7329474419660928
P 4.378993834527823 1.7579400999221995 8.07670612982764 0.7388856833728694 -0.6400841024219234 0.21671494303067837
P 2.9584276610838365 7.562905810473164 9.81510606706467 0.2489362649582293 0.6260098837170445 1.9779262649384712
P 5.754665507522403 6.0948781305023205 2.2288358169690574 -0.15644622804760797 -0.7958680142951842 0.23828778410544768
P 4.242961249693643 7.786834931871687 13.0558416268113 1.1043901092368464 0.2772996465922708 -0.3680019954748501
P 3.073849248215868 8.990854468548646 4.807366252724553 -0.9069278437881929 -1.6709308910539804 -1.0634933710224845
P 6.191318862477737 1.9096651489159695 1.0364174614078117 0.3621403944877505 1.521398102296754 0.7303308518243229
P 9.31576811005238 7.510834935369281 8.092748980948167 0.5484890665217457 0.7936638075550138 -0.9585278273526718
P 4.016511965394266 1.8387914227265363 11.555536187575361 -1.9579927592393374 0.38717522596919124 0.47997790902422505
Ni 3.1345673737193334 9.17483572894628 11.345400507957235 0.4019261590261207 -0.694056699983637 0.7223601749140205
Ni 6.200518862361151 7.687630452477119 4.582065563115305 -0.9094256705093822 -0.4036256582157307 1.3270347874883983
Ni 7.642014567108137 0.13889282919711887 9.909485699269872 -1.167292662298338 -1.5022063598596513 0.021184347387099
Ni 6.634905007569248 1.1760260543433143 7.687999576708694 0.0867050547977281 -1.2577772387431563 0.3729439128611577
Ni 2.8391461962003115 0.30964745025116347 7.437948826313292 1.40740850075146 -0.16085104198352296 -0.03100904678700466
Ni 0.16448419343493192 4.836426822621051 2.184737650521779 1.0122209460007534 -0.1376928586995048 0.8739603877232367
Ni 6.5631693669304525 0.9462883790469123 5.286859566403803 0.528636807682509 0.24819990101283707 -0.09775694173651552
Ni -0.19979364308930797 1.7877604661430806 0.9793699672223924 0.21143595401992618 0.33056621922589524 0.6858456249277544
Ni 5.457839034705508 3.5349453727188864 2.545088155120228 0.8842026342765352 -0.9588296748638067 -0.2830802578297899
Ni 2.1321702377459815 1.9198020123312989 10.183436775227978 0.9303577926763591 -1.7121263914556837 -0.17098324532151843
Ni 5.183684659360975 0.743593269599261 9.965937348248993 0.01607325141277877 -0.10853860573305177 -0.21127628851361033
Ni 5.5282255918583445 7.426685852932601 10.425890499243073 -0.45201099149765384 0.6870363028017458 -1.6387203677597069
Ni 7.7825253596248745 2.7217946701925335 12.911619917844646 0.04739391590293128 -0.06196615729015135 0.16417470704011727
Ni 6.327145337334895 5.157771014068183 9.377380003365293 -0.9141076493660838 2.7602926452027945 2.1444579022465393
Ni 4.043830905984931 3.189561263042793 9.867636942162724 0.37890835797470873 0.6219938205791159 0.15652438958371107
Ni 2.8666431408620414 4.615261448641678 6.330750388205707 -0.9062966379620973 0.26261864754132835 0.1315090984862961
Ni 3.6787070816913716 7.847112731515152 2.3276299501366466 0.27438787226211453 0.29631269735966387 -0.5328570164114437
Ni 7.088272007933962 2.35415068299812 10.500785243711489 -2.6391995998435003 -3.813676952815736 1.3241978322602357
Ni 4.415212978671689 0.892915263633667 3.0873541360284342 0.028128125694783818 -0.9779357995656383 -0.05583021959574256
Ni 4.253257379909398 1.1704236104224577 5.670671007568488 1.895014615744904 -0.056342126235154576 -0.529946527632868
Ni 7.357779540160191 4.63762438114851 1.4324456030286796 -0.19236762453456546 0.7185834814804076 -0.4405202172492349
Ni 5.026441484164222 5.778340048973916 11.986228279877118 -0.22124239858738673 0.24455561939203044 0.9985768728547576
Ni 8.173019448362714 4.051016649274726 10.464764714636388 2.818801440071965 3.323269106707438 1.0137985749005185
Ni 0.8342282582673949 0.48315270263491306 7.837390898644462 -3.3725358141530495 -1.0355004853539844 -0.3606219009606951
P 1.900942949433833 5.919384853703845 12.935217636486541 -1.6087143083159197 1.4453798377889109 0.10711215769917039
P 2.469947015542918 1.1059392935206904 1.119336442027087 0.7147322260551174 0.5702670816287856 -0.3818257887318198
P 0.30884549506784353 2.362638666597278 3.0101013060501867 -0.45533054278919 1.1615552455939286 0.7901619650493424
P 8.056501730898344 8.728832475942426 4.040238034340034 0.2908334194126475 -0.9924026257232456 -0.367138104812658
P 6.125803995690862 4.025674490736402 11.500647226967477 -0.08247584720772892 -0.5847135960714188 -0.8859178171954292
P 8.740852435056905 5.3040716232121605 5.0513433168425435 0.8941705441225246 -0.6148129865599605 0.47996351084652183
P 9.085234100753848 0.809236486690008 11.307157738584431 0.26691573225478543 -0.5939657107973061 1.0154124563548577
P 6.046273650466527 3.1624390637938298 4.771263279658645 -2.0587324377532608 -1.9224318314155924 -1.0377604850327546
