# total energy = -340870.33423751744 ev
CRYSTAL
PRIMVEC
9.31219146760643 0.00000000000000 0.00000000000000

0.00000000000000 9.31219146760643 0.00000000000000

0.00000000000000 0.00000000000000 13.62933350357982

PRIMCOORD
 96 1
Ni 1.9731694973815992 2.394648581538022 5.343053129022898 0.3533690760530237 0.6695126920956856 0.03111703311977866
Ni 6.212302406641743 8.067048769023735 2.399662265259323 0.6224594473616247 0.07816976363320731 -0.6653955846035186
Ni 0.7127513866175942 9.513241368581337 1.0217066088751605 -2.0224212620270525 -0.14823489588140923 -1.6219385203156775
Ni 3.696790896019825 6.937899029747381 11.992777091089392 -1.3650958560261781 -1.1712151372811956 0.715626969955245
Ni 5.246246383366264 8.627642676940411 11.638782525060567 0.20985292580352244 -0.26887337020178853 -1.1332337729414161
Ni 8.750079366330583 5.282144880293486 10.757332414582047 0.3173749173466018 -0.7007539094981544 -1.1131367450812248
Ni 4.665687137599533 7.982438200131195 5.331835663549868 0.03197321047248688 -1.1805148174155669 1.0369135636514273
Ni 8.216667744414055 6.650645868991473 3.51702183930622 -0.28122880644334786 0.7021613313686423 0.8721906974173236
Ni 6.475576675157029 0.2208758621574024 9.26474368500097 -0.836918504478591 -1.0325066928329831 0.7473284148235839
Ni 4.366216382039859 2.850396529168421 0.4317886109912159 -1.3769324436497898 -2.6310931686862817 0.162166675471153
Ni 0.4713197936905029 5.157333582157155 2.1891434221116373 -0.41660510119453414 0.2662747562366769 -0.06674223852255604
Ni 6.686283624566176 6.259477967065429 6.922461279240002 1.291551506980124 1.704019188967517 0.0010706073563594466
Ni 8.933147732372676 2.434514071900004 4.889714245245955 0.28604756798822994 -0.3740037215842398 -0.4428090132834116
Ni 5.743377708517953 1.5527240664440927 7.321663739700107 -1.8350675457673107 0.14499376323629223 0.49359755669018857
Ni 7.295179868037067 1.2430192127980328 11.916125651982506 -0.030186036665077045 -0.2773148161009224 -1.8599188004830354
Ni 8.481953446220205 1.3749357127905184 9.137963789653115 0.32036742431602244 1.4901437722681627 0.857941129476845
Ni 2.5838723059378035 4.965278951644304 5.255443103357269 -0.30514932181468735 -0.8378448729476022 -0.04632999341479118
Ni 2.033410062004738 5.045875966146279 12.20986568510145 0.14604097355388396 -0.2573291170076149 -0.6793643880787849
Ni 8.635604600383413 4.9330867067993225 5.520616127650366 -0.534583512184247 0.297736574290384 0.12392203016765754
Ni 4.814989498490365 5.506540750709901 3.6906737176458972 -1.0958651024849708 1.789794532862124 -1.1891141290488039
Ni 8.79268264089402 3.3264264291483627 12.503740744992236 1.9217016381177872 -0.6089745255013125 -1.5481897685683013
Ni 0.9322620815507344 6.678042335388331 5.2561927347457615 -1.1419495555478592 0.8714872435923959 -0.722735041754936
Ni 0.31024868560988583 6.891533629954738 12.140532697028315 0.9305652807014748 1.014931145843065 0.05348485929201757
Ni 5.808646856368252 3.3637683157056033 2.221403645952098 0.04013980544367926 0.31203679296313996 -0.37350569890189866
P 4.354101221338869 3.2927442337175554 6.046803351663877 -0.12690862359980723 0.34180785357798554 1.059725162229304
P 6.174010676586039 3.5386885144814646 13.18952775088286 0.4664459359760612 -0.39980885557280177 0.45767718864449564
P 3.809338038396585 4.787509222373054 10.828096686436691 0.9682219147119839 1.1490740824077823 0.03118850978766242
P 2.0793377888127953 7.8213372930388605 13.104317476879526 0.2386991606112534 0.4454886169981037 1.1697652922085469
P 7.995102780110707 5.3003129652493906 8.621356947906461 -0.4575733160767797 -1.7283032583258622 -0.019675109831424183
P 0.8687631812402191 4.1715822745753 4.090953598623378 -0.10528641734434124 -0.6646476506939005 -0.28996335810286833
P 3.8192182732188376 4.471108903281943 1.8872943329293401 -0.8436928470879469 1.1481088902810357 -1.4087444459540641
P 7.250583784565091 2.0557406964097913 3.1054295085058623 0.6708357817824834 -0.9222768154404374 0.5981992892626794
Ni 7.675461818495427 8.055650647042173 11.697374831848135 -1.1394630416805795 0.4709921605858469 1.1830031310550593
Ni 0.3426476610986515 2.5160516177092793 2.472524573782633 0.02489753457262809 0.027552712807288035 0.28537676717345045
Ni 7.302098826069992 5.423792620049642 12.821604009314802 1.5217547143052241 0.7960320506768742 2.289267574496483
Ni 1.903970604861187 1.9172404772661915 12.547014497319292 -0.21770481774777345 2.1242410609790316 0.8620623507340702
Ni 3.349669658287234 6.387250541991088 8.313088965356606 0.09533213434510679 -0.12363355239296125 0.5992022766058971
Ni 5.716381666341036 6.015703426842127 11.421885762186433 -0.5684356848470017 0.43651906650964173 -1.902672646510794
Ni 6.646222578189805 2.7175767466332785 5.213096845269889 -1.1329105852740424 -0.5673362811352359 -1.655238677129704
Ni 6.882416994807721 3.8137892657717374 11.209962640611607 -0.9471226708395238 -1.1286296985105013 -1.7709624877572858
Ni 2.8283545726893715 7.188620464577092 3.7149068327052253 0.35961814228652905 -0.11061477153579014 0.48795321392021773
Ni 5.782507535778184 0.2974183486276998 0.003938125642158837 2.3418335215186574 -0.2275521428554984 0.9530804310848554
Ni 8.56349099202948 3.411558480745942 7.34645558622912 0.6213317615150847 1.2110014160401983 1.4357184034397465
Ni 4.5362104316913365 5.657035072069392 6.3823309114005164 0.24251930568829197 -0.9159249050804806 -0.3974791789983606
Ni 8.384855228980218 9.449545981037316 2.9927836569027915 -0.6411896767812764 -0.2542327374704783 -0.03894938468000389
Ni 8.005299629432448 3.507157435208942 0.9974669752820193 -1.06348437216142 0.036237642175795656 0.5491143588105705
Ni 5.055551332762981 1.6872386677706106 11.267901231579646 0.32233508956535456 1.5427110048419173 0.4051073849675797
Ni 5.674132255041734 4.988764297753372 8.965770200449315 -0.01786453898524665 1.500469579674203 1.7764646485224374
Ni 1.8616001350767872 8.584499295289614 7.584491954258762 0.603277218006219 -1.9607253276791523 0.7671485348733046
Ni 8.91186937556886 7.239083228480754 1.14639312364993 -0.3954099551741578 -0.49660189073415123 -0.3166202985687644
Ni 6.191284791190448 0.08998835928825237 4.3554580075910865 2.431294798905284 1.7346592824508769 0.3036485688994448
Ni 3.6080829630162663 0.5018591246043358 13.581071865331825 -1.6195970166666946 -0.10835991406334242 -1.0980896209401154
Ni 3.8314731167872482 3.5995809324859023 8.328190545763059 -0.08740002398222367 0.5148454103253713 -0.47098341883509853
Ni 6.635755675324384 5.733488161504541 1.935337789569269 -0.32681189438978553 0.388372331601086 -1.1830692084063044
Ni 2.785555742111547 3.045486933999888 10.515984631375408 -0.4510555695629199 -1.815969905705911 -0.08840455398733807
Ni 2.6339718943861707 6.177912484682668 0.8700994806718809 -0.7538078519003405 -0.4691574213699533 0.42080782642197206
P 0.8950542905462183 0.6949883819772112 6.4511861840670734 -1.7954841270477335 1.7063241829516098 -0.5636405774512036
P 0.19547406710731757 5.240202771302512 13.433343264747272 0.09107335906875284 -0.8279142440974515 1.7378405083923358
P 1.1694435904317597 4.239477460333116 6.945684952777433 0.9242923032085695 0.7217127711380087 0.4357274238462819
P 0.811032252135079 7.70977724292521 3.072651526836827 -0.4858860469785438 -0.46818940102972917 -0.34569279045468854
P 6.882286624131461 7.488938629532454 13.659317551565543 -0.6218570378909355 0.5450980385623259 1.1882204135899408
P 2.169759164990053 1.6133371187136878 1.4396256423505776 1.6107020281699098 1.1681390694590335 -0.13729665170235064
P 6.522938479403943 8.825079753944552 6.616073428085635 -1.0130197877529652 -0.0440540528964209 0.010490872228994835
P 6.361055348254051 2.395663610374615 9.576895782484247 -0.1966207433839646 -0.10921557719541837 -0.837454322377403
Ni 2.7375607088656575 8.602900185024552 1.7497886558017783 0.8587643967090887 -0.8837694033938586 0.03133737666070087
Ni 4.456013841409303 4.911892159715961 13.323735981120167 0.0467133448961389 1.9832335360839974 -0.8809293628419023
Ni 7.612492781861996 7.190650522250278 9.526522415615736 -0.9176328889105227 -0.6642439874975786 -0.3828696566153019
Ni 1.3866225126980838 2.367056559126774 8.103319753597413 -1.1161485353243552 0.5031420058455142 0.18107353967798492
Ni 2.6818086203823164 9.389575469957858 5.467120383085434 -0.006435471212698595 -1.4379267239449751 -0.5077509653724352
Ni 8.439247737553995 8.686905461491602 7.7936884662615284 0.19869690918670296 -0.004920834340385073 1.4725723390433025
Ni 1.418535391808224 0.4173044288587641 9.50820440438213 0.9576485100715119 0.64879499993236 1.3203897713680552
Ni 3.3079044809283253 1.4680203756399386 7.429036097448473 0.8232304654685372 -0.7328829288222152 -0.6519600279239031
Ni 0.9157888153862062 0.03599534371530095 11.987938476561924 -0.9742377818887609 -1.458424586788011 -0.12693407752110397
Ni 1.4240482089757767 0.4471295147105171 3.4055064877101437 0.4267488744967554 1.0646166859936503 0.6252958883691554
Ni 7.633910821533231 4.226552139001083 3.416709984896432 0.9193365018651908 -0.15216714105627988 0.754512591276849
Ni 1.549204058185081 4.665333274335399 9.189114724483607 -0.13671403972600327 0.1864394319755886 -0.45003509871820563
Ni 4.810780388085409 7.112754043185112 0.6438486217761148 0.26730036928771383 0.9626048256355227 -0.2687946944450532
Ni 8.436454080205573 8.552930967252445 5.563016396446484 0.6486739009734634 -0.25717407948698934 -1.9556419996189742
Ni 4.596832796152093 8.502701008127818 7.935896799925601 0.1671204199320025 0.53984784590698 -1.2865082881292615
Ni 4.687384543005611 1.1766605385818498 2.1622256023404756 -0.29686342765681134 0.2606180721715318 0.11229447323105822
Ni 1.423442916550285 7.072320509162284 9.688111281524927 -2.199463826168773 -0.18911826435933235 0.21529286587217117
Ni 4.329172485599784 1.5535062905016508 4.8042851347503275 0.5674514665568614 -0.895391046793187 0.186064308024357
Ni 3.881302651691935 3.528715157747598 3.7458037517596563 -0.8282217480355413 -1.8269798836631694 0.5862845401029645
Ni 0.07944975255088857 6.569555308357944 7.640767387885375 0.7004962849613936 -1.0061287170600868 -0.3970024964722582
Ni 6.3858164645522315 3.9290462557764663 7.08197818261578 -1.0094860635680938 0.02337492728051458 0.22534767900501193
Ni 7.866501420171683 1.4389570270251886 6.782650834799992 1.4733333855790431 -1.7324532759384939 -1.0226845645362388
Ni 3.266828405715361 8.171028695532 10.111043067502527 1.0683542986592116 1.4513751361403973 -0.38188235300136814
Ni 1.7516417818428982 3.755597383204108 0.7308282121001166 0.7211535562004289 -0.4998029141699522 -0.1870935206198197
P 8.988164157754266 8.740944106801244 10.187272664349802 0.009927286416040968 -0.2235533061087505 -0.688698263885201
P 5.273279674307828 7.32664576197146 9.57707364533543 0.2999508083328834 0.058848180486459935 0.6831241122315332
P 6.491444648896066 5.698418449590683 4.732131483974401 2.3656673907134613 0.3365440340758849 1.4101068735192295
P 3.19823480562044 0.7460191895417192 11.281775465191027 -0.34605197356632017 -0.5414763826493384 -0.6343441146143526
P 4.38138594144179 8.824390651798609 3.359971735369098 -1.1630804239892034 -1.2362702179093161 0.17017591892887465
P 0.5683351324291527 2.382738289042583 10.57446798552639 0.14824800850753178 1.1691965641892703 0.13490655420361927
P 8.332939763255377 1.4383796711731813 0.008991851785454183 1.1954387857152509 -0.2289760197862186 1.699926249845066
P 2.764482253513284 7.064703136792255 6.231630790616358 1.3747624325816648 0.26418342092528696 -0.10037458186502068
