# total energy = -340894.14050010056 ev
CRYSTAL
PRIMVEC
9.05118778290176 0.00000000000000 0.00000000000000
0.00000000000000 9.05118778290176 0.00000000000000
0.00000000000000 0.00000000000000 13.24732822836571
PRIMCOORD
 96 1
Ni 6.39591319714191 1.729120802101778 11.331380143724191 0.6670493181568576 0.23138514344834346 0.533483594251849
Ni 4.684577978935117 0.369664988908594 6.217871808843545 0.08606690699309694 0.1799114010490837 -0.5700433956537537
Ni 2.7456415939989216 1.4695689426755352 4.585085513138453 -0.5466548415264844 0.8253680806368301 1.522493392243462
Ni 3.55505310819376 4.413838851471112 4.7273357897849415 0.5319735853652258 -0.7742324383032795 0.16437242487322015
Ni 5.0450415303945295 4.612412859141371 2.6856702343188266 0.5757756701518406 0.3947828631131201 -0.1952529165021605
Ni 7.13234498464705 6.131962460477518 2.7699503688929465 0.6797937623067196 -0.03328138776094913 -1.0621689957841063
Ni 4.944763421502657 4.726177237755141 11.447294179424505 0.0033403772271426344 -0.7436622788259063 0.6655629634193183
Ni 5.646683030182568 7.922640390350181 12.577609218854935 -1.1939678575966792 0.3793899255968176 0.121411605040978
Ni 1.6769045000711602 6.290765549249782 0.4446540792749778 1.029327780884369 0.8255220897161912 -0.2937464792943844
Ni 2.869018333984942 1.6004310149165946 0.4904558045593486 -0.8539314940968197 -0.027215641182843454 0.012211968685159613
Ni 0.7949205626345998 -0.10844318534564648 4.496023636085085 -0.37101172883545136 -0.5596322276227588 1.1459062262027622
Ni 8.658402389963094 2.038743832065961 1.3363372694860245 0.047451765724060214 1.6084775097147654 0.16111997937419348
Ni 6.764803404380575 0.6818042490625 4.839858345441768 0.6664877892264328 0.023281853346076034 -0.07893723792685114
Ni 0.9538865727860539 7.2443715352161195 2.611154521070869 -0.3333029014307679 0.4503171487349987 0.02733545459015937
Ni 7.713413134718397 3.8670203957807425 3.9998719190854755 0.008456615407785436 0.017595858704892275 -0.9593958317799218
Ni 7.6098494446795115 3.582378643959133 12.743188026763985 -0.2801245176355756 0.8811592194645211 -0.11293853457296033
Ni 8.401457272603901 9.151565404773327 6.657537778558968 -1.9626073751932138 -1.8803449295478711 -0.673288357088034
Ni 6.704730671397873 0.9375220253651221 0.5750201464282788 0.20866301926047937 -1.2553323767470896 -1.0325023219576088
Ni 1.762157637326558 6.524476267698835 9.111751040174212 0.8580650566492191 -0.18048578549531497 0.013444298430363943
Ni -0.003174251537898709 4.749221561722892 1.3152461918310157 -0.33560943807675747 -0.5252763758507083 0.7549864455894739
Ni 6.449568638022046 1.9817666052878822 7.1476749813101215 0.39072103433892064 -0.20363342725637187 -0.2845445010801422
Ni 3.502311837274639 4.339963057195865 0.38982107887080286 -0.5069798915343656 0.04200462656655991 0.195145958610651
Ni 6.0255023903641325 5.726985167748115 4.896252675729854 -0.36156138205582894 -0.18274887049787883 0.14295127888496673
Ni 5.157294360656918 2.8135707579337086 9.571314235882689 -0.039295198055196844 0.847081818164838 -0.20778987262690665
P 0.11808089004354938 5.411515070508533 12.378873194924259 0.0461430742149657 0.8051689799811359 0.11324860961421142
P 3.9462997491324816 6.223551429145887 12.685747379173986 0.2261884297387524 0.14809554209006753 0.6505803739675571
P 2.275731080474293 8.433163583231957 1.3063045234697666 0.8508376856628443 0.15244584863896327 -0.9596169466517924
P 6.5137868149863785 7.848348241439224 6.0720055826977966 -0.7201492833056307 0.6284760858693499 -0.6132219879237568
P 4.646246198886638 1.1981238225683715 12.543458182420245 0.3878807366766481 -1.2094721238798654 0.518135651040869
P 3.8416589677533914 6.333396643471348 8.294576322260939 0.13572647900175333 -0.6766711575173379 -0.2864340047933712
P 4.716157572934913 1.1080282998759172 3.858734938530123 0.6784228501011219 -0.6582129508121503 0.19616257280062346
P 0.23152304637403034 5.485580939726169 3.5011098395437212 -0.21537205584953872 -0.15599808476659585 1.269283182500227
Ni 1.3147664788811764 0.9503294560070572 2.4973204483115574 0.926034996931289 1.0911401862054757 -0.5756908237475182
Ni 2.0442469542075137 6.388029612626627 4.725944622230407 -0.214548788617295 0.824970073867463 -0.08401053868470047
Ni 5.8549237063514745 5.38493173213725 9.360429707777026 -0.3523118384331029 1.242152901942338 0.2229858636410547
Ni 8.594854000890988 2.4802336161095466 10.155441687407725 0.5769254674855677 -0.27153214798087427 0.39717630304596113
Ni 2.578647180328459 5.102561828436578 6.768245571075365 -1.0431086367185454 0.6322548361854917 1.2617650197463108
Ni 0.5076847404087645 8.706618067015805 8.66658737902988 0.028172348669157937 0.6404504846224066 1.701202545454328
Ni 1.7560752391701053 1.14708417494302 11.480903049713998 -1.1051526984344837 0.12707600241560693 -0.7249952985440223
Ni 3.9855004432033097 6.859035319866926 1.6831923601891479 0.6094121272593633 0.5937206846660356 -1.07616119629814
Ni 5.713833791972332 7.676086036508263 8.180926893731376 -0.9786778199379855 0.37099270267205786 0.011099966567903465
Ni 5.55612589691574 2.83513973830101 4.9183086099971804 -1.0877432447087847 0.7841098453179914 0.3802049652989452
Ni 1.029509246293735 7.401997969583117 6.821208596093941 -0.5847665607965413 -1.2121908083626092 -0.6341062875719338
Ni 5.026522800293186 4.773940355421212 7.218204551480547 0.6229623551399722 -0.19404192691319483 -0.8612982188745361
Ni 7.897116040943639 6.952063427384814 9.307572581654922 0.7959353771980099 -0.07599486746907558 -0.3473897185411372
Ni 4.455474315042068 0.4189595675390586 10.395655684242806 -0.1238559528164125 -0.5824898489472226 -0.3125237599018876
Ni 8.195470342180466 7.199197057241632 4.838281628538711 0.39459440125139783 -0.09667579285719478 -0.3911082424750103
Ni 7.269895884622661 6.0593357301094 6.977805005296943 0.48101252093632646 -0.8647244709472655 0.7644864146601091
Ni 2.4363625091685854 5.156706033454285 2.5873489922147885 -0.08929646967398815 0.5034839625659652 0.13686624903315137
Ni 2.246396181032235 5.394969499332944 11.478080889378907 -0.05232297777343247 -0.5305363386980669 -0.4666199996600802
Ni 1.110309199184587 3.3581535702540726 3.6421273444210005 -0.36628964076943366 -0.4461679024533155 0.42457783498736557
Ni 3.7118196797261405 2.750339160432253 2.785753742674444 -0.7420476260406188 -0.10333829247903493 -0.7822113427436981
Ni 0.9776278382092314 3.38819446233929 7.927942576124066 -0.061882853547725686 0.7749433483273751 0.6505631475763763
Ni 3.662409245892696 2.836768952092917 7.044690567286136 0.38910149645762665 -0.5892888741469271 -0.8793702458848984
Ni 4.106940229014507 7.00546543500843 6.080589729143599 0.5108460593579912 0.061807777335416134 -0.0776858820182533
Ni 0.6334727168068072 7.430681183508411 11.160887445994994 0.023118588295334377 -0.6195055069396235 0.44885239126401405
P 0.17746120716469133 5.522564092802456 7.908469850835684 -0.01651265294304253 0.5330861017031141 0.26419884754425466
P 8.6483646227674 1.7162319107702475 8.041101430278509 -1.0361021234937253 -0.36544400493968676 0.8405591865549717
P 1.777137353024369 3.407066188762212 10.41357884619133 -0.2815393957052313 -0.8120129994861628 -0.3539460316024163
P 4.1445750676075575 6.321539587541357 3.808858368528438 -0.5040154095894028 -0.09613868940680216 0.26250526189191564
P 6.803451975999701 3.823447978034965 10.665582920167177 0.3087005295010554 0.7415485749170132 -0.580431166645981
P 6.221035198956164 7.80054891902222 10.436006784274475 -0.27840702072383666 -0.18263831306194353 -0.8271786514830077
P 2.53054011752854 8.68075882366315 5.837686624433099 0.2036128584310816 -0.9553869677308449 -1.1542132034065606
P 6.932458554755533 4.004879036139269 1.6716674828489528 0.22787455919192368 0.7420450549374575 -0.20394787317299715
Ni 5.34887180020971 2.8937461788709964 0.5123162331716468 -0.4824664797740336 0.5847071683135155 -0.1896512540446669
Ni 1.411215935362068 1.16925958488842 6.897526400819502 1.5794055320494733 1.0998965922418669 -0.10231936429621732
Ni 7.18903257341768 0.469763884283357 9.18545848235763 -0.5635593305913068 0.07594524517806275 0.019457080283347136
Ni 2.753036414376633 1.8928205834374954 9.050469068510408 -0.489419256942783 -1.3233879347644304 0.8388638011304198
Ni 6.331007129909883 2.2312263903920346 2.6911679257477394 0.688102282172415 -0.8752978755877376 0.16829824229018758
Ni 4.095164633774113 6.836380196971687 10.540925437116963 0.5753496383580156 0.8644799590366273 -1.5764155961832143
Ni 8.377933235686312 7.148772890382112 0.5169993177046059 -1.4288759265966167 -1.2537398354489893 -0.17074387561720272
Ni 7.309078476318024 3.8486645870585914 8.406648128768671 1.2652748326717822 0.06426832306076674 -0.29899590061878184
Ni 2.9544796485581943 8.132238744679011 12.199345601600166 -0.24672305935699446 0.640075103560859 1.470709574802951
Ni 0.18645265705847114 4.880509039787393 10.1179516678184 -0.7132702967976102 0.3091856966675901 -0.0824521930586451
Ni 8.541633017022027 2.2752604187121865 5.8058535971767835 0.5709682214608682 1.3228883694201925 -0.7417030982170065
Ni 3.5121233247770123 2.8045467237640906 11.577674728478177 0.3376588644066185 0.32545486614125885 -0.08583216527447153
Ni 1.0927951509215872 3.251983138148136 12.606660816120955 0.28963708511170116 0.9011773144576609 0.3143584991177812
Ni 2.995300505233196 8.529848370593902 7.954702412656136 1.0383852631009474 -0.12140337751086186 1.2835831440626668
Ni 5.559764474384331 8.03225932498232 3.62929094997832 0.1406635112920545 -0.49313784344495076 -0.12419379577180546
Ni 3.0335236710288798 8.506749739499755 3.3653908999652327 0.47872989554973683 -1.0570123912838312 0.9655461676520338
Ni 3.252082701213197 4.260801369284653 9.103590489314307 0.4372677717502082 1.3645104158363532 0.18800883334523752
Ni 7.186932697863666 6.049288911725974 11.579940240767701 0.4868188432054584 -0.42221062030676965 -0.4481988168404152
Ni 0.5117632056011717 8.985448956312947 0.14982883613517614 0.8678187936018733 1.301633059585842 -0.48127143102466785
Ni 4.559436257341197 0.5191833693045346 1.7929733110817048 0.6426572624657384 -0.8236534119385684 -0.9473134466940912
Ni 6.031421867141394 5.655661808413521 0.37363574496698054 -0.4412277848392208 -0.007709967049748013 0.9418971607745263
Ni 7.798023637644764 8.725408332749133 11.585304879736942 0.35178964738104573 0.6927014715073231 0.41724402033011365
Ni 0.22824199082088442 4.826808342968593 5.774378091835914 -0.24475513699734625 0.0128143781558489 -0.05537024924018851
Ni 8.177268403649771 8.755729811654067 2.4333484636535574 -0.9217888200604254 0.06618970845319568 0.19531565141929588
P 8.519439504701163 1.5014381746827818 3.660674133204315 -0.4271491952589676 0.8086569385297363 -0.06775782427126395
P 1.8555387411660247 3.3895068845605483 1.565781258037827 0.06316686246647185 -1.7688534118340826 -0.9062557574218327
P 4.778981866988391 1.2299296962614885 8.245044602511875 -0.6812888587950073 -1.186965201026601 0.0254588063927368
P 8.61178877313909 1.7192007003466112 12.288036379956488 -0.31895871689395394 -2.4080263152956465 0.5011020925973498
P 6.393252147948462 7.917662237097132 1.413291372709203 -0.13781267210682072 -0.510859686204746 0.6118901564862107
P 1.8668255722688467 3.2102571626998526 5.819590584798879 -0.006100970691415299 -0.384273478941364 -0.2667694364849083
P 7.033080608781253 3.946254493193818 6.094367447110493 -0.6070269148566384 0.8899469929594802 0.4818111055782218
P 2.2160928045027655 8.55172509134412 10.1222573178229 0.35920342334661365 0.2720605096805186 -0.19041050080819466
