# total energy = -340889.4964873688 ev
CRYSTAL
PRIMVEC
9.09874474666564 0.00000000000000 0.00000000000000

0.00000000000000 9.09874474666564 0.00000000000000

0.00000000000000 0.00000000000000 13.31693265195740

PRIMCOORD
 96 1
Ni 6.161051323860858 2.155337985429919 11.24107621814289 1.6167572332250544 -0.15481743419493338 1.4565389397295239
Ni 4.555595985769318 0.34726815666261207 6.128771706619816 0.052538693328664364 0.20393527476750684 -0.49400636209283316
Ni 2.420102362941286 1.264598157077387 4.769326413075403 0.850323207920271 1.6035577038156448 -0.23112623336000193
Ni 3.8436010007519803 4.413964922834443 5.3094479268973656 -0.1872724693998452 0.2560052559898688 0.3729647387967641
Ni 4.88852815998556 4.346625111914424 2.4889343680230236 1.7410168492377887 0.5159877514599307 -0.19206397725121763
Ni 7.203085082219886 5.87350368914861 2.5209619500306535 0.5481813054733399 -0.5938847210477256 1.6780736727463483
Ni 5.239075504305999 4.595621364533966 11.679709421603688 -0.9204446473277051 0.26366534363828786 0.13655565977126802
Ni 5.611459836358913 7.886437218328127 12.361908746734553 0.9991026634512407 -0.5175934053841537 0.6133358877938018
Ni 1.9041216390575741 6.3903214975620655 0.28755400383367113 -0.06708625212553608 0.8941000958959054 1.1673312288457574
Ni 2.6316845765791888 1.5135580147173757 0.3130122920317812 0.3280269977438092 0.051022513794454064 0.32105930817672446
Ni 0.1020751794064753 0.11588616427277668 4.771164359542887 1.8895245391646105 -0.03128209794273322 0.9642945546331199
Ni 8.328481541247635 2.1424541626677587 1.2279520521643392 1.1409123725325965 0.18399097043509605 0.20575150204063916
Ni 6.621875456230294 0.8558079269764829 4.786225511956872 0.17173837831998812 -1.1779406289304875 0.3163912132770938
Ni 0.670069788319964 7.703889099629527 2.7963027086004493 1.8328461126359596 -1.1142580031698617 -0.0939995315766123
Ni 7.847076047940341 3.8409259697547524 3.902287905283006 -1.2036763431336948 0.08650348030988328 0.13185208364801165
Ni 7.682470654161925 3.9694639387950317 12.379461135499017 0.766685479193957 -0.7490597956923938 0.6954697782810797
Ni 7.982083224596366 8.931337081327042 6.94363528159791 -0.3870813807038043 0.4309107191839288 -0.08406478896140361
Ni 6.6979500622433035 0.6636497139266164 0.1476353246868172 0.9029475189842063 -0.12590692180817026 0.44305609629721115
Ni 1.820877222072403 6.611202628476047 9.588697742786705 -0.18593035354965398 0.41131891309493035 -0.2109253329320948
Ni 0.11674781541372058 4.79282756124799 1.5922521493837927 -0.3522473037437546 -1.2866985497631969 -0.9753171309958686
Ni 6.263430401346611 2.0569714544400086 6.856169956858949 0.2956753208859811 0.24701307979358747 0.7039366781015103
Ni 3.408034984193107 4.167006789069931 0.5133593754813258 0.3227102135165862 0.31909652802339883 -0.9533735368452421
Ni 6.051975570137147 5.514048673582298 4.985087680240609 0.2268162931307384 0.7990854927912173 -0.15198279295961567
Ni 5.0239538789064575 2.9154380346729205 9.319442224798358 0.7296237984549693 -0.04112736616792917 0.08323766507441795
P 0.17386336670249702 5.665906725771882 12.402525543916953 0.17954836128271015 0.31420860380347826 0.35927567134544575
P 4.0580675165195474 6.17708331235445 12.955737422010046 1.5055588212716522 0.06968100943590581 -0.5467504865640842
P 2.3436729058776242 8.417012329013042 1.3882237137523483 -0.100881089187794 0.5449013491704874 -0.3301766970969604
P 6.44109249404007 7.910958335802719 5.655940870495475 -0.8907532909108595 -0.43430508957745845 0.8117787719881697
P 4.7368975764181895 1.109337174299492 12.705299018325672 -0.11370163799122998 -0.4114089017055753 0.9141079064763998
P 4.24487384782598 6.297905545729256 8.136672720001489 -0.35989325032478664 0.7452465925938907 -0.8732659327593734
P 4.559317372428728 1.0507867509417943 3.6996306505062635 -0.7720086911790833 0.048518259315361606 0.5310438744621048
P 0.23425082665318928 5.5473682773641 3.5628119137429324 0.31809893999681993 0.7754537123048904 1.057159972605289
Ni 1.294696805168648 1.083059999061414 2.6941356318706 -0.32455549425544106 0.49446787511028395 -0.933084961799535
Ni 2.040102381416672 6.397609592217779 4.607778197579533 -0.4316645666308179 0.10797450569946566 1.12144860738103
Ni 5.839956616744595 5.6109594053900445 9.44937594130454 0.568532358325866 1.1685159931824778 -1.014015061786699
Ni 8.529036076080638 2.4117224188989486 10.184710116835449 0.6732155948685696 -0.5493642700378474 0.4046522997080321
Ni 2.3315533776861006 5.631704543735895 7.314991455478419 1.7048555688258833 -0.4961946279934036 -1.8631702175407978
Ni 0.7642618151550159 0.030736470107946997 9.240166680333566 -0.9023471663960458 0.21718056981318726 -0.3878971917368803
Ni 1.549761920628841 1.1898610665629923 11.404794484294674 -0.9340465543818559 0.5304406936604672 0.5910233403395305
Ni 4.382801721591224 6.766299833845949 1.686589756137061 -0.7504669604525656 -0.1870917208476068 -0.16343448643998304
Ni 5.791742367580269 7.94501493792049 7.889629967909514 -0.49348468526140815 0.050933039404441306 0.521658576592463
Ni 5.591378906389925 2.990402593809528 4.627807264702656 -0.2729495971536912 0.03379689394478696 -0.032811132992749945
Ni 0.6953078868917716 7.462954334981223 7.104450138255764 0.9785762613631147 0.8150368739141512 -0.9985735304206479
Ni 5.256563291981756 4.301049498767772 7.45073108109797 0.4969009100318087 1.3480579267072847 -0.93999351599391
Ni 8.119992900871832 7.34336043216637 9.016016370381134 0.30880645895130043 0.08773709560666826 0.6964910204567424
Ni 4.6473932229497095 0.4506326282197922 10.569449634572498 0.04208330232329526 -1.9724984090546807 -0.8710100468456612
Ni 8.178998261473957 7.229225776284635 4.527610976115663 -0.6234560069469391 -1.7070636322207953 0.33985381517540825
Ni 7.66069735764367 6.387100541871526 6.91293975584196 -0.5415411744490028 -1.4886047099158168 -0.5840489659042264
Ni 2.4377721255148135 5.293595183678078 2.4181552315351404 -0.15847225733870127 0.03136874411926856 0.9729969675031243
Ni 2.663794047290815 5.3910063464546925 11.618331108334633 -1.5901733120889388 -1.7128761251375146 -1.2915363374714726
Ni 1.0635522900204033 3.4687600075791636 3.8503913940622914 0.7746571845455239 -0.6005222809689013 -0.038626197012630245
Ni 3.282190243639833 2.904364862143578 3.086065887693056 1.0324552707697572 -1.1727318310360384 1.1955174614719863
Ni 1.0790292550757947 3.399227399141009 7.9486244100177705 0.4997237241925846 -0.062485263018414956 1.013875450885041
Ni 3.8212908782853026 2.4576619818411425 7.17561597140141 -0.5553125172014823 0.6531473633637849 -0.7314842487024757
Ni 4.029024322835356 7.131669033589804 6.027270658015808 1.0752859927820384 -1.4784588797310667 -0.44569841901606466
Ni 0.806475442065356 7.792410788650047 11.761355189111942 -0.012140492017275866 -0.7520582161990854 -0.6360695819458917
P 0.47063894848069443 5.595527934059095 8.131692067049505 -2.393491869124897 -0.023204720251237456 0.6207805169973051
P 8.705915676713683 1.6073296795385776 7.95259237266366 -0.005539698871306588 0.145121289953092 1.6188863637529154
P 2.0351071704728683 3.4885406789668303 10.39465182676995 -0.8347199541653753 -0.4893326107662475 0.4051222973659152
P 4.1356798104187185 5.949523702692287 3.8662787125121554 -0.6267025389086949 0.6346503330008618 -0.8461590492402523
P 6.855067188978459 4.035511727940879 10.326189230730686 0.9105068193887028 -0.8408052411275069 0.1531025083863557
P 6.336793581382837 7.653336473028848 10.193473118037593 -0.7907234939797673 1.274937809682843 0.06554744688350647
P 2.38508129386533 8.498527984469392 5.655888097775121 -1.4493511637318328 -0.9501537443563637 1.1691289441761286
P 6.981184891878388 3.723952505467796 1.685444224155595 -0.6835313749722809 1.572440156475234 0.0680810119386376
Ni 5.459510796720443 3.0807349330628653 0.25422439143249276 0.43634011772961623 -0.6951087953972351 0.3380087915468695
Ni 1.6295488145563706 1.1615275749801064 7.059345840094338 -0.5021953256615287 -0.18721950467472273 -0.17325507207483065
Ni 6.858069774791674 1.02591078241655 9.161770074625004 -0.14920651576605917 -1.026625808572174 -0.6078730649070176
Ni 2.830119103853164 1.7354855012935384 9.338325759940016 -0.766225765948719 -1.0203613157197007 -0.8353622157350645
Ni 6.250774047206663 1.52325727676855 2.4975508794324632 -0.0458067739214695 2.0932063031604144 -0.678456788662851
Ni 4.134751738440088 6.890470405339734 10.639830246034263 0.510355749985134 0.8549985019087534 -0.8569648816065047
Ni 8.589005903640945 7.104136231557109 0.8496589951808137 -0.6518399574062709 -0.5085940300990208 -1.375040883054032
Ni 7.735725607994498 3.8529181155178365 8.28997747262835 -0.010937729958426323 -0.03534521226851332 -0.1765219157515605
Ni 3.361212842996726 8.437684677399785 12.435671361671384 -1.7392271043272176 -0.06055256477207636 1.1669609899905322
Ni 0.212442045029869 4.6849710393393424 10.153748907728755 -0.24795821731567616 0.8946086601012077 0.8436141713312116
Ni 8.580234713568403 2.1809782485257996 5.878413371890461 0.02862640548744102 1.3797812259524946 -0.06839442941399834
Ni 3.7152268091196947 2.4437863958861326 11.393169017950598 -0.2208266512062068 2.1346766544900593 1.2671594512890048
Ni 1.1800617183180444 3.691206122613973 12.884745374891772 -0.5065152931931212 -0.6083086097825395 -0.9892486534752962
Ni 2.840564462985198 8.372701441405896 7.950555163683117 1.3907706350844629 -0.3862483432795477 0.5515332526647083
Ni 5.6581182001473005 7.5329600781535815 3.5366712196781824 0.2618298330914458 1.084269170117255 1.1361409192858822
Ni 3.1239357737936113 8.326725483484148 3.460458312742868 0.8909787766581042 0.025026346841008514 0.12443496524833408
Ni 3.4813708679946678 4.6939424017994344 9.277041163743315 -0.21437086827853405 -0.6875296974983967 0.7920195870833714
Ni 7.370947826668396 6.211740431634865 11.380091391922312 0.7578879355069851 -0.4341752488678135 0.511033749888765
Ni 0.4948070346536108 0.052290486874388385 0.3843655593221312 0.08408870022080357 1.1441730455617392 -0.16595879552373352
Ni 4.6066217471042 0.051760939921875866 1.4275084546830703 -0.4432155046932109 0.1917204778688698 -0.008704726862849526
Ni 6.227153705476037 5.697106321994656 0.4539436614847287 -0.32259965608065083 -0.2877843481736786 -1.2426609519270082
Ni 7.735452645647841 8.948843066492575 11.33148498685329 0.43286270070397703 0.2071077589582175 -0.21402993999934755
Ni 0.4134133023787668 4.646255879838642 5.9358364607564695 -0.7685137906519475 0.764454018760277 -0.15627576390801473
Ni 7.8139839127807535 8.913840194906397 2.7807220178533285 0.8308417021568916 0.34101903912810305 -0.44059066547585407
P 8.358006968410919 1.711856060818023 3.6574024656041018 0.6106524274243678 0.9748368489253404 -0.5974647250895001
P 1.8568991530860977 3.1529243750084714 1.6342010028178764 -1.7122567463859608 -0.2120604749778025 -0.4703103040274738
P 4.770362760118207 0.913923430328509 8.40275823527067 0.23903751778727864 -0.26390548467355196 -1.2358644978304651
P 8.511957731924866 1.73807864358677 12.343997867421479 0.23940364287744573 -0.4445079982523893 0.07819393200292339
P 6.650145256598961 7.781774355875354 1.5456966014126454 -2.261552367969402 -0.6513948994490524 -2.1153769257201827
P 2.208001520844737 3.2955290036464198 5.974708118669252 -1.6772023258849889 -0.9321593646614721 -0.2566079225708742
P 7.130113148213866 4.136189340132476 6.2238945350569645 -0.06955373982942215 -0.5101192084942957 -1.0386277181290564
P 2.511017021867489 8.56309267819841 10.38446396211826 0.027743231551539318 0.05384147130048792 -0.1122250534457035
