# total energy = -381164.80660339457 ev
CRYSTAL
PRIMVEC
9.31333840222116 0.00000000000000 0.00000000000000

0.00000000000000 9.31333840222116 0.00000000000000

0.00000000000000 0.00000000000000 13.63101215833132

PRIMCOORD
 96 1
Ni 1.0468564914912672 3.7682512304659856 2.9464385231620995 0.710368549769783 -0.4247583264292878 0.1417778274021558
Ni 2.378011951518017 3.128965054805479 5.2750655663869805 -0.43498668902551535 0.3326966353053367 -0.22606398834574618
Ni 5.811085445673202 8.910452710987567 11.491270057219433 -0.32108321943612445 -0.29698864038076594 0.019985441982991386
Ni 0.3903201504136926 9.188642129521108 0.14306032876498218 0.35329939915735287 0.43846359183052225 -0.41917748990740067
Ni 7.810454310485507 5.938259081765452 6.1636027554498805 0.5023351936735027 2.1217185516674943 0.933364954933799
Ni 0.9668735411609676 3.4687342669561536 0.5724741485203686 -0.6118559608141656 0.6541045850707315 -0.6703405873136197
Ni 1.5556721092596952 7.550835688756648 1.6757555008146305 -0.851260632132876 1.2582629201303233 0.021343755783098724
Ni 3.9136231298262145 7.729381699560348 2.0895117360223576 1.1639024056698664 -0.7952447788888884 -1.6250151023584722
Ni 3.4412040385937446 1.6928948375045292 9.154519920226726 -0.12653427097952402 -0.47238081340325744 -0.7797284284208442
Ni 0.8926154999559631 6.966973190019245 6.395561693412324 -1.1713547481828537 0.30941709595210587 0.017805917833169333
Ni 1.4908605872116567 3.9364128689340676 9.640164883346023 0.3978825850843664 0.4255599963949768 0.45246222010245946
Ni 6.691466012949971 7.803869780224267 4.99073586383472 -1.2169751171251297 -1.1190939911059243 1.7552808153559707
Ni 3.417920692549759 1.1436220776500716 6.1380171521490645 0.19455820442798105 0.1462893421192642 -0.2039782121903003
Ni 6.253338633771084 8.526296127938638 2.951495665922853 0.9062565287527811 0.8211154760080633 -2.641602809968354
Ni 6.029855765102492 1.0535900351671879 9.397232970059965 -0.30387662574985086 -0.3690065254799645 0.8750801031499768
Ni 7.494443424638114 7.234610596125652 11.198271499268076 0.9898402643127082 -0.5992963789816002 -0.6233770740798877
Ni 7.957120763885781 4.872012219688753 9.982862209095186 0.5669022789216108 -0.24365933283000618 -2.475389732341969
Ni 4.879369757038654 7.235635063351587 13.212280932072838 1.3979998058430503 -0.08765199209202969 -0.0009968166956305414
Ni 6.697379982845144 4.86153471396896 11.703273304954498 -1.8454121222264284 -0.551637125232424 1.9028233131560457
Ni 5.349218366867867 6.406515110725257 10.479004235944952 -0.00988871986862168 0.4035341269431889 0.2593294352670953
Ni 6.452429869123996 5.766157901146728 8.288827418968344 -0.5112911173152098 1.6251092047341753 1.7502550800066052
Ni 2.6209783241562166 1.529371241568409 3.2625146023784137 -0.5443606461756688 0.0880793094374354 1.087012022969715
Ni 8.928837241023897 5.4844852940450055 1.6451136860869038 0.4978123661024845 -1.2438822259286193 0.5624532420113216
Ni 6.009319853891696 3.8499105817114523 7.5187298172296755 -0.6194944511960299 -2.086400593092491 -1.1901024611040019
P 0.3907057226241811 5.148376223892446 8.1299176508843 0.6588030189876655 -0.6746389575786574 -0.6411662797425086
Ni 8.950053025939177 3.128480761207764 11.385984629076212 0.045454018567741075 0.303279101375168 0.44904291000826535
P 7.170478947782098 4.079074586814777 5.800976748154745 -0.04346629871375095 -2.896309658861773 0.2135414303987032
Ni 8.390004733535562 3.0615364846620965 8.223903205525453 0.2804088816452138 1.2097438894840133 0.46099442594318674
P -0.030329817890737524 9.014324374358996 6.898451233945638 0.914499999708496 -0.13641733442119086 0.6739866687066393
P 4.233499051116907 0.4670555396377772 2.3810928038665575 -0.7076976878058392 -0.06583181089314469 -1.942272006069971
P 7.774327870763659 0.8497014991953721 1.9773968368175159 -0.9370884265319731 -1.974465045862748 0.03889539151361688
Ni 1.4042931066201179 1.6275617685051054 12.150943130676053 0.04141224439819965 -0.8106202329036942 0.015084148026632088
Ni 5.615840619086756 2.1257322404622236 2.0421031181414357 0.8990345570830451 0.042334499102152895 0.29505799901695634
Ni 8.2525026051382 -0.01835845268876184 11.843154991317556 0.9941921135235007 0.5123815221659112 -0.036782201825356006
Ni 8.419853983163952 6.831240595921226 8.342083882041674 0.6892973309217807 1.6624220822520208 0.3828596293129729
Ni 6.52829632387372 6.36380414074217 2.1016023119560785 -0.3601387906766894 0.4635447031688662 -0.025184212575111466
Ni 3.121104597181029 7.714368598031186 6.222434182899981 0.5678618146214027 1.205766392893504 0.5280606234640648
Ni 4.868175124260705 0.30398736595027726 13.696168468232733 -0.22609355603210093 1.8978780533356283 0.5209893184395802
Ni 1.3051991858569147 8.209055881420124 11.755003311861184 0.45467002638705567 0.1467724524032698 -0.9628259405073935
Ni 6.8951766641580114 2.2106326334770126 4.705016611190554 -0.16710473620271868 0.4651961227293602 -0.9672582652471342
Ni 8.228995738972193 1.0508891670260856 9.66073432257512 0.16264978575515857 1.9918976395168988 0.36123999416066815
Ni 6.296179990492017 3.480394566654981 9.74481048513995 -0.4802077656468439 -1.7152273989785105 0.3493291016556952
Ni 2.061460892042405 9.366051913037861 7.9462669992939166 -1.6483715176962257 0.046686091202629273 -0.5302725435137191
Ni 8.247985636005668 1.6204184379388107 6.437627249043072 0.45559202398069276 -0.3934222353201676 1.0727390579904688
Ni 7.184337195347478 8.641762897639971 7.135535302039284 -0.6684726808669456 0.3339834724375603 1.2478975177355993
Ni 8.24670039530404 6.462963254874296 3.865646398301819 -1.2411684265418819 3.189869218956332 -1.3331478423646719
Ni 5.072453889112218 6.1425564732938005 6.479719813355231 -0.1291133445606099 0.30209305148686677 0.8493932399068339
Ni 8.119396372473943 2.960551956200122 2.2430784418562277 -0.45562519121147343 0.2481050273061856 -0.23649726786392816
Ni 0.5580403366407809 1.4556375413163152 1.8550307460164281 0.334206901302276 -0.30572190648870573 1.5059149190594905
Ni 5.139863832578765 0.6657025287481708 4.259214109821727 -0.6843016774794021 1.4234169603645743 1.1904598444434207
Ni 8.279539226564477 1.8115095155910101 0.10968504921169132 0.6997375524184981 0.14245017087883208 -0.52542370006185
Ni 2.440914239190449 3.836452807698028 12.155373485761302 -0.14150169092263373 0.1416839821367689 0.5049353503005111
Ni 4.737807013091221 3.3797639450528756 5.007038862734719 0.7483928515323564 -1.6021430828563052 0.4744536367718861
Ni 8.292931807208978 4.38783969537328 3.9845497898792455 0.29604196019678053 -2.339715703844706 0.42203527107116995
Ni 0.289397089985274 6.8652435944838635 13.403237897651824 2.077572196167583 -0.5083533748431245 -1.0322490682962222
Ni 0.4194532043177693 6.048398621891922 10.24639057029175 2.6030051522008137 2.1765704665103676 0.865754969094309
P 6.477780776296688 8.186023995513413 9.336262268775345 0.7044457565274448 -0.512775158059904 0.09806933077061175
Ni 6.797135150635997 8.675188469220718 13.846109491420634 1.476791776441289 0.5932566005454234 0.029934325665587156
P 8.82464892414627 5.404837623897739 12.048819580925606 -0.4807957769398301 -1.130080829134731 0.39791729497704376
Ni 2.7917104440275553 5.380604317335159 6.8445670518629615 -1.1955537140265604 0.5978614463072865 -0.812471170069504
P 1.3892706917525384 1.7571941259396004 9.929974554223195 -1.2162503231439632 -0.6280328276843443 0.12651653036771116
P 5.156702348437776 9.034115218496384 6.148145407678198 -0.3302152636443797 -0.8342869803930149 0.8683389277714013
P 6.38207691071749 4.268051536646182 2.371850246820937 -0.16658074537844858 -0.356920797960024 0.21803880404842446
Ni 8.209204894834805 9.344444967909041 4.632213313446377 0.5533978166772728 -0.38891920524349155 -0.5545681828362902
Ni 5.207776696319862 1.5928416428843142 7.4403385164349425 0.9571013793187904 0.628756079003614 -1.1285677349243144
Ni 2.7617494343381543 6.36430706101672 13.115691368010125 -2.7637250679231116 1.0463615964382045 1.9656212223188727
Ni 6.758009815943683 1.7538599507861017 12.164124298538473 -1.4226613131454724 0.7083044681519026 -1.2686095534719701
Ni 6.14236089318703 5.4510783491410955 4.458608960007053 -0.23132883628911127 -0.9245964647125495 -1.3233344558186757
Ni 4.200064166197744 3.933488480670943 10.591527990706327 -0.22846128493332912 1.6170097155554926 -0.3028206736815107
Ni 2.553978167580044 5.761016938340216 2.412430324974079 1.0180038712311177 -1.3294148576848006 0.30820970590756597
Ni 4.419421225947342 1.707386392082306 11.067250523075517 0.9389789586864667 -0.4851319424213387 2.8351521135158464
Ni 1.4145098388642188 0.5352608422051871 5.402501838622607 -1.042887778956991 -0.9140626550607613 0.2690430630104334
Ni 2.5296517276332873 1.7534781039109801 0.7965530708476869 1.536813922631192 0.30389488058229597 -0.3750663585207992
Ni 4.772583018742517 2.7136739814265325 13.42859159882604 -0.9790871395612621 0.8013071830328845 -0.4656928598601206
Ni 3.630944682175393 3.650865913050627 7.859477861248038 1.7716204330562586 -0.5758579454530018 0.7500638114768758
Ni 2.9551222799026644 6.5560500723581505 10.849590353585606 -0.02938899468507842 0.14084631672682194 -1.0541299275297136
Ni 7.467676890025949 6.431214084208717 -0.0665279703184012 -2.261515858304511 -1.107376702668996 -0.6548481481049754
Ni 4.727888307676482 5.086628790183797 1.1113159693471206 -0.16429426333711705 0.47858154289733057 -0.20286055364608932
Ni 4.532568974382695 7.154804599225287 4.410313712308777 -0.29049403379535776 1.026504195392645 -1.5050816245249177
Ni 3.467113746071492 3.611451864867368 2.3743993075458323 0.03768645880718026 -0.7026228443860931 0.37885205081547657
Ni -0.007511207433789785 1.9579990155613505 4.343208315008485 0.9247592155426589 2.4170681137829404 -1.2549852778203159
Ni 2.8229846344338365 8.990603301409383 13.444785631666553 -1.2506329143888912 -1.272889926014879 -0.2934335760396559
Ni 1.9077069881063413 7.0355752408032455 8.590686687090201 0.861634262057716 -0.5852635550376178 0.07705776151595116
Ni 1.0730549124599598 5.856674237227326 4.2299488065121205 1.3559596980528645 -0.5691247404942263 0.5545635548505997
Ni 0.3313127008674988 8.76232406345573 9.569051956524637 1.0144570344201238 -1.0252572103594213 0.0005818406453989979
Ni 1.7343485068012414 2.4447606479569153 7.773657310397591 -1.8385850720022658 -0.23514075383603375 -1.559826067255649
Ni 8.46926124346929 7.765554705974285 1.5447345246220725 -0.09941144662080299 1.333048083562014 2.5547023513303677
Ni 0.31341898376577493 4.234663218419106 6.08564731889309 0.06825327585044373 -0.20892861421704018 0.712287878279683
P 3.866777037585715 5.210309924369448 4.802750784544788 -2.0308290264747737 0.11046616177306783 -0.17449100136446077
Ni 6.804148094464445 3.814063542142131 0.16340159120284983 0.7060051305947648 -0.03021303324827055 0.8713664017438154
P 3.7152303948546215 8.957969363594133 10.850299098639184 -1.0919097173816485 -0.6007693639827008 0.2737237563155544
Ni 2.5913060279577613 8.31363535851129 3.899845908305067 -1.2034202612588307 0.5137660612182636 -0.07411359128596269
P 4.211351932359868 6.310643605054541 8.675675556819957 -1.4287018629125974 -0.257461271710105 -1.0340676095621997
P 4.319563611433896 5.176260359114724 12.651883389478565 1.1854850169366487 -2.2564291878102236 -2.315292280695019
P 0.39703320474509457 7.9125564395575925 3.886160888834254 1.7351830161648312 0.9937930783128691 -0.6167677962934862
Ni 4.265499681919762 8.76948602069886 8.31754789198052 0.7548897721106096 -1.1968269243120293 0.5682006860180602
