# total energy = -340891.7743245566 ev
CRYSTAL
PRIMVEC
9.07310393019908 0.00000000000000 0.00000000000000
0.00000000000000 9.07310393019908 0.00000000000000
0.00000000000000 0.00000000000000 13.27940472524657
PRIMCOORD
 96 1
Ni 6.447991989490379 2.2478071110884 11.743163533244465 1.1278146588083737 -0.18461189184854657 -0.7876435695028629
Ni 4.7038691814121885 0.30251271617385733 5.841889579681712 -0.24974487690245373 -0.46281939496706737 0.5000883066208548
Ni 2.4843701552283504 1.383693746272509 4.635946109228685 1.0803425813693395 -0.25875042283517374 0.6541326100951895
Ni 3.4521618810072 4.05082343811387 4.922170788857455 -0.7083286365216188 0.8204683293423676 -0.6423615856021906
Ni 5.107513438218008 4.353747165905092 2.634182528792022 -0.7866891760093936 0.7420627955492705 0.3734967000408342
Ni 7.294449093657463 6.373728632136584 2.904285209681397 -0.8159799545537108 0.4171730578828622 -1.7122721730049286
Ni 5.228902498454589 4.714130862190093 11.492369325267076 -0.04963643208020484 0.15292150272380114 0.805103159740207
Ni 5.12614959411351 7.982353703046591 12.744324321414979 2.5292353174075153 -0.4087251842258251 -0.049080302466418695
Ni 1.7998588867861145 6.633673065635206 0.4647715739914004 0.3413463405605347 -0.31838484666835487 -0.5641702247024284
Ni 2.8371959557679984 1.5494865781510543 0.2979444082413423 0.5093609901720324 0.11075849620250604 -0.2335898644091461
Ni 0.32611095272138146 -0.011554598117294777 4.5684875799769475 0.6604793782488237 0.09926283685808066 0.5571318297984083
Ni 8.247161320362151 2.5826046537096623 1.2316276136414352 1.7437602163108807 -1.0528574885751933 0.11395951963830696
Ni 7.001868704581369 0.7514979962788964 4.864272589433904 -0.4330123389079639 -0.46699589494226024 -0.03592962401707361
Ni 0.8203301934968353 7.473806216219444 2.4523076198322795 -0.451837442034267 0.4635241343435759 0.7842116610031784
Ni 7.3324200344669475 4.135393841766249 3.651185864094543 1.484163900535644 -1.3055061693880032 0.24823461090551444
Ni 7.852708118046179 4.1643733363768805 12.539675921073682 -0.8640428714992086 -0.7868102749682901 -0.3749349751492575
Ni 8.051971631082715 8.927553399526609 7.119142204781826 -0.3905605975016564 -0.46334081468817623 -0.24178319885321584
Ni 7.253647344357522 0.18877591196564342 0.2380111115600683 -0.837942060647099 1.6069307340529357 -0.418242379687641
Ni 1.7766861788225725 6.531872837228415 9.167981586028526 1.8839750701012907 0.2045901347426864 1.0443157696527694
Ni -0.1447468595244998 4.999815692122766 1.3057639475373253 0.5273684824930467 -0.0791066736251799 0.7326492155448543
Ni 6.474458234255317 1.8529365459821683 7.069955092639322 -0.08817701135756427 0.6002289180981986 -0.4089763810046828
Ni 3.277350383617393 4.176513149710952 0.3563497941861008 0.6372664304674702 0.38339698987368165 0.2150236713711845
Ni 5.9995719637730165 5.676841649652737 5.023174398721098 -0.6917439926900603 0.5996182810973931 -0.581318968567573
Ni 5.373872556340836 2.8014569985759894 9.586349676226373 -0.2825922624497778 1.15135285113963 -1.5665189058947924
P 0.25035506973720184 5.641120838669001 12.383682948972515 0.3059427642502602 1.3356564677191383 0.8105919507689202
P 3.8347474631131826 6.167887118601392 12.772091649313031 0.7070582544496274 -0.14416201136361623 -0.0822228506566584
P 2.5842559586624283 8.738451763122479 1.471809919021267 -0.2131665635577877 -1.0326347337704151 0.08239537167878068
P 6.422541932388681 7.686316461294653 6.037003054886405 -0.9581449900919564 1.209119368526137 -0.9432091947177305
P 4.821129979266854 1.096530000365654 12.517326143655284 -0.6954618078612796 -1.269153856011214 0.029126742162627253
P 4.123072566349455 6.147409122566264 8.208013597946218 -0.7583386498911585 -0.5093440208911679 -0.13418613109782696
P 4.648105883391855 0.9831343448729566 3.7006778325360186 0.2560260819254752 0.7913575280193403 0.6730888394827182
P 0.07164123025846846 5.62608670511552 3.627574925201228 1.7987350298848637 -0.3945568631452431 -1.0586396424746092
Ni 1.3443618398426127 1.1291024442141724 2.5075365120189974 -0.5697307495093414 0.24051358811217288 -0.36092554824404294
Ni 1.7938071263273507 6.457491529520851 5.003878628154902 0.7124899669881599 0.978646709589734 -1.502669158428683
Ni 5.944153443709855 5.505359981480873 9.238348952466291 0.4152503869388526 0.5285247075846768 -0.5219804787082558
Ni 8.79276336448104 2.484724006289657 10.196975935757287 -0.16404718032331747 0.43924572141218543 0.5965692098584242
Ni 2.4001354564290063 5.126748418986492 6.91592735489403 -0.32947530015456156 -0.5261518364771262 0.9137127279205103
Ni 0.5786508259345507 9.197587124824548 9.12806355707144 0.5110250081380168 -1.0687546194214237 0.5695898530561029
Ni 1.2490125884765737 1.0133931471667752 11.388218255578629 1.432255898812443 0.8147437681537646 -0.13249665921054601
Ni 4.098085237558698 6.858749559938882 1.800767104510136 0.32165734677203955 0.28229787113781063 -0.652263932317567
Ni 5.619980506031941 8.027329080249128 8.140594083042267 0.015307319781031703 -0.10188356231037937 -0.4741849564915317
Ni 5.337997502586785 2.77119819628217 5.006029861145565 0.3870075900430754 -0.6584687755766981 -0.5571264304817696
Ni 0.8675520712834645 7.326486224361952 7.173335855786617 -0.40687193306717023 0.44789414111580284 -0.9797309437928483
Ni 5.3065319774428685 4.197145388516392 7.269770250407332 -0.7730327615682235 0.6546928534740337 -0.14152380240982076
Ni 8.471412162189445 6.992632284570843 9.294481525824962 -0.11523967190231121 1.869587433921051 -0.3368836768034908
Ni 4.804952634592229 0.09005690972346508 10.294195153885774 -0.7523222684937495 0.03380589280585145 0.5211397279745155
Ni 8.225449382164518 7.004608782030465 4.9811713704335405 0.033172115876594487 1.508087758341093 0.727744064933753
Ni 7.543950384295459 6.29765972705971 7.276065170056943 -1.0729910261002746 -0.9759876747003322 -0.6690285533704154
Ni 2.1942757966855426 5.411099502611162 2.5982221878590925 -0.27942209225191234 -1.1258109981147837 0.37458299112647747
Ni 2.222202811216389 5.273152027326239 11.567716011254719 0.27613390841894375 -0.4683783771120837 -0.8169497746661478
Ni 1.105521446564507 3.235913517027927 3.7962103606056066 -0.772536024437463 1.3291749737598528 -0.5780287278520755
Ni 3.4948689821757166 2.5246002989677185 2.543975005539898 0.7342543552484452 0.2730035903200782 0.45486465889636496
Ni 1.164369599991106 3.4015158137196146 8.29410374654139 0.1180822835574289 -0.9007587388630036 -0.28875596805832854
Ni 3.589891601792857 2.538926730398585 7.0531698499875795 -1.1150686719966152 0.8245026473127414 -1.1429957374241866
Ni 4.067182244871217 6.690878987213175 6.121938197325054 0.5101775725360569 0.8393427976493674 -0.9632920815105347
Ni 0.7358178577109271 7.554184845760955 11.377807775892894 0.11497973337270521 -0.2999101849029351 0.10689412815109332
P 0.26972614706772746 5.336981314923545 8.043428396228185 0.9649491574979834 0.8288362416910886 -1.0197573635871147
P 8.615692664161351 1.7405026395278953 8.127208532510311 -1.0314702811486687 0.04316599386451275 -0.40198143774408834
P 2.0862241995289947 3.1655243751402375 10.596500095974914 -1.9137720988580655 0.7020857409357005 -0.37635910919029375
P 3.9405398573398465 6.021946238572585 3.9219263842046836 0.037657662451773856 -0.09532699213878422 -0.21628582591305978
P 7.104122588194963 4.037467828825564 10.40295354585452 -0.6371957251305349 0.0844198583079772 0.42222733247731803
P 6.748638368143444 7.963744766463496 10.04362595889096 -1.7972391620656274 0.17182373894494282 0.06367876910588387
P 2.2650641551552195 8.535921932596956 5.736689659155133 -0.11897419924407897 -0.8424206652437427 -0.3541404070014094
P 6.775567341219323 4.066846540018183 1.3030202408465754 0.5580815953061872 0.8257532318903908 1.1874794216588582
Ni 5.327835625954378 2.7630233294555646 0.5527516501781173 -1.2247637599316132 0.012749586356184494 0.011105622994858294
Ni 1.3134860664675407 0.9647794552056717 7.013757192930872 0.9134823570772591 0.8381881152196338 -0.5603799044220606
Ni 6.735373489896499 1.0889721046203014 9.318092464718276 1.5703598769074374 -1.1005167423243691 -0.5139743205743277
Ni 2.8856009663339726 1.5716068060348114 9.302993004815015 -0.4796655199901287 -0.4909662897149286 -0.22516795889403804
Ni 6.423104464845117 1.990811436434003 2.6172112875054894 -0.9602136996955268 0.41985960357608987 0.767829105880097
Ni 4.138968644795863 6.642065686961077 10.369781369822608 -0.5798539539862724 1.0972401284556264 0.6019255890743311
Ni 8.234250293176514 7.2001432492670725 0.4592496828141836 0.48641029491313004 -0.5389937254368007 -0.283200328347422
Ni 7.597608722156223 3.861494974106339 8.228503389016721 0.793138531179163 -0.5181042835823013 -0.27602900740996333
Ni 2.9840532193145504 8.375083015576708 12.41014828642704 -1.2148069058292175 0.27034995474731505 -0.497881014556891
Ni 0.10154073762849845 5.0428222057277745 10.167695214089338 0.024557634734706096 -2.1669802517187713 1.6155601275931597
Ni 8.636597096090872 2.2539133101719804 5.813072493635115 0.037265569219677754 1.139815797034308 -0.13119850922441276
Ni 3.9876111215978174 2.775371824184766 11.33928428304152 -0.8159455017713497 -0.838028192603002 1.509461241649852
Ni 1.1401534850519148 3.125575497629088 12.74342154755344 -0.6312662470199774 0.541267609072642 -0.5389371611672524
Ni 3.1052154519477297 8.190817343677109 7.746275162667508 0.13096016796136156 0.9424967420317382 1.2757003988804803
Ni 5.688591319508959 8.075824821856463 3.70925645249668 -0.13975565476580448 -0.410876426240873 0.15995886918655677
Ni 3.1578757483535242 8.235611258796926 3.6183856853322087 -0.45023950141952784 -0.07112956895697427 0.4456202574799616
Ni 3.441600787792806 4.188789059607065 9.000966607022853 -0.15016065214921237 0.40133840484345074 1.082746819935458
Ni 7.141875774505182 6.255242965223547 11.231773442891482 0.5110694882227069 0.19774225858291752 1.4529450517306783
Ni 0.8253213080820916 9.089435723522504 0.2157729333225422 -1.2388770594045437 -0.4120599050260129 0.48643163506936876
Ni 4.794409687586106 0.4366885020694132 1.554566609156844 -0.33806869825052743 -0.6645664038340038 -0.3733385771964151
Ni 6.016928811985333 5.829650869512556 0.4524330596767486 -0.4785522323212919 0.40514955105942485 -0.3479797867166523
Ni 8.078828019325504 9.262278357314782 11.056485607534533 0.07270874051863606 -0.7558711621872725 0.4983312147204321
Ni 0.16549251213164115 4.993056229541389 5.727885118901483 -0.8437560962257147 -2.3033237954792334 0.7301596163537812
Ni 7.937686811384682 9.133621740665202 2.6011827417386946 0.19699972398993815 -1.5674663574097263 -0.5427521640379684
P 8.444437823592885 1.9073842439027697 3.485843965491561 -0.07671297658202272 -0.30123456014131345 1.0674377003822133
P 1.7036204712147398 3.2223492263444915 1.5806744663084071 -0.41198457170338726 0.5549921577475861 -0.07061226300092356
P 4.6372725970533795 1.0877200162495226 8.075259567468786 1.434035102200053 -1.1961414682092304 0.8348762772375814
P 8.462094084241693 1.692015971024697 12.513023677673953 0.9085854339962739 0.506014956517935 -0.07182273836925696
P 6.309717882456557 7.817731301601601 1.5401058957847638 -0.08528811984554344 -0.6877590399003832 -0.21378748497123826
P 1.6839227621353157 3.0112180930979666 5.883360924066895 0.4979576334310973 0.7679484050667806 1.3676877851230704
P 6.935916310616222 4.026806931465672 5.9503285983848695 1.2530006432901195 -1.1987961322232579 0.12025640839061226
P 2.534390178330546 8.65429872226036 10.250399280220927 -0.3211888917760533 -1.0792979421549092 -0.6205658298833376
