# total energy = -381166.6518878802 ev
CRYSTAL
PRIMVEC
9.31851711816488 0.00000000000000 0.00000000000000

0.00000000000000 9.31851711816488 0.00000000000000

0.00000000000000 0.00000000000000 13.63859173258504

PRIMCOORD
 96 1
Ni 9.015534685780942 4.175897680384344 9.543413761130862 -0.564735353177279 0.5245544100830192 -0.46642536715077093
Ni 3.4443288705239388 3.74275437571175 12.56951640890897 -0.544282998860198 1.2712212800632043 -0.3224811282249156
Ni 6.4284348261309185 7.382893242816844 1.264326128831429 0.8152011674061573 -1.3305343160012246 0.7339604781571101
Ni 2.215020796522963 4.5613022227438345 10.143716350183194 0.939653359045672 -0.35150914002614947 1.088787626812899
Ni 1.864020218727201 1.4454138004899848 4.938015384348019 -0.713959609555151 -0.06209394111726726 -0.23012658845089398
Ni 6.511649182456512 4.976106686067183 1.0143923221259388 0.13797825115040754 0.5064893250511923 -0.9973728252443274
Ni 5.1750104302743285 2.805535215375472 7.330811119755323 -1.1464214752762838 0.8707686202588165 -2.2373739709509852
Ni 2.6953157969410793 7.151001948621724 2.1662588610492155 -0.35200844826007116 0.3056316607677446 0.10158839966746373
Ni 8.603041214660141 1.1392352892033053 3.5307450692720943 -0.13099230675087764 0.30273531305655604 1.0766476490162553
Ni 6.352638009294146 1.802238451376844 8.794423051988673 2.1138178087631787 -1.9257935487989735 2.064933938578282
Ni 1.0834453282490688 7.151439918918175 12.059160804675544 -0.8843234761251157 0.9595598681616119 0.21619352330956962
Ni 4.550436831985084 1.5225618022838925 13.485389642477609 1.637817396329463 -0.8698957307355599 -0.9451742888639013
Ni 3.2435986969954254 0.22136043819472084 6.6524817927611 1.3301059702145543 0.47165370542924573 0.5079731086855703
Ni 4.668716767577555 5.619829836679954 10.73898600823312 -1.7943507847742388 0.25959143067923035 -0.8648088031309558
Ni 3.2524512880938925 8.368261180211839 13.489044364823732 0.572077395364647 -2.1560911156100935 -1.0328357940376278
Ni 8.635152824055213 7.639953851282447 4.089872859347911 -3.24649339520828 -0.7099530594989192 0.8115882532439183
Ni 4.6503872447452546 3.246291748392749 9.464200775981777 -2.6036980645027805 0.5247755249548898 0.16089475073726484
Ni 5.572743370553053 2.93315230494759 11.616575046781817 0.06371219344698059 -0.3251784725514206 1.2092427814778788
Ni 5.914630438775867 0.6451451562986934 5.94461183519714 0.3797192839117783 0.9390419507139183 -0.2382121936725059
Ni 6.197316968842298 5.337068758477957 12.22688851858897 -0.13593525257844977 -1.2756109244904674 2.347863272652505
Ni 7.680358940759242 9.000364140193252 8.229362162173496 -0.18702667193762626 1.6496966642655524 0.3861028188406189
Ni 1.2619042462772272 2.763778940941543 13.200819840136441 -0.1759326189069938 -0.07846312650391003 -0.7395192031918102
Ni 4.3878566668324925 2.6039850123557327 5.122573271717174 0.9576235703708477 -0.5001173600865774 -0.05539621738211751
Ni 2.7764987165724992 2.6993507147785913 6.870945104037386 0.454676711255275 -0.5319699858207999 -0.603507074628838
P 4.122866000446051 4.6436313199595824 6.280026261549431 -0.8582861715210895 0.14130834396490502 0.521170838322767
Ni 8.351357390472238 5.867981942945416 13.505901561978606 0.3440544835203172 -0.047943874869130335 0.8389350206879874
P 0.8322087928745621 8.83794238982874 0.3728254763344155 -0.5968044657976819 -0.7624097346367386 -0.10399058135105316
Ni 2.9526373238811643 8.458958305644874 4.274675823712739 2.191235267611394 0.07845798429758746 0.5369296438189205
P 0.6655228891556708 8.48956963381168 8.414288130962008 -0.09810275511170846 0.8889843719358947 -0.2528857365242806
P 5.314145206791399 8.799503507427499 7.561425777128873 -0.8532982313881949 -0.3479149949169879 1.2806487440246914
P 5.970122207187839 6.120290107768684 3.2865598556704407 0.2811043650503417 -0.8131049469987609 -0.5217120555382175
Ni 3.4489508549290333 5.878045941246832 4.491706878934462 0.2910601907114729 -0.585673645991843 -1.1587596851266624
Ni 4.337797593799896 7.193690074750229 6.138239435109599 0.06088423707988224 0.47513395066836234 1.813124208727
Ni 1.6494706845681328 4.204673260712837 8.011895000358711 -0.7001777252797103 -0.24088485540866256 -0.7412786090850781
Ni 5.6441604844253215 5.281558353032094 8.109561444615476 2.534021683052565 -0.4716202810881491 -0.0865243062454897
Ni 1.9338159106509079 6.2581389289472416 6.5557984520421115 0.17159645342548513 0.7914205200467919 0.12555750888855152
Ni 8.072621911590808 3.32404545378813 12.924706591923547 0.30977139396773107 1.6229682471317728 -0.40418693003583944
Ni -0.03517274221175311 1.391161394831798 7.3582112869826215 0.9545960963984333 0.9069841509474251 0.07591516327107571
Ni 8.055755395918991 5.157333203628231 2.98037295771851 -0.8032262544324682 0.9810370641987814 -0.26200492521672947
Ni 8.068326075278815 8.753842774393298 1.968062392278253 1.347976422737072 0.22195485127337905 -0.34777152736058814
Ni 6.360428289460796 7.656624678098403 11.656385614877472 -2.075662894960012 -0.7793828721559675 1.1504989877797671
Ni 0.9523524318561842 8.836442108600473 3.3353581333602773 1.0907882021826956 1.4369234794914414 -1.8560395200332873
Ni 2.5763090170268392 0.9026577128361662 0.5845962287402596 -3.284097321603983 2.0894895164304597 2.8370647571575267
Ni 7.2546704496432515 3.056883572953328 1.978046251333935 0.30388973837597344 -0.6216919730679809 0.28194563000471445
Ni 4.300998770381108 1.8960386429528162 2.080757740665133 0.09224089701429275 0.37792336835362006 1.390811001404095
Ni 8.087373123915938 8.507750060372848 10.651126371210069 0.7904694689874322 0.29545806266885244 -1.7015553008080566
Ni 6.781494796171692 7.250812583627709 6.646017537555831 -1.8546999752862574 0.6594195695257418 -0.09818065953749543
Ni -0.3856924845331143 7.218207092834511 6.917629942083925 1.9379093582259013 -0.6353221622569059 0.17690166768848245
Ni 9.443385072828349 4.062966573518737 1.2549097674577432 0.012848573827894 0.11875025615873099 -0.4177446141156161
Ni 0.20292095686246042 6.830025632425186 1.6793607595233373 0.5292438451388886 0.5463815332604397 0.2526949606697132
Ni 6.480553291408527 0.8983404439351979 2.639722456694398 -0.22022989816247232 0.15981668718173767 -0.19178038457252777
Ni 5.394871519092478 0.4805028033460063 11.596662307920433 -0.6692460686978603 -1.063138044565595 -1.4984517779132256
Ni 6.036358225638268 7.878694255432696 4.509095231555241 -0.13608360523085597 0.6146330093386705 -1.0930582291637951
Ni 1.6931652105267792 9.009850390444031 10.347421926172485 -1.5022169013826128 -0.1663218352901071 -1.5795070906243445
Ni 8.241277749792031 -0.04012460211672743 6.020047093576418 -0.26531907719162695 0.07436941605051063 -2.200328488161914
Ni 0.665401748435376 2.286596325183309 10.753988820515787 0.12090406927694015 1.0071157635637042 -0.04721522423322191
P 4.955568674718738 3.4360726645099997 0.46651477755873316 0.7576925316667273 1.7286177042424873 0.4186928369614983
Ni 2.8866529053882712 3.239806060598503 3.646167947568997 -0.5378074184381834 -0.6456834508865719 -0.6191815479413013
P 8.001214116235484 5.46763981792188 7.704208753030208 0.16379932597856953 -2.366026830935409 -0.5638148982455387
Ni 5.021403996940499 4.1724777846652525 2.5225663342455853 -1.1316725991018832 0.4987083955541927 1.9134183150630726
P 7.694057160669502 1.9731120966111577 10.856755289096965 0.12242770501031819 0.3439683515644141 -0.5830637191728216
P 8.676704091116337 3.01477319487546 5.5528296998399735 1.0331708087795433 -1.3407374817864717 -0.12766915591491562
P 1.1602765004668207 6.809422391458121 4.341395473192652 2.1723931952042266 -1.4556228556731576 0.2748324159987009
Ni 7.109916607407889 1.3430685288747553 12.853459075059689 -0.08759002850584269 -1.1218910942350873 1.0595084182328074
Ni 1.738630254705119 4.339819711977125 5.3609344122277305 -0.5486096512600099 -1.0259547506470783 -0.055789596165794236
Ni 2.6917188494000177 3.5479600974776826 1.3595529853517963 0.38095187076729875 -0.719338100258245 -1.039382336906894
Ni 5.323286671915185 7.641631184332683 9.457994643695903 -1.1623152636884049 0.5108584006531655 -0.8461773040726975
Ni 0.9892258034105377 6.261614735768009 8.902863565538121 -1.3958809597278345 0.3226510781438766 0.6853283189717037
Ni 0.1850210176613592 3.3174199882396986 3.6139268107883784 0.3322567195544407 0.397227982219503 -0.1349903721666772
Ni 1.3260995095165349 8.49505824029273 5.93633326474253 -0.922389943979534 0.5767632308760906 0.41665832302997274
Ni 2.144488941760542 1.6909846775614723 8.870908507227737 -0.8461734474179556 0.3217159679241169 -0.034863130425772215
Ni 4.133759346755639 0.6681348694555661 9.301710068591863 0.8935591357907707 -0.757655764891521 -0.12545337921051944
Ni 0.567480908665991 4.807432210832069 11.796822188211866 0.47781149750052543 -0.7666967920478667 0.7481138868393568
Ni 4.431989163087589 6.499348740088116 0.5523495008494737 -0.5638521792413773 -1.2283262804718909 -0.2817425128549728
Ni 8.665130493069709 5.228135295382079 5.28251256916734 0.2803597735748333 0.23202637657676817 0.9508150320894463
Ni 8.127796850426625 8.433556028450745 13.106181913887045 -0.9681167565926876 -1.7525359056209817 1.6782477364303678
Ni 6.581798978024158 4.163047445516148 10.040744874229208 2.3967864807157686 0.8437995478691404 -0.3601647588186184
Ni 2.8049761043587265 7.626814742388932 8.612074584987356 -0.03426817715425066 3.3039899467628513 -0.31583919742836575
Ni 4.461491587737851 8.816752082294093 2.323265621216551 0.11948147789780068 -1.1485125534773575 -1.2140268331300832
Ni 7.472257820326636 3.300078228203648 7.214910201539103 0.26655552070188937 0.9571759413104677 0.8215659332819206
Ni 6.1621022933042875 5.178765792603468 5.718170009711899 -0.518841675968958 0.21024579036656696 -0.8968601751395457
Ni 3.6051851100415657 5.700966163726645 8.345031049317766 -1.6704233552899426 -2.0553334393740412 -0.18258252012334364
Ni 0.10306652482683112 0.3935246980260216 11.912587056080676 1.7562784033825494 1.8629832983409722 1.1274505906007357
Ni 8.014399817713729 6.06150890287486 11.341252940657615 1.3713387516120965 0.7079758811678903 -2.6688341348804814
Ni 8.896052661502468 1.639155086309182 0.9521110822672892 0.6616687705712346 -0.7966303463825055 0.31271710685961623
Ni 7.335396761944329 6.9194927136213815 8.977534705527846 0.9210398577095429 -1.2054218650698918 1.9825956453896825
Ni 1.902403190026767 5.615049437486782 0.4313150116478373 -0.3206695289374735 -0.30716892334787743 -0.41849460490776313
Ni 3.572616893316151 7.9308313577441965 10.962754351206623 0.5369769521170882 -0.6264611123218501 1.0787991481416195
P 4.823758252521031 0.7693945338466154 4.003008439934664 -0.6043462827006818 -0.49761567671064627 0.6531720459541331
Ni 2.8983662811890856 0.9422604780039313 11.822203964668713 -0.4354975672236629 -1.6951681663347904 1.3220321920674845
P 2.968590624892297 6.208965115024491 12.338778747111737 1.5123449909555502 -0.1709372225749314 -0.8844605159236123
Ni 1.7664367092712525 5.041336304687469 2.8268979154736162 -1.3589578614492404 1.8262818291548804 0.9361036940212007
P 5.713667302323709 8.973470900287804 13.820667086630797 -0.3738656533444787 0.5108709990586556 -1.12334865261722
P 1.319203806976676 1.7382668325442345 2.5218981965805747 0.3289903900983431 0.02222898660152946 0.28592595480870114
P 3.0556814842673257 2.5649404263530178 10.753824814617541 -0.046586332399971384 1.9909476168988032 -2.050181719969772
Ni 6.7365609074592605 3.2642298935133276 4.513760081138286 0.6726152422804094 -0.9069496981650638 -0.830822161772866
