# total energy = -340864.111987515 ev
CRYSTAL
PRIMVEC
9.32903093084384 0.00000000000000 0.00000000000000
0.00000000000000 9.32903093084384 0.00000000000000
0.00000000000000 0.00000000000000 13.65397976018768
PRIMCOORD
 96 1
Ni 7.211947070575809 6.726725529004545 5.086899309164709 -0.9979484952421394 -0.07037906394419492 0.18176310954584177
Ni 5.214965443061267 5.21444301734551 0.5501422657847995 -0.3738558831524658 -0.2873063800959955 0.6129579356290927
Ni 9.566174597362247 0.5374211996060989 3.746529375403328 -1.1266260378169115 -2.3483512680325167 -1.639722069551344
Ni 7.087600421194831 1.5873812082992071 3.5376234594116442 0.5037840103048872 0.5566500050659833 -1.4253722843187322
Ni 4.672771511380497 2.5669294253449406 4.3323533175743805 -0.639955290153543 -0.7599121650258654 -1.163405668539106
Ni 5.9269010872101076 4.8926940796532215 7.196166082347669 -0.3773279008614663 -1.2787913791009784 -0.13129569692390936
Ni 5.146891506491908 0.06952180212445919 8.65546249868904 0.14490660283912463 0.1601848691544338 -0.6713006372340439
Ni 2.7590887984373977 4.068035758299015 0.184002068702126 0.6261129849538121 -0.3793739847572176 0.6560740500922765
Ni 3.1026863258851254 9.296742863490838 12.135793582240277 0.8258375640740808 1.0464657261162367 2.0843586229617976
Ni 1.3973208671004194 1.1594399148485226 0.4672258414695378 -0.13673589410287418 -1.0358684102163642 -0.11370960841102996
Ni 7.370531262400193 5.5507825589564606 2.925092368328606 0.8876679671173163 0.954297334211092 0.48214792009235025
Ni 3.43849411274968 3.9697264334301776 10.539069349756579 -0.5863069087004676 0.5022328637676834 0.6461002267090163
Ni 0.6027001585961542 6.516495823565253 6.2387491246857225 -0.4466767237689339 -0.333191058443252 -2.046150487323192
Ni 8.602504390463293 8.904802299274245 13.404603320682678 0.5603367098889511 -1.1734558536862565 -1.6131592314611507
Ni 2.713535141829452 0.23856010568238176 5.602473784821496 0.2660222739062386 -0.41923508261821346 -0.5226469086476612
Ni 8.055655272493896 5.803272773188297 7.88369884815224 1.0784602767449618 -0.9831682516091714 -0.13104681413789687
Ni 1.2823312354498888 5.9111070383390745 12.740500415326778 -0.3403695784695622 -0.6131188866869893 0.8589135206924433
Ni 7.675599893310788 1.19520741831665 8.997453567060813 -2.395771666298009 -0.9422200913315837 1.0241896883268553
Ni 6.162095278638107 4.3292299581166 4.439044776471938 -0.3696968666787698 -0.22276603432076475 0.34668935004000295
Ni 4.074929911940889 1.5251938900627608 10.435463001291184 -0.2599475284670685 -0.3350178272393456 -0.7565005682411552
Ni 2.1863609494767156 2.1854467044741392 12.04036599493568 0.2447584794314559 0.5939312580149448 1.564402373772422
Ni 0.046322368732560806 0.5835411283738036 11.106023461655075 0.345651909914424 0.6625349752262719 -1.1623124354749272
Ni 7.013266705067018 2.3064722189477993 5.846210569605199 0.5709124285222683 0.8675477993286737 0.03262935599924703
Ni 4.829573858352922 2.973917715981485 12.132352102837721 0.3623921054872404 -0.6376240709172051 0.769180991922301
P 4.246201585433676 0.45849946621025606 14.247108077648393 -0.9418560231239456 -0.5638899744578483 -1.062852909225008
P 0.33201087139467245 0.8179283586515705 8.57856329913563 0.3273137737268686 1.0034961645332459 1.4371919026614797
P 3.1999507993224476 5.880414527538308 2.114783028999524 -0.7864359223480069 0.09691593389245888 -0.2975164878597779
P 7.755736266495767 6.092118219818488 12.51537411376388 -0.4345190053604775 -0.9839077008783571 -0.0337927801797289
P 3.4589899930625325 5.339181486013306 12.37290862107675 0.25762607942274346 0.5657733075234901 -0.8071554142835454
P 6.831947665576533 2.1228115927670435 11.264477979953584 -0.917572982206865 1.3263765850791094 -0.9369128201860574
P 9.43426210413342 2.32901115697049 4.690811057926223 -0.5600024664779839 -0.28879582015732846 0.8896860259886097
P 2.600094129264918 7.331172082136232 6.3666865179594705 0.7068247982825826 0.10627346384795891 -0.07858833922786465
Ni 8.999809147297041 2.9514907263264574 9.440798022998775 -1.1216522387514036 1.1998374290035787 -1.0907822886454246
Ni 5.523709712043445 2.709234458705089 8.665593825962485 0.09653361085237569 -0.5247968651111286 -0.05363244061347537
Ni 2.151097213663069 8.947146769342535 9.96452420562751 0.04942945827572132 1.3524023197189097 -0.583714208272627
Ni 7.9725149514433085 4.035990538055661 11.571310730557926 -0.04097078598540686 0.2803965403500397 0.5033821468807782
Ni 1.422378643395513 8.062250897155335 13.944945439781701 1.4396745598740173 -0.21828588706222404 -0.9110958591229534
Ni 8.462783498590017 2.4814755046959984 1.2124623933856762 -0.944309883981077 -0.37286703687663525 3.6825730601876576
Ni 4.5068080563210335 7.346994118099181 12.123668641119377 0.5195968089674278 -2.872945530214536 3.344670198091033
Ni 6.827003279338111 4.391781108547949 9.631189544785233 -0.43660391291396417 0.7032175405472986 -0.8330425664629523
Ni 2.5177654338798834 8.705095740395215 2.155936181855275 0.664258899895914 0.2807526381378778 1.0694130789410292
Ni 8.609538479564746 8.29042965754316 7.484360362639291 -1.6229060264352693 1.0244025756686097 -0.7100281357112288
Ni 6.02091905798522 0.1505864138579725 4.989122671945331 0.13022457534691764 0.12102902489057867 -0.12798848692754733
Ni 6.06150034126283 9.481653579777158 11.186759691510114 1.0031356958700337 -0.07264292027770715 0.6116474443477853
Ni 4.996498203568154 0.15030187842349732 2.537783667824043 0.07567373668423097 -0.37417804237857494 1.6397565223337047
Ni 3.3015159558841325 3.6328644661034692 8.003088983554965 -0.24266071636216274 0.4006925437293357 -0.28415163651709774
Ni 0.814242458646287 6.908072555586945 8.461657484591946 0.9409383964056828 -0.4677628550152718 1.5357934517864777
Ni 8.218418870044342 5.023412456960315 0.8307557757795503 -1.0968729749241948 0.7391664478380818 -1.3661009002519247
Ni 8.22858751344034 4.65922575889335 5.559886759956603 0.5016037148241168 -0.4359523953728944 0.5521228066195911
Ni 4.798144354131712 7.932073603625278 6.0656573573153585 -2.2281691645232655 1.4687964169406382 0.37783672217708475
Ni 9.227885288347842 6.14397830113808 10.731932131759184 0.829836657931145 -2.2647413072203446 -0.045033128980238576
Ni 8.14052146421261 1.6650174012730605 12.846619071743131 -0.16364377423731172 -0.14881005165858888 -1.254451259693717
Ni 2.312405482433905 6.711901699319919 10.724094813119754 1.2503192398032146 -0.37541088634441155 0.8898220373458416
Ni 7.3129804723910965 8.320963574823072 3.080092346581668 0.2640481808990033 0.23384466073242954 -0.49292392766193177
Ni 4.2297918205405 7.400020328248589 0.8536688079308458 -0.5811528753033539 0.25101011676812257 0.9559652088318182
Ni 0.4187932460065413 3.4957370447477047 13.519979174201644 0.9947161043477707 1.4657404037231336 -3.879814724985073
P 8.56912511883863 0.3835276443867672 1.5620286346359358 -0.4699439218269907 -0.15915822766213236 2.7522587191547245
P 7.826963415420951 3.6170424301405206 7.505906691802042 0.1554931201057193 0.19765329841353702 1.2738520328178318
P 8.111713417600827 7.373171378070897 9.383383436837002 -0.8708256987489971 0.18336644947721967 -0.5625113489427667
P 0.6944605039567432 3.671010872384422 11.239177648861888 0.8409096279158551 0.6385748648662486 0.8875854347058392
P 3.78512357515493 8.582801477754716 4.078730559023027 0.14221620049115508 -0.16939918866385018 -0.588073256572271
P 8.759213447129333 8.139084793494275 4.8873597399341095 0.10301741880450645 1.1147151453119384 1.454060396282044
P 1.3132383139553414 2.885777034508646 1.6516265106945134 0.0675873601316707 -0.40494463413747034 1.3770905664942088
P 3.067459906194033 1.4542279539954572 8.223054465368627 1.2106502033483666 -0.6447385704747993 -0.25255329288552636
Ni 7.976078641147227 7.907146433759124 11.457095408450394 -0.8111539939199771 1.540646923224037 0.22351191134785375
Ni 0.8958332277078134 4.137079914054781 7.231830033575709 -0.5800922952493235 0.49392820055673 0.6998162281752335
Ni 0.3094318185402364 6.806675321576754 3.571307790338188 -1.9302955504343853 -0.6491816938478174 -0.8281330449764771
Ni 6.79958525829147 3.498321186234578 13.491319459177014 -1.4104873967871 0.18281263385627872 0.21088702349499164
Ni 5.542237166891566 5.234976213780916 11.782414566168049 1.3381062148112115 -0.9270958340956356 -0.16000720592598897
Ni 2.307386463950375 1.4751996148708744 3.4461821668988932 1.0164637804375074 0.5263768080037386 -0.22361964057031167
Ni 4.329192641994046 5.689841089654401 9.344633442273736 2.3534631353377855 -1.7644807366876838 0.05506043130925357
Ni 9.377728178463924 0.827646409867728 6.252498250040789 -0.36646473289471726 0.2205605420290137 -0.44457304716236984
Ni 0.9669913418062709 5.109444777508846 1.7713310344297573 1.400356221890369 0.5300619701648097 0.42807299262481757
Ni 1.7050762588349115 8.96744674001198 7.595135138247333 0.8387293324350845 0.2775382449656381 -0.06428066435594092
Ni 6.215737204809659 1.523579967762295 1.0789322462441295 0.08178370623671076 -0.03880900244739768 -0.381822189187394
Ni 6.103994075821337 6.92092795980684 10.250710878525721 0.41753146966354543 0.6752241406581662 -1.1523869488310994
Ni 4.464780773294453 5.965457970839155 5.1506772271250245 -0.4126972814996957 -1.0589330053453117 1.505696118180465
Ni 6.31681725177814 7.115438248620206 7.314655033390713 0.09527557007555851 1.2132339049151428 1.8298746887124617
Ni 2.0072342321862857 2.4435063499971785 5.799295807427091 0.6646422513772617 1.119797187820536 0.009933457063628054
Ni 9.007496268543191 7.193037125471506 1.3317340500992925 -1.1216684367013199 -0.06842219732814023 0.8183379132629262
Ni 6.061845515396455 8.58347316796069 13.565488051462523 1.0531919890964767 0.12898556073349396 0.05085230676517693
Ni 5.13710535335209 6.138987269746465 3.084788580605104 -0.3942146493144759 0.8314291992292455 -1.4856399708605381
Ni 8.573173918135751 3.6988673578710745 3.3258637929476342 0.5765169191932393 -0.5190044267990674 -0.030837039985514635
Ni 1.7867799091671646 2.385153263353168 9.884662105943304 0.98427742551295 -1.3440207805234337 -2.3715037948895805
Ni 2.919128319041394 3.717348167566004 2.59999057702483 1.410059822331378 0.6425875855700675 1.3973557445011482
Ni 3.4056465958714135 7.424089227295998 8.480664451614889 -0.5339147682519967 1.7056490112614562 -1.4435253010786753
Ni 2.3020222713332203 6.6928704768173155 4.211883813326777 2.5810577013954448 -0.26422353013460304 0.12434934751306326
Ni 4.638972433377099 1.6660622527045759 6.458250020773586 -0.47343650836128137 -0.3328164487126526 1.641889509516308
P 2.2036756303418286 5.472278766133225 9.036162513889268 0.3644870403430561 -2.2683771042007193 -1.4998869676978555
P 1.2454349192744996 8.291315915453822 11.838955955062056 -1.8169723788284968 -0.8937280572684673 0.35946001944211
P 1.052165391536057 4.336413311708269 4.868312658079421 0.4272890632709415 2.0002092447063875 0.6068646782471613
P 6.678690350246749 6.813168326901171 1.39689732910943 -0.8905540304158598 0.8206441927985996 -0.7346690741883606
P 4.306681691063272 3.966442614645415 5.993154929901889 -0.06550425235039686 -0.7178165214073962 -0.27245543112609205
P 6.848114875673107 0.6089291523535012 7.106705343039478 -1.2687810460528277 -1.4941783473488526 -0.27362708283669
P 6.268446227917358 3.357630075174895 2.3561306490366984 0.3859318404803934 0.40403780605248485 -0.16173215903689564
P 4.37678935631183 8.401389147957847 10.561257516227261 -1.3900808081062899 2.0920935297122103 -5.298040370956695
