# total energy = -340897.6026301846 ev
CRYSTAL
PRIMVEC
8.99388070580028 0.00000000000000 0.00000000000000

0.00000000000000 8.99388070580028 0.00000000000000

0.00000000000000 0.00000000000000 13.16345352833639

PRIMCOORD
 96 1
Ni 6.218899607686633 2.1119699976076647 11.376527613619151 0.7609634891085153 -0.2261645184793524 0.33761078477750245
Ni 4.524263652438494 0.36304697973976563 5.947853729612922 -0.2116313578601839 -0.15477218277929475 0.21777320909186365
Ni 2.892962603580074 1.7871020405353741 4.654254905281796 -0.47836325623893744 -0.3879113328042674 0.896600493720256
Ni 3.5216708251459607 4.408116679828888 4.8387014063099665 -0.5226175980716224 -0.07608896984477864 0.05325885932414053
Ni 5.148196123465763 4.478223978225348 2.77954167614609 -0.1680365039883687 -0.22880709830852206 -0.6483849089781349
Ni 7.247277890335503 6.033670639056091 2.5065585162154718 -0.783396878411367 0.2543936885283748 0.2346699848472023
Ni 4.832007261063465 4.157016530511282 11.323084176989076 0.8260782193299773 1.8067620139543983 0.12701506727068448
Ni 5.566519492678863 7.821663073759682 12.369644488430543 -0.2552123277749282 0.1126009487278835 0.0653875242668745
Ni 2.0821462899126475 6.345326585692923 0.46138427020893896 -0.9462976038350669 0.1308367550096198 -0.9231445627573716
Ni 2.666748521570101 1.4135502083867484 0.4478916507022849 0.017066211453667386 0.40214855944957195 -0.07044874083986577
Ni 0.632174463105591 0.10405829784697801 4.846230183665666 -0.2284671984706001 -0.13725011473513135 -0.5771514674534447
Ni 8.65400174343259 2.2646950821580525 1.4448336228848118 0.07809802985500744 1.1094734372970247 0.2380676976748416
Ni 6.697958651828698 0.7538238917971661 4.788166590629399 0.7491364145666001 -0.16306141937128046 0.13674283608140966
Ni 0.7282479938561769 7.236314350021804 2.403409499685733 0.05735694065291412 0.6083631171695588 0.10867358864901928
Ni 7.704490798774554 3.875292218135311 4.048472984465418 -0.6827500167215661 0.08629470673318686 -1.100978512452136
Ni 7.66433312239993 3.826527398134592 12.698322253277142 0.48299227037051656 0.010486758463936778 -0.6040259232467855
Ni 7.893056497065787 8.74706142483197 6.884512419054982 -0.32078934234478945 0.5231521304188539 0.2634563129512753
Ni 6.82419675834476 0.7240145743109282 0.31665744357567366 -0.02093083661539621 0.4754085444859876 0.28128022850657364
Ni 1.8996964303525996 6.384306063723744 9.24550947652799 -0.07927919464730218 0.3404973622966781 -1.2989701680416985
Ni 0.1558630494523154 4.939780930939637 1.4753993257200095 0.16857052211496773 -1.3255237501605108 -0.3489480641671926
Ni 6.47348938263321 1.9730415257243925 7.087690474973505 -0.4896056619219762 0.17868575617209873 -0.5943110099518668
Ni 3.4081410717580836 4.272524937606307 0.4442617205377165 0.4359269414515976 -0.5257846829456945 -0.42487865405723596
Ni 5.870881402240707 5.57487480765132 4.78383603717489 1.041512238765703 0.23064646551010598 0.34202536890543034
Ni 5.471364237126004 2.970633755466132 9.19402670584409 -0.470030568003526 0.05149996765150485 -0.4050935010105088
P 0.17827759840211088 5.5699911305468595 12.486457008196188 0.8944155702537953 -0.36643490809804635 -0.4158674516975612
P 4.068831532335876 6.059204265758791 12.439002596582432 -1.0130087320093715 -0.28444551360843273 -0.836480645610224
P 2.3063547365740114 8.33328895914531 1.3679989018840484 0.8990854649256386 0.3844801956355314 0.2423426709011117
P 6.199104076734663 7.69284372354384 5.875059959114985 0.7627416640548605 0.2845025920986132 -1.337923409376444
P 4.609840425272658 1.1615866465423859 12.65913501660707 0.7280202014132753 -0.9405074795158512 -0.549887232420853
P 3.971760580239278 6.071184114567525 8.208650863967893 -0.9154883317636943 0.5227469245606352 -0.33738504191994156
P 4.742176382758932 1.1405859356051526 3.6462765423536254 -0.15218770988157015 -1.1009751700180266 0.3808981347112279
P 0.14215907375421602 5.61525733103812 3.643538805133371 0.6719729807107202 -0.9124973674561704 0.5405448719740045
Ni 1.5179241914388215 0.9865297567426833 2.674892480351114 -0.5813541926808826 0.6387386441376226 -0.13619364844615897
Ni 1.9684276650345423 6.419058417925657 4.7189532839533515 0.12125913862351376 0.2372061210054947 -0.6384401390605973
Ni 5.829329674390594 5.563263707942555 9.143439725656696 0.20874837988543402 -0.35546426801915554 0.47881705594690444
Ni 8.550059466643894 2.2312738222682205 10.051389049196084 0.9740899434569869 1.2569213185007644 0.7712147345228783
Ni 2.243793303906177 5.266294768141056 6.9802369872426695 0.9977734031168558 -0.12137689514830063 0.4684632235164061
Ni 0.4885340972351598 8.646689718596628 9.07002717618125 0.06142956806039099 1.4823772409488665 -0.9298610555455985
Ni 1.2462730252083334 0.8859610845246759 11.353070673920909 0.3501258865253776 0.5183606225674815 -0.027191215702811238
Ni 4.276868981881546 6.617796195047731 1.4382653919651283 0.30523211133648076 1.3338952620536577 0.8160257201899818
Ni 5.504146931501256 7.895799630614333 7.898479806999471 -0.12702303769048448 -0.010471074734652934 1.2565477372114295
Ni 5.280990768856876 2.8106146338407565 4.894251209750107 0.23633503125445107 0.6538104508690804 0.5021300196412319
Ni 0.705236251242042 7.334932249562173 6.6799124306314575 0.4697940265126877 -0.12740407517898703 0.6183708791145479
Ni 4.921442408626567 4.501329257196548 6.934941106945802 0.5318365455667292 0.2754847048707191 0.1521997940664282
Ni 7.749676054341431 7.138586844649652 8.992784133006376 0.7474600553054418 0.09890571062897804 -0.39654535433018157
Ni 4.525765630479829 0.3489994378070614 10.480438520278023 0.04641278293658458 0.6690835749780671 -0.3486076501086383
Ni 8.044414511782145 7.257153171110271 4.593071335104576 -0.24358811327243857 0.22713768102589915 0.47294928431221767
Ni 7.129673909086997 6.005825585068222 6.93325655313058 0.15382807369847054 -0.023638979575178642 0.16342034537259598
Ni 2.442171325808768 5.131782291576919 2.6007163504223185 -0.2693467102937813 -0.16360520768989242 0.08325154903148888
Ni 2.210246129689526 5.207366863189985 11.20804884800767 1.6403103379546458 0.07412978923587878 1.933230464692993
Ni 1.0955445821260679 3.3203068349216727 3.797998809229709 -0.06466324450634024 0.2676842349896938 -0.48659952810580065
Ni 3.5901772128157274 2.727466208738093 2.574482100429678 0.13828961174323925 0.007393721360909848 -0.577461799605012
Ni 1.1489772260995592 3.2287851070855766 8.128050405207206 -0.6529643008187013 0.0809280431046348 -0.714959254464259
Ni 3.616943001145152 2.610069086740789 7.13883057881085 -0.05971901312718748 -0.226965417114093 -0.7430171890427397
Ni 4.1488770686705125 6.796459630922736 5.984987663367804 -0.3161189334523136 0.1837361741118126 0.24375086410254798
Ni 0.6156185279050519 7.333538198086682 11.191751936565156 -0.3051984298850679 -0.6113476537191794 0.9139502978526131
P 0.15426663566586624 5.6492811809205845 8.02351992863466 0.455968433483505 -0.13568431290990826 0.2355603578719556
P 8.542477625393323 1.5673005953126586 8.0025372054584 0.22423413422585897 -0.6348200258095067 -0.6887581705888589
P 1.760830915632737 3.2604075908780015 10.189618696565512 -1.1913005951771614 -0.12155173016326809 0.8010665277769882
P 4.132751040957253 6.243488876938193 3.611380286063919 -1.267162022392166 -0.3646441347462107 0.6760348094849196
P 7.046876245323327 4.033062869638927 10.451176030725396 -1.2590671611991735 0.2428224387510076 -0.48819386917611407
P 6.194724056937476 7.862468309529372 10.176889657512206 -0.45670196921541995 -0.1391121076445346 0.9020648592689369
P 2.505416293393618 8.282635424242315 5.770857759180214 -0.518131537275811 0.9344077943760166 0.1566244054966851
P 6.926870897984783 3.993085070874044 1.6740093897391668 0.8598118641369967 0.5514360649652116 -0.4724769726614895
Ni 5.429965405244169 2.894968238928684 0.5012352552589545 -0.674917922271657 0.309341505519164 -0.29680892026979205
Ni 1.629070566497634 1.1118684752100414 6.787905551191514 -0.3734411642125504 -0.05252403804064503 0.7213098792726351
Ni 6.791512996654864 0.8802436746990661 9.283236107006967 -0.5782454718485719 -1.448715844140679 -0.6967082786738711
Ni 2.671281437335568 1.5029134049059556 9.137028887645535 0.017942700521349744 -0.5270982595507954 0.176332939669206
Ni 6.369304271071365 2.106753546925183 2.617644632275021 0.7530725163962128 -0.47664987309225654 0.19049251899903966
Ni 4.047399115135265 6.960211212950232 10.3575047654529 0.3843884072526735 -0.5630265980162884 0.020310686532894057
Ni 7.989246048874656 7.16813174204957 0.23283267866038446 0.6643663720080558 0.44001062460266804 -0.09211388451812523
Ni 7.757770546779765 3.8535090395957052 8.227579384840913 -0.3194117452709725 0.1791125592968722 -0.057288292198507784
Ni 3.019110771291266 8.346761792114894 12.344712552332425 0.4897527290228017 -0.5019904087395742 0.2298710207966622
Ni 0.14474121684204458 4.955376319704161 10.265032384449324 -1.2665346732208125 -1.0628426248123632 -0.9302528916673785
Ni 8.573002855766328 2.3713984802562686 5.85257615728544 0.6965041330828651 0.2565019931206292 0.24155719888533886
Ni 3.342512725844169 2.454681813566238 11.332022295417095 0.5967178196211466 -0.5598579704803197 0.5642884954478475
Ni 1.2646115475214035 3.2008231326513763 12.392890971325388 -1.168205918141227 0.4610381346969286 0.5557688880126107
Ni 2.9725314642488976 8.345583593771092 8.048464456165458 0.7141257028193702 -0.5583271356580901 -0.3349376088207135
Ni 5.704296747859794 7.837537272819303 3.632547383790162 -0.4371862677799955 0.11774444060203593 -0.5958526434073739
Ni 3.199366124012476 8.445784416277178 3.5644394250259714 0.1000519084182793 -0.6417776880742625 0.15752634848566419
Ni 3.313831240971006 4.1194041223144895 9.093668490429478 1.0322153868448096 0.6561802366528378 -0.2277542315639755
Ni 7.23268082230504 6.145005885605131 11.219619475254243 -0.34639573005898405 -0.38427682137547364 0.5941492875630219
Ni 0.4467925985067689 9.18095320116813 0.5055478209524892 -0.20703268274590797 -0.6804889886015313 -0.7182186419418211
Ni 4.6509964223813425 0.1925913591972315 1.5737042382194295 -0.5743903597685397 0.325269232493014 -0.20869798626347286
Ni 5.948336700995076 5.516243700756322 0.1712174022197863 0.749911859280044 -0.45375265677910886 0.41062445813106696
Ni 7.871875908518813 8.908681457184038 11.312751107697519 -0.5114890922586287 -0.4953927009173984 -0.12058576670557297
Ni 0.23168146195804362 5.009357590387361 5.854906471719631 -1.2041237150837585 -1.0063421186224732 -0.7685042775702506
Ni 8.001414769173618 8.899984374753071 2.5571985602977376 -0.30792174235350195 -0.11124597736188582 0.08148494404936935
P 8.447223437155104 1.668616658999139 3.7045380007606075 0.18112239063804936 0.2422976765957892 -0.06372273496994187
P 1.777019900509405 3.1579403104891806 1.4602086615774028 -0.5356962856324516 0.37993757057017147 0.7231286776489289
P 4.768843238402998 1.022469303168886 8.173346285504074 -0.6675815365112439 0.2927440061717991 0.4411077143215887
P 8.455857562422661 1.7679270873370097 12.272840654584408 -0.5090504009101492 -0.3800699823829777 1.2396437623672392
P 6.391519155874348 7.869042836165396 1.420257844453981 -0.47777164540152556 -0.8242223970681611 0.4328027940003191
P 1.7889907554376523 3.3236345707018766 5.912602215043978 0.7076498652870393 -0.4103426652245901 0.05816503837650627
P 6.899907244284644 3.9816538487750197 6.084845819027335 -0.2923771097506836 -0.24315642505165866 -0.035439828864848644
P 2.257832751346443 8.349684803273181 10.251565847196082 1.3175073076139372 0.34079458182212274 -0.681514087431936
