# total energy = -340864.586569424 ev
CRYSTAL
PRIMVEC
9.30945724993458 0.00000000000000 0.00000000000000

0.00000000000000 9.30945724993458 0.00000000000000

0.00000000000000 0.00000000000000 13.62533169964163

PRIMCOORD
 96 1
Ni 4.834261602549227 7.475522246226711 10.14738400742875 -1.603238629913329 2.537636911207649 -1.677677979969827
Ni 2.0551278943045914 9.267564873504446 0.4943805988150962 0.7860646550515172 2.601409011358288 -1.7057819372948948
Ni 5.733638975592313 0.9170318281170315 0.4892417783126608 -1.3180194713636655 0.2583153921802841 -0.37858722718986415
Ni 1.2030891123029632 6.185492110966782 2.0852067512672163 -0.9422964530954739 1.038986644130372 0.22674687334538368
Ni 4.200799571592311 2.724142743194118 7.369574104030938 -0.4858531368580794 -1.3203951706846937 -0.21614184413602777
Ni 4.4800646756358935 3.0675686278586873 11.757421156237438 0.14313974074668895 -0.13071488471977488 0.8814728940501981
Ni 8.539220852401114 6.7945726729094265 0.73552906034931 -1.084208234972333 -1.7234302465042772 0.0400726996511697
Ni 6.443606127724979 4.825901709775338 1.15745322102581 0.998599755672893 0.7576771050477596 1.22001878904746
Ni 1.5647801524490155 2.6965029640786637 12.961396528887922 1.6893124788849618 -1.5677003277974033 0.2981093842487705
Ni 1.6544860842632683 6.997397821979282 13.366954663399058 -0.41466854629345357 -0.05532011272854344 -0.38743336472658435
Ni 2.221897514740512 6.679842919518096 6.483941213940381 -0.23976025488591612 -0.6956633823491246 0.5155478357090346
Ni 0.17500383553447846 4.516036419152941 0.8207515574643366 -0.4364966979121385 -0.3647991722668363 -1.6404478919737748
Ni 0.3834221066294487 6.159099799147209 4.560602653771165 0.5923068350376444 1.1847630511689597 0.07886987502402545
Ni 9.20303171458618 8.83680696867077 1.2432705924707383 -0.7636896297904266 -0.06513966992212653 0.19557327595605672
Ni 4.339994579114801 6.983619824979999 5.288686010066402 1.21013726826769 -0.2342102716019644 0.16858054941729678
Ni 1.931926534650189 3.3168852073436925 7.684183494160655 -0.22084310626643902 2.1358272231547346 0.32412046360055147
Ni 6.818833118977083 5.822637388641737 7.624912971528669 -1.9680833107061202 -1.6120495433367399 -2.0819196745030015
Ni 5.346514497742178 6.415929110779797 3.0480960357482814 1.3189139581534768 0.4748524148722016 0.0635322162256906
Ni 6.1762571291942905 3.234822340081069 5.2306285097378 -0.43339080529330526 0.103182483627461 0.20588622784629057
Ni 2.0880461357839604 7.9313319010097585 4.226578390167119 -1.2418950202952612 0.8613313861053167 0.30380180664785744
Ni 3.092480735946581 6.036503554225884 3.5143546255529485 -0.36504856927348095 -1.829903485067868 -0.4059103404848493
Ni 6.568827639642114 8.622075023545452 1.9365551968853534 0.6579257585890346 -1.5509444484953032 0.9183872505780442
Ni 7.679157318093146 5.155475121781168 3.5987364786618703 0.06698315088876852 -0.8230376327314407 -1.4729122388812246
Ni 2.2942040706144535 3.650806135970243 1.402373874711449 0.37889061736289587 0.27503836136191984 0.6547995542552272
P 2.3105794062372507 8.570630961776507 11.685125771712414 0.7458693137795541 -0.3326102462391175 -0.5146224956812878
P 1.4747111517949163 5.474361276655123 8.938449486804267 0.8823869212240351 -0.5075535046496484 -1.1566022724640275
P 6.020733333336163 0.7490678042925921 3.5959427104865425 -0.027938378281480918 -0.3659849650448213 -0.25343158172542163
P 1.3691419045166238 1.9774497814924155 3.060413378876492 0.41027915897650635 -0.13492326637416763 -0.05236385831369692
P 8.607049559250287 2.5546268328157726 6.459047724767352 -1.4216711813180614 -3.0976774300124204 1.6196206708157783
P 5.342120433834298 8.323818626340694 12.133767144272863 -1.7688402992079602 2.2423372284935317 0.360051887389838
P 0.36170965906091584 1.0302031783342531 9.579861794408068 0.20636033926923167 -0.43629975140998406 -0.1652568843607025
P 4.907778387889323 4.451493950777245 8.822252562921662 -0.8226537670294607 0.6745785366543673 -0.5746554405044683
Ni 3.1471458699869808 3.2555917396117455 4.381348119973258 3.104950052414433 0.711742033078542 -2.108697456817478
Ni 4.195195278218279 4.663200322237179 6.250076471900924 0.01547495570714754 1.1731660903599797 -0.6032535638571352
Ni 6.459339110784971 3.4043010126296864 7.4809068364053495 0.7720187184814123 -0.5272144734136855 0.660065944860489
Ni 5.722616577992885 2.9973660093643657 2.9148804927343317 0.975711795331126 -0.542621294887059 0.37957813034822374
Ni 4.066650289997938 8.66741208123904 3.3923262575349713 1.4052480027650314 0.40520894354245046 -0.43454420217145806
Ni 9.086980018239514 6.358396663850356 6.974316884168253 0.9258560481512635 0.09932968554027409 0.7898007250551817
Ni 4.7699053233221695 5.499487502263951 11.051002769277831 0.43381683708713026 -1.3343488046513083 -0.27450845700037885
Ni 0.671479062271763 3.6887701033777276 10.195386362785106 -0.47044580116407364 0.43702634516336347 0.4115353999811106
Ni 8.001553138418945 2.3954071823571628 9.549886272422937 -0.25748106920444686 0.3907305474206174 -0.9650196057246024
Ni 7.269103646588123 0.8014223309983826 7.827140453431395 -1.4598492350496792 0.44476176613440827 0.7825854382536651
Ni 3.625949884626941 1.7853677462990283 2.2284634750672647 -1.2288217320510708 -2.206324557844349 1.5441364244345344
Ni 6.895217217206219 4.960609558815629 9.650482407541084 -1.0124076080902629 -0.6419196129687655 0.6928721927572326
Ni 8.052271062508197 2.454689807283809 4.1394986562944185 0.8812916312773273 -0.17016332052338437 0.10976862148541096
Ni 4.293763813507747 8.392047639859443 0.8327207268845924 0.514816613969965 0.4482186143347571 -0.4092710294269661
Ni 2.964242959821494 4.002024036505353 10.185875821072626 0.6969293935457417 0.12508853967193298 -1.2328069419510639
Ni 0.3165997521286676 9.2367226410324 12.193868070507778 -0.6186917527890764 1.3056987450147837 0.29937410989380697
Ni 7.428928411779809 1.5278960821036365 2.069565000890057 0.4092067518479339 -1.7248194135423198 -0.5120331376875569
Ni 8.591288647817999 4.345505777914514 5.754127229508544 -0.46369871224822723 3.0730326348805463 -0.9767844595700146
Ni 0.6533172417677753 8.50852757124798 8.282280758225086 -0.281968769933166 -0.36716458717521927 1.031095414307753
Ni 2.7983670472990405 1.1267701802758519 8.63893724379194 0.6277546343222931 -0.1613053559121222 0.5045887655943697
Ni 0.3385160768149601 1.652568336032287 1.0134126409099913 -0.03784046788654128 2.3310749974505725 0.5545242169722321
Ni 4.590242104343001 3.108139243347118 0.7444512443520891 1.9711555218735406 2.5319534876696266 -1.8658187109072384
Ni 5.2310027499265646 2.258902608032506 9.445965730055843 0.8792080092754212 0.6630682220219225 -0.07880379767278041
Ni 8.70712622664373 2.3181014478422646 11.950683630633197 0.6298012324386766 -0.4137267512054746 -0.17282415518499913
P 1.1156733070169698 4.5144165735597825 12.263561461680572 -0.6405289032688259 2.0094929840011586 -0.7337074816060395
P 2.0089716043569923 4.704869453702579 5.391762184644419 -0.5755473561911184 1.4953098898501345 0.5779343683660563
P 4.918391169361743 0.09964563951434408 8.766075572994314 -0.6867169717891141 -0.010234276133498503 -0.33372584790079945
P 8.74730584492002 7.318583412838927 12.273426693721207 -0.8370504020707649 -1.3735067057976926 -0.9847345676550265
P 8.030291433511369 3.4539855869439937 1.901020066921864 0.11947967812558778 1.6818285118030905 0.9032629933420959
P 2.521150023890487 7.761657729855071 1.7713886650192145 0.8668302044363587 -0.83604124407996 2.1172484317112823
P 8.725437929412374 7.638791510668218 2.9578278127051383 -0.3353248169568031 -0.8576516232608842 1.3437531286843438
P 6.712100189519798 3.109852183514596 11.195758315724424 -0.965998167587788 -1.2281820415845428 -0.6995989699581048
Ni 0.06601987927014714 0.13596928052231963 4.411269647105283 0.6290281017180779 0.3166683781978804 -1.6006911809011273
Ni 6.208048926324393 7.175217768386925 0.010410766246147686 0.6708422095403866 -1.0965245904458407 0.633946879175934
Ni 6.184030526149967 8.885393027008107 5.479536404041543 -0.7589143198889704 1.1382191419711494 0.12535721995228732
Ni 8.557057772840725 4.207679260634522 8.257972833924525 2.087301250529889 0.48794472927978544 -1.0310020832629985
Ni 7.90849580192919 8.47699643892597 9.816806104966012 1.3184295623178905 -0.04148089285260598 -0.9171140402925755
Ni 7.646462503592144 4.8471831294647725 11.737610630822253 1.5039266849848678 1.4310719058066708 2.4989847460530896
Ni 6.885991544891159 0.8531810524285283 10.835422732580462 -0.6863914701288952 -0.03579669798363512 1.779009526431478
Ni 4.516753247375202 0.8183757839277035 11.01824744330352 -1.6285544829702987 -2.1537920351632716 0.8294286238594489
Ni 3.6597618340197773 8.772292428667368 6.7691736801978415 0.5762868054603043 0.4012116494575993 0.7484566148907562
Ni 6.937156322937145 2.870440866737184 13.4093294517378 0.031013931883011103 0.2122931598138989 0.34424500226456844
Ni 7.351641296179775 6.877966792584819 5.259473863590691 0.21889832383524238 0.1520586405028736 0.066920158861317
Ni 4.332835606349633 6.046818433060482 0.9921070166312347 -1.187727276003606 -0.1504596714468699 0.37620484300061663
Ni 0.9118511150561524 1.3776507486094243 7.217747093719038 -0.749150041413355 -0.8572633866835302 0.3326225875342917
Ni 1.1755424277618285 2.7001708903068513 5.219292383422917 -3.091778805139798 0.8945767784220077 0.6194180894321397
Ni 9.139960140484732 6.384900689159113 9.847504040847861 -1.2148621845471852 -0.08630987624183846 0.513279094279516
Ni 0.9015055150120281 4.2575034768103075 3.2826422300717573 -0.6949144199982419 -1.6583749087658408 0.36880597943338417
Ni 4.320407480677982 6.462597420886153 7.925842113962139 0.24834131168670778 -0.14528609766573042 0.2730493559563491
Ni 2.645179925256333 1.1050419066296848 5.06811889702274 1.0097305754787318 -2.637862369089315 -0.456698112560678
Ni 2.1687777506338155 6.4366612724807455 10.838883057907918 0.3388500565012422 -0.7086191711788441 0.9092451790674598
Ni 6.671306147053 7.120757442410028 11.241934155532629 3.637901685422212 -1.9108204724289093 -0.25833750366747116
Ni 3.163623609641529 5.189259142801708 12.797456983511315 -1.103538045649196 -1.058935833558789 -0.44093262219630514
Ni 1.967702779561166 1.646973352115686 10.892240213179129 0.1678999784105044 -0.8849467115314114 0.06668387448079482
Ni 2.634725404560255 7.893191053911067 9.120198024248191 1.1028952698588748 0.05951435331554912 -0.20622612768421258
Ni 8.60515042993417 8.935878214661562 6.4923476540014295 -0.9442913720383155 -0.7745157738716533 -1.510490711355631
P 3.751134158714349 1.5285849819536008 13.437166591350811 -2.24733288193591 -1.7935429441609625 -1.300333624048128
P 4.746212754157861 1.608869742846722 5.434763499468331 -0.8447809379458031 -0.5371615573240685 0.6463480810537642
P 1.4807343707533869 8.761996168747633 6.225632629521857 0.37280738728329343 -0.1350397373473739 -0.7977251221085809
P 5.307135492805037 4.815707853887354 13.027343794390102 0.4482795494796796 0.20954542186543262 -0.7715104113864261
P 7.667362235526867 0.5692640125062013 13.447535465038516 1.9278260058479704 0.7147916185381432 -0.3616703968298674
P 4.209094298164177 4.328962872057942 2.4373946972667353 -1.3900903211879867 1.4338697802667821 1.2100228541770128
P 5.894543637846105 5.301614984547891 4.80895198062899 -0.4853072916569383 0.8995937720206248 0.9862551180646112
P 7.506643762421714 7.627033665931667 7.799126434127175 0.8516218721270365 3.0862874430079232 0.6170087086596987
