# total energy = -340870.4392299209 ev
CRYSTAL
PRIMVEC
9.26905712435018 0.00000000000000 0.00000000000000
0.00000000000000 9.26905712435018 0.00000000000000
0.00000000000000 0.00000000000000 13.56620203213657
PRIMCOORD
 96 1
Ni 4.54504495938824 8.064450238130105 11.089881522974423 -0.30192644400201546 0.042232683416965976 0.3626888107920528
Ni 3.3496517712466747 3.7496023060784944 10.695687999363816 -0.4910207971019479 -1.3400746513914918 0.7941793137388515
Ni 5.831979353166066 9.250935862620752 12.551083454942544 -0.3873698584785006 0.31517996657781205 0.9617951852500339
Ni 6.924337705154058 3.5195906598792406 4.062114119844182 1.2598703738267591 -0.22379190448211778 -0.2665804604025538
Ni 3.180797362267759 6.547087090593929 7.510303380851688 -0.6721262184591328 2.3095165545535066 0.20414970477115807
Ni 5.951818989422772 2.8660572672308113 8.176769888549153 -0.5336147205130746 0.6187699143251795 0.5540480486667618
Ni 6.901609977711762 7.262296787647347 7.040546651835255 -0.7733168684675457 -0.7485625443410011 -1.2944396271611966
Ni 5.679280910309467 2.446836363168759 12.239590310526738 1.827734245330691 1.7347945224771608 -0.026533527514154304
Ni 0.505722523478748 3.498661129469492 10.42166501734013 1.0149920809879873 -0.2803659442224204 0.23125813095217596
Ni 4.444438616134293 6.519242843760056 3.0157126787173834 1.2012682479128343 0.12974249350417655 -1.21326861480782
Ni 6.7886201744811 5.880410175305542 3.3549212300765876 0.23077527777848642 -0.5450476449403645 -1.2745631999522435
Ni 2.14476706887146 1.9706941808754097 9.323154792308316 0.41013903385421624 0.5267077089805962 -0.3081904226338563
Ni 5.734774753782967 7.255836255009795 9.253994651387456 0.6751197538698179 -0.32358721680490077 -0.5964146865584309
Ni 4.873456913306667 5.103255371197937 7.4780155481549135 1.446072492980561 1.1880571485391989 -2.4173779317138755
Ni 9.183781545606303 2.130029268450069 3.698309199177933 1.3947273057393657 0.7151644284965296 -0.6549342800608785
Ni 8.877754364026027 8.473289798499101 6.698434104959057 0.44352866505825544 -1.178593689133454 -1.7351966430115857
Ni 2.656576581995948 4.730166563171899 5.919327237474882 0.501320122145427 1.0959597190813062 -0.032782850857975804
Ni 5.609614678883572 1.0944716969540784 10.113887837823023 -0.09682748794371066 -0.18158107544202276 0.6811916710955107
Ni 0.5937368529764313 8.075285765609731 0.9550836197610754 0.30510227062683587 1.030004752346736 -0.3483885921192968
Ni 7.588827123021408 0.3006400057281301 0.505893074125134 0.6141969502425164 1.0275169529278756 0.41403245537135147
Ni 7.868020384966511 7.430771165294644 13.129994451457332 0.037729139119657605 -1.1611497826253938 1.5984808035133697
Ni 1.5105874669650836 0.9341170131238514 5.400691063966523 -0.8299222756664159 1.1595891230064934 -0.43871144617527025
Ni 7.0803081250853435 4.575354775349213 6.169786423126707 -0.1012011915313741 1.0774390345692992 0.5334725385082554
Ni 3.3206303541904645 8.784683764006413 5.871383967726706 0.01888243872679974 -0.40351715766232443 0.5854764423793724
P 6.999342913336382 7.865137708280314 11.259675814319836 -0.19453043651383917 0.9522630773898827 -2.1653319174820704
P 0.3151284685197502 0.9704146398220692 13.041284942694489 0.21120198363224918 -0.003506727601677831 0.5963876899752374
P 7.802747686496427 7.580466433725752 1.74763896185619 0.15405921587267016 -1.4366599414174095 0.15654110175425945
P 3.1623055938145046 9.120492425306141 9.153252052997537 -0.35673207898798565 0.047860571126704665 1.1979430401943434
P 3.901911448546603 3.814847197377972 8.588938894145423 -1.7846006473660103 -2.5459289760131125 1.7519337532606087
P 4.607119833238588 5.260690302114493 4.831819382946334 -0.35152739485859463 -1.583371458675757 0.11891120721662747
P 8.180563713525553 0.8618063197732877 9.436459743472517 -1.5711656606381845 2.61434603113493 -0.08960963003903277
P 0.888706976617917 3.1117243504814667 7.753572559090386 0.9557026991990509 0.004507400952050301 -0.00686998764695591
Ni 7.536948211726739 3.011748303094598 10.348610945628687 -1.4815061511978227 -1.634819490043404 0.05740013518602373
Ni 2.8812492514387733 2.5949651609890396 6.831288423965243 -1.1045176359536462 0.5166636944810328 -0.4448491836418919
Ni 8.618637879258744 0.04232807509705868 2.6729624207286116 0.9424286077979641 0.8109652749479388 0.4339340793912849
Ni 8.211318444216229 8.160171788414194 8.963650714029189 0.05625033785229667 -2.1247385694407406 0.6835293180897518
Ni 2.1446929164165094 3.50894051353699 3.8515128056338814 0.010356146423343454 -0.6377644531498113 -0.46067612337181957
Ni 3.473032187227262 5.7527659931653075 1.1108139711194585 -0.26750785731282956 0.727571801021947 -0.21284363300073023
Ni 9.056471049513345 1.2448250684228712 7.599039769879451 -0.7366117997370282 1.351219098044086 -0.21088805193625615
Ni 6.436497973092284 8.8362011820832 3.2476810228216406 -0.7873525206250053 -3.0917559223216626 0.8130275567936064
Ni 0.4465210572577272 5.566949210116489 5.082686407100384 -0.8679121246466278 -0.4243076120451144 -0.20062317967513835
Ni 1.5710680630339986 4.936903607573598 8.65740756342387 1.2218275601214248 -0.22137815283430262 0.23424266750179656
Ni 7.814232047956869 0.9787382528902511 4.868638857546264 -0.07294785311263566 -1.9207341319981952 0.6855453200785162
Ni 3.7169381496728455 5.781917177017681 9.864324043064727 0.5427465076110136 1.1066169416848362 -0.14431087823665467
Ni 7.876316190864086 2.8280541340687346 -0.006132408024397588 0.12431463762038591 0.20370618947583627 -0.21004164477556084
Ni 3.9793358805716834 9.162916898594636 3.4279484215231095 1.2028145093540317 -0.4721211319839676 -0.4878501126834502
Ni 9.331252240388899 7.977886516032388 11.556301391518089 0.18278640860403358 -1.9892977400002063 0.4862046066602272
Ni 2.0546532979929935 2.377012557776094 12.154882253614154 -0.9567547946126491 -0.7581213916740298 -0.5458557426639568
Ni 1.640966020881614 9.215704177462447 7.623079068868683 1.2269258005799386 -0.8042950620166148 0.3776518598597883
Ni 0.3562923500740877 8.101906496936921 4.437463650840521 -0.2591422589569537 -0.33133035108542935 0.2592106503010439
Ni 4.576429985945994 2.797382824889878 3.3911845612643905 0.4098348723502361 0.28319210081730584 -0.3207122092499509
Ni 1.8187372625683147 0.4936162083024093 2.971933996220358 -1.0590227368456406 -0.254812007012716 -0.16294571972902258
Ni 8.138899302900299 3.671751497437449 8.317858837677582 1.3423984144286623 -0.022186049178735987 -0.8365024999870947
Ni 5.625436958958613 4.572379408094329 0.2586493243010957 1.1813488832810881 0.408403024999716 -0.06853763986008196
Ni 2.137629895082484 -0.17867404782572197 12.536309505199364 -0.1772909327071011 1.240479113784341 -0.7462387813038309
Ni 0.7014516359430606 6.3111061717711685 2.6522738857974515 -0.9043873367545263 0.023641036457707675 0.11702427460655974
P 2.461564894533281 7.70028753186872 2.202730189094809 -0.5421723802750985 -0.09653155396984667 -0.2384559342521958
P 1.5345387099140608 7.089169343451915 6.192157291879554 -0.47608114507298005 0.9375126585535853 0.4029078062130997
P 3.679648733889666 1.592108822126173 4.858246390984967 -1.7545524218303783 -0.5619945572073483 1.0153497214377223
P 7.172590855271109 4.282823340569909 11.88893076631182 -0.6460482904251583 0.14380179981072008 1.4889428099815263
P 4.072860664377869 1.3384981571389565 11.804494292765492 -2.2159931912823643 -1.0046942986064054 -0.3384260815899462
P 6.6451907884932995 3.6553545358365436 1.8843315973117463 0.3370212308226196 0.0924329584204408 0.3021241618351184
P 7.378076576995519 7.3116267083030975 4.717307600577813 1.108412600132678 1.6730829043999764 1.8015781557606134
P 3.3655574728335345 3.6227923390564514 1.8476214975828669 -1.2363789755730383 0.37005373579755624 -0.1830769432612589
Ni 6.610051793903682 1.621519539570873 2.5754751151110153 1.1072226935896352 0.795243750447624 -0.5937700498467323
Ni 3.526792717066298 3.9287731753523834 13.26484161769031 -0.9345764587433968 -1.388875217833963 -1.4775433098953328
Ni 7.804675650325136 5.825444668073563 10.216842033181837 -0.11826611743346084 -0.47287420809990816 0.20559080809305882
Ni 4.239434885367059 1.28127100003099 8.023336409482859 0.25669096920298373 -1.242418496898899 0.1557322326997189
Ni 8.12593189234085 5.1453646965528925 1.0203451953629172 -0.252414710425133 0.45008703500206354 0.4128191517895406
Ni 6.1403052608498045 6.1423073771334655 12.171935464441372 -1.5956189085845423 0.03461296208817909 -0.6902967187205725
Ni 1.8572409248013069 6.822313196199185 12.953633033320374 1.1703687301205004 -0.5867483671132605 0.8974155334223836
Ni 5.782399167974859 7.037086512906133 0.8463705593696763 0.26647735916578624 0.28061199879495546 0.5269447646920667
Ni 3.6525182044346907 8.17626287113843 0.4881307804474539 0.6327675141558521 0.40828758246777425 0.2581657539762973
Ni 1.010039857936186 5.626095061996296 11.253530429615822 0.19315798164634476 -0.9889131245127485 -0.15581373666993165
Ni 5.151556426541251 3.151896442950843 5.673236558325324 -1.7605191809367744 0.44363665139102954 0.3560972736174641
Ni 6.498081586928587 0.4137132304706122 7.997723224637306 1.0915585046898169 0.3993581411886284 -0.7859792944265626
Ni 2.63363566624567 1.569575744878122 0.7685512655219853 1.1937621693437763 -0.2777768433390055 0.07287123423842934
Ni 8.001457727649745 0.852356516295547 11.471811157441923 -0.990631649865752 -0.04995139221746236 2.2838949973306604
Ni 5.568979133570756 0.508355862535174 5.446111296435014 -0.6346377345953715 0.1958033896889918 0.5185925360726295
Ni 8.86945855812845 6.011483908487232 7.624530603174336 0.4326076472703775 -0.05613952330604525 -0.4158157725240193
Ni 0.734194579332094 0.22767491696262923 10.231982110671334 1.9322495888369626 1.6975603207160503 -1.7618242729014433
Ni 2.398757765190297 7.676716320251362 10.515122137031172 -1.726374930954898 -0.8454144577647441 -0.6509974069003175
Ni 2.589144193275434 6.885491087816921 4.175731438224863 -0.9194349751162681 -0.24016494652350254 1.9394265662013759
Ni 5.077487393102675 7.2768955522157075 5.094746376992379 1.2471207874705748 0.7013655749402243 1.1807744988348567
Ni 4.913248974444421 2.292154342142237 0.9692986453750658 0.6968550886643805 0.19163691701612803 -0.26855506763042136
Ni 8.945010640666034 2.9843860472179027 5.95290346907642 0.1898446010023956 0.7400830461150802 -0.9279504687864469
Ni 0.614822103541576 2.000883499097089 1.512604413739734 -1.6251251455737754 0.26714018956076574 -0.9478574921230194
Ni 1.3206552226665178 4.56349038255715 1.1194499514041187 0.6521921985393672 -0.9666813096977416 1.1405223361830292
P 5.016997527976892 8.307234644694562 7.237771790078192 -1.098838840401314 -0.48054637993318533 -0.17778561295533252
P 6.850500398137203 2.1166262122177852 6.39053550079697 1.4510025832923268 0.24173357656220304 0.09515704221982323
P 0.2630502725024016 4.386349436737528 12.93994541704222 -0.39932086019278973 -0.3076687458024314 -1.3838481969330167
P 6.792272182887407 5.314923553853838 8.317031110899197 0.37829514987074203 0.9243059300553242 0.12933703053564177
P 9.360171697819553 4.18454353059003 3.3698712919002736 -0.2290035305900443 0.9423450469452223 -0.3703219018572783
P 0.47973394183000867 6.674147322151429 9.513976866066287 0.8223830298665772 1.1195380206218783 -0.09265458751294366
P 3.8316705355948426 5.841582096082142 12.245043296682653 0.02661477437405094 0.37791642637508466 -0.6945472664668103
P 5.303763609383802 0.1896235847048345 1.349347588203886 -0.056234139902380575 -0.47946703082607744 0.0030858380141753306
