# total energy = -381172.5170148644 ev
CRYSTAL
PRIMVEC
9.21609105229535 0.00000000000000 0.00000000000000
0.00000000000000 9.21609105229535 0.00000000000000
0.00000000000000 0.00000000000000 13.48868083179085
PRIMCOORD
 96 1
Ni 2.3933266699300844 7.4896959636955645 8.123234020379828 -0.25811021814801355 0.41413092862242873 -1.3190620536955668
Ni 7.726254587299729 7.289900327061831 11.715822962934933 0.6272373283662424 1.1694176790611408 -0.5378408427792801
Ni 3.714351936752482 2.5352176068558174 10.250183404298419 -0.8123210176448848 0.7548913147725064 0.11141181351578877
Ni 1.7642362987589666 6.047598909500256 1.7036202250808732 0.7683003890895607 -0.6288152143763235 0.2439863771521217
Ni 3.6033717690167273 8.207509642854733 5.699210394570797 0.8756951110261564 -0.7293777438824341 -0.13850198486436147
Ni 4.527883936963265 8.643458395088947 7.912338523754319 0.012851144931055287 -0.39872127893557785 0.70495612050496
Ni 2.226515422959718 0.8983771771090481 7.800894786641624 2.1419009401526403 -0.9351086770977831 1.2676567026403975
Ni 1.1649046854037228 1.6716514486449168 9.880769299377901 2.5495987115552157 -0.3295298075415809 -0.11545153080280116
Ni 7.15801806495432 2.322639252015018 7.446223662482349 -0.07700916766620286 -1.8819927495639395 0.9312684774160865
Ni 1.6902126559044925 0.1915933156501079 5.662831718594768 -3.4891685097481457 -0.41577874863849684 -0.6639686223490049
Ni 5.704815621112641 0.6656386232214152 6.3785542667076625 0.6581728416028342 0.20215632849021314 -0.8648322001697234
Ni 8.864027100820536 7.387544811130949 3.2723002890628115 0.6308404723364683 0.6392749762570669 -0.5064546151585148
Ni 2.896340916319179 3.199808360531347 4.090361076387476 0.7227234717907102 0.43897498424930204 -0.39726192078123196
Ni 5.994956597749165 6.681767346808427 8.394329944979651 0.5634384887427264 -0.43587834760184935 1.1022828330858563
Ni 6.248223994323345 6.933781355007581 0.22530946293830625 0.9928772513668193 -1.5916923198366264 1.5954206765308072
Ni 5.301362805719175 2.9730372255615762 4.9489837233898175 -0.7923718282164676 -0.319644687217385 -0.08098563581544763
Ni 5.6761904424888865 4.67452116075031 10.759057241340761 -2.4628962278606488 -0.7218765504093826 -1.646730896769009
Ni 8.46836188231602 2.5106014278139472 9.435993375190748 -2.4094787314714567 -0.933464970846773 0.9062542147599362
Ni 1.357898846884742 3.486760569684349 11.309813603900054 0.2313496622247177 -0.1754255973635882 0.37047205428189744
Ni 3.9304231900795674 7.419552295149076 0.6082021009358505 -1.2513273693527547 -0.2636828271397846 -1.3867854251844698
Ni 6.800065090792495 4.280312084622659 8.845229040022446 1.0626155964032216 0.11979129582873563 0.41797858450329306
Ni 8.799044443230038 0.06406934297311007 10.245192891025798 -2.742321662546671 -0.4734555345246749 0.48674762364789076
Ni 0.03956467863225327 0.5020760483260238 3.5160677390415738 -0.20759009791127475 -0.31804880348517484 -0.5190010843649578
Ni 0.8613506099362224 3.269251606162381 5.3697360631859405 -0.5440585415542178 -0.3285980397559309 -0.541545545324377
P 3.6052979320342304 4.037071795048688 6.045842322557021 0.5075241940736099 0.23762469660015204 0.06230734267965399
Ni 7.1095506424229855 3.312069564915106 11.90018625520116 0.8030645320436234 -2.1020498695939733 -0.01803757422800119
P 7.788500065865357 5.117787489232835 6.704022363337932 -0.49472215721293505 0.4115125171629751 1.5403180791297086
Ni 6.844459001104995 4.4886233893337755 2.571913316362 0.3212932785644015 0.19747820628825344 -0.47658533840290823
P 6.842984426546142 5.469362928427618 12.145882633024724 0.6003831842878757 0.4924189630010552 2.167022932031249
P 5.29855189796636 7.734134345098606 4.3996835032073935 -0.40149395658470854 0.02856444190125403 -0.25478269643667734
P 8.728449186224898 4.005138039758505 3.5436385968557476 0.140258562544152 -0.5774589713915346 0.18423959611079238
Ni 3.4733880216537414 1.4175361716993964 5.7573058673623505 0.9147265138970053 1.8681388743999825 1.031956476756468
Ni 1.6375150476074452 5.374169924562595 8.899116445666667 1.0536097933601856 -0.7980359684807804 1.2814771534632576
Ni 4.456219613402958 1.9166427955075278 8.27301300958633 0.7279798350936431 -0.49821217264406464 -2.146452821189381
Ni 8.30274872717472 8.229296481961804 0.8907858829582475 -0.6603716490263659 -0.42190080237583466 1.0072168079179427
Ni 7.437754074859931 8.783082173630442 7.879358742136448 -1.9936017666921988 -0.02651578690234143 -0.45713134344335465
Ni 3.4757012604929436 5.977187974314974 4.40730521045847 0.9469303523230594 -0.45666443110926513 0.6804568498120153
Ni 6.551055528257007 6.9526835576338915 2.8216832064043973 0.061376603335268495 -1.0986760895712047 -1.4018873138229146
Ni 4.022565667825961 4.70180079008911 8.943413587023745 1.7944006641755679 -2.7785737029001694 -3.3721141532345986
Ni 8.297670661037667 5.7632364219162415 4.789008051108839 -0.949674747837416 -0.9807629846017885 -0.5622573239504316
Ni 5.840117052978496 4.224628462843933 6.890086024392338 -2.4103457074574424 1.080629773592455 -0.9830790343294747
Ni 4.422101644547471 5.9954266183898 12.34535294164641 0.7860340589238979 -0.45093524193497175 -0.6080008487341335
Ni 1.5885315239805113 8.546219419023513 9.893246043364003 1.9576191779500025 0.36777625261728913 0.786352104384949
Ni 3.8777624461464915 6.13613789566845 7.048928117481197 1.4474711731003007 -0.27343399298927745 -0.3267836122550114
Ni 0.9783802197996757 2.532388266921016 2.6386553257230334 -0.7658393291435778 2.113544500497134 0.9230026378628685
Ni 6.918436563504505 9.029474366323964 3.698245896133398 1.2861236510963334 0.49977951713118446 0.20869978603568573
Ni 0.5683775285375993 8.691234610795819 12.49494300098756 -0.2803034664156011 1.2229927840741195 -0.8830965456965502
Ni 8.42387581109359 7.887287345217588 5.7276309759745105 1.4193494751634201 1.044535341862743 -0.3031860274407295
Ni 2.635230626310095 1.116824338694087 11.909034624163382 -0.7062871806115578 -0.0612606465826945 1.2916566650994206
Ni 7.268141136227741 2.1628506663811935 3.4362950986257665 -0.26472052437567956 0.3681513765685208 -0.25114561390472234
Ni 8.473651918545908 5.878004403050052 1.3085522092726904 -0.2047935090027441 -0.30387431175700574 0.725138508990106
Ni 3.8264748997713482 7.704200481553868 2.768120207163123 -0.8032090280412877 0.26957039626881313 1.9707917107762187
Ni 5.568067262960913 8.335198583560503 12.163795949087502 -1.2132179640755427 -0.9288408418112002 -1.1778987199489586
Ni 9.021272045340337 5.110727963532322 12.650075617451801 0.39647259211071717 -0.02758742269996539 0.46204060781951395
Ni 9.362903322353848 3.8578188252379904 7.823340576254681 -1.6528200403858824 2.1096384805745085 -0.3170350175086798
Ni 2.3821014711008077 4.940792461715384 12.883699837683846 -0.3095698194798862 2.0581325993857327 0.23724365911164952
P 0.5448396321418911 1.960529820815422 7.12489635553516 -1.1582176965802633 -1.7825671618757493 -0.7650656842023469
Ni 7.5106257063403 3.3126040981926903 5.4823262820181435 1.4029188404112225 1.2310161685992282 -1.2796645257345511
P 2.5119377610079088 4.153765939200002 2.128756659362289 1.0089641296263527 -1.4388605486131543 -0.07460698598261344
Ni 8.192118770896695 1.0333357703899684 5.4680818917796135 0.31477630338149015 0.28166692242203106 1.839901219710528
P 8.153825912821453 7.199223207783299 9.34255695826896 -0.30127312668873274 0.4223222061839695 0.25524498078507657
P 0.9184258614548677 6.893488605186893 13.46545360068845 -0.014874860229303415 -0.3449487131998124 -0.6542902187189764
P 7.590455486520263 1.1882306117065955 1.5649162124204634 -0.43699832013890544 -1.127422822686594 0.1391038801144185
Ni 1.7853134988595871 5.3376096915940066 6.3214974473710015 0.8675629688373252 -0.5699670338898636 -0.10259318678289428
Ni 5.729072372605791 5.384270760290745 4.440986336600895 0.33734107605588354 -0.023199578044914883 0.8463246282838393
Ni 0.2055335748858746 6.386999892493498 7.451713687886782 -1.8837948357696845 1.014355475845253 0.5672010411089522
Ni 0.6530789344163757 6.622461801269515 10.720682360055683 -0.2185255138768559 -0.2707356202215079 0.19286693276848718
Ni 3.9846598855724187 3.2796104924383305 12.436132359534962 -0.495305797630547 0.0005337610162829518 0.7053803525265723
Ni 6.200033054521795 8.93784798967317 10.01754438419351 0.5726448378323429 0.3063412852402595 -0.6384591652239907
Ni 0.4000695883899957 8.80133003379626 7.8472157815807275 -0.08774815135026179 0.11940203081011694 -0.4030710712638413
Ni 8.5775080479442 4.520474199805023 10.488326273944253 0.1635031348943894 1.2996201429208714 -1.1615377620924319
Ni 1.3245365974906684 5.888741149056708 4.151923642610534 -1.3874310291882685 -0.8236097031848266 -0.8645637769996852
Ni 1.5420639931946225 8.311070857341255 1.7981487487853125 0.07276427634691984 0.48679493194605833 -0.056820094312837625
Ni 0.4252488705915282 1.0043788124904713 1.0286512313383087 0.11580711437000701 0.7177797546321897 -1.2768784783489815
Ni 2.318289257066398 0.8676424352570328 3.3042948705535475 1.6750490269874123 -1.0338272114166196 1.269790718264265
Ni 2.627277139783276 7.5963998652106435 11.957553656804278 0.24761883169838647 0.28342324299150545 -0.02541664030089171
Ni 5.41052740352934 8.89267992771727 1.645295271623599 1.3726083623531393 0.9667988091122124 -0.4046304453311612
Ni 4.861229948174214 0.801768581667525 4.03122695014103 -0.6512720007179429 -0.15003132566019967 -1.0939681425725738
Ni 5.780203245434056 4.095335922305409 13.71434611886833 -0.4905762533653616 2.4161211764886388 0.5156666206750861
Ni 7.337547517494803 0.5524355343381882 12.808743526420896 0.4421271567250386 -0.0037725796685547934 0.4014409918595861
Ni 5.376584540402718 1.4330099884763712 11.751190633729049 0.0065257169336597285 0.788885412329764 -0.8091570180946064
Ni 7.9320591152607935 3.257445793600555 0.6853398609368048 0.5824055167635325 -0.5211019327580444 0.49857958328581237
Ni 5.672116930270052 1.9029845486561419 0.7296711018305538 -0.1327797376686036 -1.1808272064496632 -1.291669520615227
Ni 4.4815177831782975 5.33122294053597 2.134921302627398 -0.495859870361804 0.10186762147077941 -0.38494170865298216
Ni 3.021136004453198 1.615341132678677 1.2506889819741576 0.5701449542286247 0.2853217455657989 -1.025895872384685
Ni 6.349057245875985 7.23027221833817 6.143297876760785 -0.8833631690943755 -0.4984345730675158 0.6664913887708586
Ni 1.1496336226285904 3.3507587149030393 0.4318457485242016 0.4169432012602432 -0.5194137464223443 -0.02808955914736453
Ni 3.849293941069615 0.0675078665225379 10.273855855622623 0.010825115639962003 -0.6532484077180233 -1.041856252368683
P 6.041829636538739 2.2656561614063007 9.667620468504644 0.6283416171740147 -0.05039953549847449 0.38681964240198546
Ni 3.8332210783781053 6.659316949149874 9.809076405935514 0.11105700127953132 2.771600614016446 1.3365141877337434
P 4.191616424907588 0.245231886837524 -0.2638290368519717 -1.1688589783441936 0.9425502209774927 1.2111315138601593
Ni 2.347052677055045 3.238303972608431 7.759660152321469 1.3778719247449238 0.2255240566818761 -0.20843316263786038
P -0.4910886246443624 1.750356865723753 11.80205608313672 1.6900033343043992 0.6631895780911352 -0.9777727916252127
P 3.2233554730180476 4.76444256056743 10.766179436460027 -1.2072193232899466 -0.1341658193828528 2.6032985150715167
P 1.9658475053182893 7.956417243754864 4.018291244823483 -0.5899501618800097 0.051019428470660516 -0.14368275773435255
Ni 5.02872318587805 2.989451083619821 2.533672990005418 -1.2283504488416073 0.30714706897100646 0.8368498560241846
