# total energy = -340872.258209706 ev
CRYSTAL
PRIMVEC
9.24541352021907 0.00000000000000 0.00000000000000
0.00000000000000 9.24541352021907 0.00000000000000
0.00000000000000 0.00000000000000 13.53159722756418
PRIMCOORD
 96 1
Ni 7.910273861009301 2.8994078163485293 12.73412553591342 1.2555383221103087 1.3272047374073594 -0.0045608798978050485
Ni 2.3459681349198553 2.6373373328989174 8.869474389243162 0.28093621490359355 0.5353818397158263 1.1708055605476029
Ni 4.644507299964013 1.8846867325790853 0.09140292882692069 -1.5249531666378642 -0.5955227708717807 0.15527971854333258
Ni 2.2168559391471243 6.726740777052654 11.989427840055006 -0.982639889909527 0.9400742486331746 -0.6659473433419305
Ni 4.164503935830205 0.8782338218622409 2.472222573462844 0.4323852468469263 1.2984178950826541 -0.07130903195763202
Ni 6.819305854322727 0.670846259509471 3.5170245337210924 0.03871232896853333 -0.5448851512205712 -0.7823944052887816
Ni 3.390182086896604 3.007569905739519 4.2002346843445535 0.9844484038731757 0.35274301243325057 0.957338435030261
Ni 4.88673712661962 0.5359658504218383 10.680624954064486 -1.523599480823447 0.2660700964250386 -0.6537243189131774
Ni 0.5724084957549834 0.19340757300597816 11.6147509970742 -1.9204068305657633 -1.0942771891725607 0.6246351148567049
Ni 4.384766660648647 4.392514316936333 12.353089697712242 0.6222151925613026 -0.15726795261795495 -0.12136481096344258
Ni 2.7054390467594214 0.09491526131342698 12.725560585096101 0.8172577928248699 0.15547177994948064 -1.2199354853050346
Ni 7.267948776776542 3.3115128657129187 9.753561482222032 0.5932961955341073 -0.1766407007176119 0.42236360094486614
Ni 5.969448979290793 7.661202428562658 6.723160028508237 -0.5352445428070137 1.2077412572316877 2.0335993901310587
Ni 4.263032304634358 5.511384980754457 1.3210373413192744 0.3669167328304713 -0.19513464575674136 0.7051173286731728
Ni 5.183006393611181 7.501192061771491 9.58425392788564 1.2603365148299004 0.5123069601742338 -1.2937109765252879
Ni 0.7125227332727588 3.554547043319633 7.284559086187591 -0.76547191850183 1.066869486583569 0.6418085413121979
Ni 5.9679327315208885 2.4889946776054366 11.829104978296627 -1.1166151905481287 1.505108621108111 -1.6210324635616404
Ni 4.828315360412109 2.712262161723995 9.47114369333335 -1.5644391405476281 -0.5441937815805015 1.9377175539300693
Ni 5.313098603186412 8.430513263524986 1.2470675636809725 0.879689062676898 -0.7476107219506931 -0.03556375603722262
Ni 4.986384190424739 7.966994471182284 12.372832353125997 -0.09174467410416458 -0.7292098508460022 0.308445733177772
Ni 0.4802280276753247 2.584398096737467 11.327516347892098 0.17798358789875154 -0.24681998994617496 -1.629959076627309
Ni 3.467473741508851 8.275680328143252 6.451404974699016 -0.5225633477949193 -1.1519609170372742 -0.5047625721680725
Ni 4.953673918413001 4.393392631193291 6.209893516651469 -0.44906450727482017 -0.6530573747531399 -0.5273890513183369
Ni 7.248413218619165 7.832039174247478 11.206259979741859 0.4752488789796718 -0.8541292119299226 1.2391043449240013
P 0.1490739674800635 0.8762321898977012 9.611168250342782 -0.022560401799019213 1.8736932285593086 -0.5552091588543987
P 1.143001192351373 8.156812050230613 6.596720681700625 2.4773514840540303 -0.5571390288872597 -0.14460449821767354
P 8.665050906372294 6.004257960105998 5.243480641556002 0.31225019452552677 1.9012698526259966 1.7041480012358972
P 5.202310816437781 2.8302151437267518 1.914950668249866 -0.7235084295858507 -0.010539723189059267 0.7653333360414368
P -0.025413791889730194 6.832554531482937 11.886222216697224 -0.9600617474986949 1.1440632594567521 1.1888287365979011
P 3.134620374361708 3.0085314287155565 6.844173242290498 -0.492278580768449 -0.1982492801263231 -0.47236127301923164
P 5.572543389278382 4.588341414584899 10.189049106189271 -0.667176073542709 0.03883857013375247 0.9345571754696872
P 5.943302950673158 6.217984177770031 13.377729260796043 0.1174914440509654 -0.06020006652866407 1.1428964928421608
Ni 7.190222587742433 0.8845826471280578 10.257166537252267 1.0240652469338494 0.134986001291303 -0.3676852355653797
Ni 8.355357299369132 6.5038246186368776 0.5903279556795596 0.1660647249739785 -1.1014824486717483 -0.32114801123578884
Ni 6.064648999331739 2.6757242886345693 4.7585078678104615 -0.3625890519893949 -0.6515170268492135 0.29539455642076873
Ni 0.41446355427965065 4.734585361074913 12.898547813898483 1.0017758394080294 -0.0188991508973481 -0.36930374500540913
Ni 6.937166382193173 7.488387164446376 4.6058309627942275 1.9123235393369968 0.42312104793618094 -1.3722746331628044
Ni 6.956572504565314 1.4509566616670826 0.800852486741652 -0.7685641842739086 0.32115880986906625 0.5881347059378258
Ni 8.945612216284164 5.0954800665520725 10.601289138586836 2.7459479464453485 -0.3844611694721379 -0.9993787999307627
Ni 0.358552842305715 0.2469921390109615 4.854162762182379 -0.6014427359006417 -0.2770186250167423 -0.21055123742212767
Ni 2.9275138725711645 7.559096084838058 8.70541730508073 -0.9261596954346114 -0.8012976699511878 -0.231992180904723
Ni 3.885837935630715 0.5075685636824223 8.078755799944153 1.1189386964749828 1.6674722430814186 1.284281455681272
Ni 2.763731377181696 9.161696014322136 4.448742146584097 -2.8693729823719294 0.703330154865763 -0.8206904726555028
Ni 3.6847224616139442 4.618527688784538 8.274017078302972 -0.20743274639780404 -0.5311256355426337 0.236358942513851
Ni 2.1607640170738587 4.246926794785729 10.985234508331848 -0.3648333679388813 0.8434786741946118 -0.6595622657511931
Ni 9.137380577524263 6.161254322183817 7.613133676091366 0.5989433665175556 -0.5054793957294391 0.24962043550944754
Ni 5.978324575992679 2.575069474787257 7.669560282123599 0.4584698597491201 -0.5192977896697701 -2.4207129096243793
Ni 1.4737096236288938 0.9218906631396369 7.582092201167848 -0.8226432255064993 -0.9774220931540136 -0.7043084596186321
Ni 2.464780940353107 3.5219939433328245 2.264472590911413 -0.4748231042961629 0.7198075836954958 -1.450407115800173
Ni 4.1186836678567245 1.3868119846695026 5.739791990088201 0.4974644958447626 0.03292246175963362 1.1354199819594575
Ni 1.5208889673473502 5.789163421283758 1.6387300798500104 0.747364410267842 0.7054885959696624 0.25014159812024017
Ni 7.119763293507991 3.3191773132815254 2.5576474180945152 0.6520623578297222 -0.022845537139605816 0.07351580980096371
Ni 7.42755234538554 7.855383842656082 8.991570240914788 1.3929969533118203 2.7034023597736536 -2.6481388113146584
Ni 1.3281313468915203 2.47061479610195 5.360055132445998 -0.29147336698949156 -0.08194928528029757 0.8778928900084235
Ni 8.037620182854885 1.1913362127237206 7.818489096615934 0.9815973075776255 0.39512147739946146 0.2547024780180452
Ni 2.3981862288492777 0.59063397885751 10.188832763519663 0.3642178458420695 0.2016958439140268 -0.4124142030416381
P 3.24231094767791 5.327271821669735 3.756804325870449 -0.394196908702663 -1.9297700169482181 0.43600510298770073
P 4.451888360706651 6.4019031831769 7.331919640005378 -0.34409382139868483 -0.5181078831267271 -0.07140004900954154
P 1.5368927776504362 1.604439766717072 3.4680395607985957 0.9042343561164298 -0.914065997494871 -1.758972919495577
P 3.4972439721130892 8.002709502494138 10.758160687586034 -0.8299850105835513 0.5898097796474036 0.26607189619725147
P 8.082275528761244 1.825432879180773 5.344141927192577 0.20035758471857754 0.31757803449634336 -0.24924402600663523
P 7.7031858500452195 3.939581522743274 7.720682794585132 0.9213854139744196 0.03655440208526607 0.2154723288728289
P 6.204929654287675 0.4906577783413624 12.323157672376459 1.3927074470958594 -0.21162467299196455 1.2106370907222441
P 3.147896787761611 8.493113956512968 1.0555442058914986 -0.4918270950533272 -0.06018669679222537 1.2957704301574782
Ni 6.55415664826715 0.4575582744325939 6.051411416667407 -0.9555587174220189 1.3357042902379381 -0.9261810355908501
Ni 7.061128882796164 5.113360695741078 11.839294348218655 -0.9723233384748674 -0.03894707068715873 0.7408829163085563
Ni 6.601502409423767 6.045474012290376 2.15267428049662 -2.039057842142469 -0.6321046837608727 -0.9993358625079692
Ni 8.649842201607084 5.776682113421733 3.156908292037993 0.6949360172647967 0.5487448912862937 -1.2501672876063825
Ni 3.4818780953229513 7.2232287129775665 3.0960022832952783 0.726528190248781 1.8158742606683114 -1.5572817035672404
Ni 1.368764938042337 8.447755959201045 2.490584888681191 1.1263768979205826 -1.118641734059854 0.3016441368749063
Ni 3.807797402546747 5.770875993912583 10.235096811328237 -0.6925562041787106 0.2798648362162858 1.0819443786388203
Ni 1.257496389805687 4.844208225756422 4.73500325375296 0.2586858881458255 -2.2635071777029276 -0.07292188497070667
Ni 6.402689043301546 4.06791710380459 0.44788942127547815 -1.0232000707200766 0.6015599782047962 0.04569235983079227
Ni 9.260668162961382 3.1560697330579295 3.155257061234913 1.5058758382914388 -0.5663985998123149 0.38929124387092956
Ni 7.66547380947544 8.645885164744161 13.466563813827356 -0.29510093643974983 -0.09548485787288716 0.5611548349148723
Ni 6.915384188620631 5.6712566663471575 6.742212976094949 0.5917846439855873 -0.7321820461004487 -0.5941305185099446
Ni 1.435766447728336 7.01535484188884 4.5141405016158185 -0.21230344422654407 1.9123875598057127 0.5745762505271007
Ni 7.1322538467832475 5.858984782005252 9.575566937613669 -0.547675826591831 -1.5912678307046981 -1.2468770468908847
Ni 5.007639395443107 6.479361255227308 4.915650307417333 -2.024587673550752 -0.029683385997045654 0.1797782179053291
Ni 0.6380971567621622 8.148537405388753 9.253000941768805 -0.2424660838528534 -1.3818067410229558 -0.5535623672795951
Ni 2.1637872672004383 1.3065340615836007 1.3095610098754726 -1.1465762556865928 -0.3305302237816372 -0.3498780321806297
Ni 2.349056102939053 5.907541692295148 6.713011338404426 -0.578343687989333 0.6658357574647307 -0.08668602863433457
Ni 2.288840726564703 2.879557914141293 13.075825838981432 -0.20827092602838324 0.8404252320802689 0.3928475937636202
Ni 5.400292095369199 4.649712467613139 3.509392445098794 -1.329135121660853 -0.8064097943667725 0.4211119879259522
Ni 9.045814004883152 0.6890014774714409 1.9307695702883296 -1.472419358405206 0.793228262679492 -0.2545201868039101
Ni 0.7346654979613152 8.260277469700188 0.14095557012180823 0.9342033916746944 -0.4053027888078375 0.20239338420168368
Ni 8.36157021706045 8.185056787651716 6.546221310090871 -1.1516706394903649 -0.19305950839526753 0.15870879882953956
Ni 7.876518857302445 4.147104068129218 4.812905105638462 -0.6352733112968414 -1.3160196673248172 1.0902032762135032
P 4.738126354342437 9.076471795157579 4.203617581045823 3.477383087077444 -1.3586205327144796 1.20144719669286
P 6.056531526514807 0.19481195127578685 8.31578877982254 -0.25993878671632004 0.2310151617034344 -0.0951513857928684
P 3.3309097426718295 2.3972709329393957 11.278193917386666 0.635976508011453 -0.7303617050622583 -0.8072130069943582
P 0.24543243779886992 1.7030420988270738 13.328515001625416 1.3085724670181529 -2.0437182237326157 1.0789606134201482
P 1.4354798399181712 5.514297285922263 9.053531151307176 0.8743941328265458 -0.5643239766714733 0.1846694845593594
P 7.602817644008072 7.80643862501048 2.3927110951338024 1.168506222990465 2.453623287199155 -0.1257354292273125
P 2.7710629898739825 5.346983042678503 13.395645022555327 -1.0217268286086598 -1.7057474845125333 0.3364090511599174
P 9.199879570966703 4.304359301777509 1.3709265156557748 -1.0562482594242972 0.528061137684697 0.7485417184053947
