# total energy = -340896.2551035437 ev
CRYSTAL
PRIMVEC
9.02068896499945 0.00000000000000 0.00000000000000
0.00000000000000 9.02068896499945 0.00000000000000
0.00000000000000 0.00000000000000 13.20269012549688
PRIMCOORD
 96 1
Ni 6.447690909948827 2.0298986136643893 11.372586658291514 0.2691520777844719 0.704320029582858 -0.24448954204078535
Ni 4.690623039129871 0.24118887157153976 6.049578130209353 -0.20199820564579407 0.09706325810360059 -0.31005832908053055
Ni 2.610957283515465 1.4195317248182795 4.781974655916825 0.7285858441087582 -0.17824146954582853 -0.2053838342885753
Ni 3.4928829980391725 4.509415435814312 5.16561825028602 0.6114124455188439 -0.09987244541762154 -1.6266318120262888
Ni 4.926117149651375 4.499149891580287 2.5540737199079584 0.1323349368217011 -0.6834061622483262 -0.22789512801721398
Ni 7.169400164770839 5.927512871060351 2.822866802297198 0.029464328007704096 0.23206494312418743 -1.2252335004791803
Ni 5.1218570831611485 4.368530312925902 11.471778156004472 1.017542101103351 1.0702057500456537 -0.3867160269445856
Ni 5.7918507271802895 8.079001353556402 12.319007593913652 -0.7915120513193337 -0.7549710189705062 1.2919009198997427
Ni 1.9686120516907781 6.5196128644109415 0.2724428532126895 -0.9546050952594979 -0.2040923691706614 0.013109026578132262
Ni 2.7872846940097515 1.4233564970109218 0.3794507780599026 -0.18130519607281675 1.687578012692358 0.3340950583147601
Ni 0.6204529213663771 -0.10894556887310825 4.754658205082488 0.10071730991642011 0.5950882544375234 -0.5339214531202159
Ni 8.391532149278767 2.2460704080617435 1.4820676522368932 0.9145560497574121 0.9155346116205976 0.6535140026745843
Ni 6.726754948985572 0.8729275771129514 4.768071969824136 -0.05877490404636329 -0.3637146809534059 -0.3051048417299971
Ni 0.8795126801804722 7.384751076457037 2.6245234979034713 0.4840261109516697 -0.8828461202486408 -0.530352504822035
Ni 7.620822511083092 3.683084228420921 3.944118616086359 0.2808539396024324 -0.3385111851045848 -0.5436335382016573
Ni 7.493964559797413 3.9720169013698134 12.835589986113478 1.2168409055401108 -0.43647998574159025 -1.1261239013695121
Ni 7.672673432222967 8.886280865499652 6.880159886322492 1.0336454344231165 0.010951613915497267 0.30327164517600025
Ni 6.684375751435965 0.927146429150395 0.4390928684044606 -0.04132739799387721 -0.8466408739726774 0.18177442239975145
Ni 1.9395203292349499 6.4124019740582225 9.282494790176504 -1.0432562180400033 0.4142581982289124 -0.40456899596560647
Ni 0.042118499633645744 4.955272016931139 1.4761004663750232 0.1566398321156528 -0.8710599262469901 -0.05590169626362631
Ni 6.331684847690857 2.046415495467993 7.054857258290339 0.634830567332468 0.32148405441896893 -0.24927025125888036
Ni 3.304251367566669 4.29015856573327 0.46566150410962365 0.16635885917562962 -0.018807876735122447 -1.207519628139185
Ni 5.926240953892515 5.484019710496525 4.795309940663012 -0.1071538095703832 0.41094687446749223 0.4378616965804653
Ni 5.297931914359694 3.040044403532947 9.202037459656188 0.010402683390562729 -0.5117433743612798 0.13728482462780872
P 0.25267581711425346 5.510720950331953 12.429976503359423 0.6392006713757056 -0.4983199018665224 0.10627449228922341
P 4.1920495507163436 6.071302655849778 12.50855933467778 -0.7762942059283147 0.6697080959359435 -0.25340972734855066
P 2.3436562231089217 8.42737134720652 1.2547336571056344 0.28314376407787367 -0.06591845706968003 0.5143335036859594
P 6.3232595240400835 7.67089635646365 5.732317787174248 -1.4994491088294888 -0.07673817339300333 -0.08088947655721553
P 4.724405519935167 1.2964714836578426 12.548932330964078 0.19802585126160732 -1.130992285205407 1.1492188355157629
P 4.198481302068593 6.169862705323384 8.034285797521195 -0.4022174650142944 -0.2263843477996424 0.7868007618865933
P 4.652285110312113 1.0237940925276798 3.7988629693127236 0.2908449893768733 -0.5022758011904769 0.7962454522392609
P 0.1461892880989619 5.557015126965537 3.6523002246836307 0.3768082809125704 -0.49226983901770055 0.1258452153322994
Ni 1.3520479494098916 0.981378812221539 2.4245023453308967 -0.23723877401564303 0.8321370239295476 1.3190589683717735
Ni 1.854644665177 6.377031851965414 4.770343379347974 0.5369095892142625 0.3099482858652275 -0.46398359047849774
Ni 6.070256255910282 5.731087365176426 9.258729784654061 -0.9339303405189657 -0.2635948954116686 0.0412741761584386
Ni 8.55207335378927 2.325127727628528 9.97291578473866 0.7144080099464793 0.16821570987871032 0.1762673765385932
Ni 2.4536184236473857 5.166283977144079 7.100248463941651 -1.2863715054410814 0.9884469835096075 -0.008190506230592346
Ni 0.43902431116704527 9.01505120288165 9.05554056605777 0.4540550185108761 0.2134738103855614 0.18700893132581342
Ni 1.3152164756774432 1.1049532326625904 11.34802963626314 0.4396175029293074 0.20327604391695314 -0.32416134414081593
Ni 3.973812018507398 6.804702723788924 1.541664639135783 0.8525870642537833 -0.1732980094976241 -0.36153489969326763
Ni 5.68665145050436 7.888872288687722 7.979164876570392 -0.55409998495062 -0.06520086217736513 0.3461530179205587
Ni 5.249057820633903 2.958316959982621 4.979276070715622 0.5794580040994343 -0.7377554264231682 -0.995288431911473
Ni 0.6818233757489308 7.4371612803231955 6.7470496953983226 0.0971938701441939 -0.24690997855681993 0.7497349673825474
Ni 5.193138568694777 4.4241248200562175 6.982401279031516 -0.16165759704521834 0.3839220091392162 1.0455216170354122
Ni 8.024155563624173 7.156148772433596 8.961854394923042 0.32101482809203424 0.9201158032333767 0.61394832456682
Ni 4.545092261337661 0.3967551660248686 10.633975338239892 0.11359262321719146 0.09266564325653719 -1.8085386462388466
Ni 8.086741104833022 7.283015744408408 4.687496468276168 0.02375930720312682 -0.936328151327181 -0.05570037888609762
Ni 7.3623436846492 6.104634102198394 6.931530906800461 -0.4190530485143944 -0.1689991250119541 -0.7197651604933346
Ni 2.3943344546614314 5.0377932811252215 2.395733563546051 -1.0281633282626228 0.7854401340936409 1.7311666959165861
Ni 2.379414234834473 5.208049767832602 11.44133242810969 -0.2586822886013997 -0.5405227604868175 -0.3196611422776172
Ni 1.1450952993070664 3.223588365334106 3.851330003520424 -0.2947700354628923 0.45324743500791626 -0.5328315624901467
Ni 3.5397454780881734 2.4958081867251867 2.6966628509737047 0.12491653287044294 0.5204961808532456 -0.23394621930730036
Ni 1.137337506652179 3.2561530531063663 8.11733116375394 -0.46120371374051544 0.37318636788926696 -0.4725682468237152
Ni 3.8033029525042767 2.315782293686128 6.818529636092891 -0.4727289407712955 0.9603108873950236 0.9704880850383415
Ni 4.121173996193726 6.927781006327628 5.84328669662002 0.21679824677310403 -0.6803411501697574 -0.10127703907463204
Ni 0.5626059481594036 7.424938246547181 11.339698127779359 1.29780982918501 -0.20788088967881618 -0.25164415080769564
P 0.2367994042391348 5.663711838037641 7.99088906623732 1.4329444402390354 -0.6430637538755377 -0.009454203434364363
P 8.59865619247513 1.6566224973164292 7.788900501364709 -1.137520059021596 -0.5881236501942323 1.9897823929461085
P 1.7105752390244318 3.207423290406713 10.305162198631399 0.14461915350569288 -0.11540525094589803 0.09690744925202666
P 3.964601894902002 6.007869169862372 3.596611000317412 -0.48031986574467594 1.5191337317426097 1.7022852369955455
P 7.05487349553078 3.970059411827824 10.314668200840376 -1.2184468165746498 0.3928223969526396 1.3833213778952693
P 6.424363407849362 7.77230694370347 10.335567333425077 -0.8610459936544139 0.293307849095069 -1.5975302666746423
P 2.460654561171586 8.363107957818823 5.723749034566249 0.29103833633460197 0.21788736607222473 0.48998489963826575
P 6.82554953637665 3.95645621261437 1.71261301269971 1.1859920384800544 0.7262816214556137 0.10245691831534613
Ni 5.27332347440326 3.097848979500993 0.38851386443242064 -0.0283114453501835 -0.34129311872509605 0.04806445960739464
Ni 1.4872500381441405 0.9755604677303733 6.9298548627594405 0.47977530609511565 -0.14725144892221737 0.29774891558555816
Ni 6.810917978601967 0.8126865130099231 9.148157785530167 -0.11428399285726122 -0.642238686871081 0.32636143711592824
Ni 2.736579400389841 1.5115788367374332 9.041902186156694 -0.32061373599887366 0.07297022171013885 1.045946877498289
Ni 6.078239565793509 2.1363607868190204 2.5532023213376545 0.3900553757304637 -0.7141624695945764 0.6138501084260589
Ni 4.049378331379482 6.9821035962901075 10.288605625795608 0.6943541766193977 -0.23219966892983882 0.602051316018918
Ni 8.283536458971426 7.107121326992534 0.42289171072053267 -0.3877529528495322 0.40590031318252034 0.27715412215334206
Ni 7.60682240154776 4.070667157734755 8.282562224544998 0.8130761506433546 -0.7633569290413562 -1.255338804504993
Ni 3.2180677035843486 8.470625551602085 12.438280949775807 0.14897280248869826 -1.4037485354013695 -0.8260494229745708
Ni 9.156270091268006 4.871397649367017 10.147904524965522 0.14555349239450419 -0.2671543306281528 0.2009839054486668
Ni 8.809370469946662 2.2921841709126567 5.7831349373394145 -0.33041940923538576 0.44659907645346314 -0.33818825454752727
Ni 3.5590046493883882 2.7269994285299686 11.378936321372649 -0.8285657616385214 -0.22949615395574668 -0.2645186927775186
Ni 1.1580399882137682 3.1704565063372603 12.64667239979544 -0.18360093408552897 1.2276513658920534 0.2331430066797146
Ni 3.0275417283937913 8.180168382189615 8.026140115233563 0.5519525995903138 0.22847722577292906 -0.3161500438005652
Ni 5.5606234026189725 7.759759165118647 3.5705881163048314 -0.049331499245276335 0.21664089525963334 0.2528826512004871
Ni 3.0882960697085213 8.371019102188983 3.369432161039251 -0.3207410056053573 -0.7602317531488133 1.6015540431220545
Ni 3.2774148173942383 4.3325016805263425 9.104813374243266 0.7074264364223236 -0.40223623406737175 0.9429477135262275
Ni 7.439993776711144 6.174264801620575 11.37104141424293 -0.7751621492064006 -1.0055062529847394 0.518627760185939
Ni 0.49959553249236305 0.12571954031701912 0.32576144047460076 -0.6266274626963853 -0.03201974743970614 -0.5055285037998197
Ni 4.498220760599527 0.14351826204650583 1.7036879428709357 1.3560987947338903 0.9198291252308933 -1.3540496255143453
Ni 6.059106684141164 5.725368248265729 0.4784537433699678 -0.31987994315664264 0.5050214822564142 -0.4292963235089574
Ni 7.9355272928866505 9.018659478535087 11.32657482922781 0.08401748066323596 0.4532456352357033 0.19547274582245044
Ni 0.25790601267390906 4.72019285810978 5.812656044598001 -0.09513235962947487 0.5660504724442769 0.3180503461470716
Ni 8.0531931619452 8.681583387680224 2.595265794767585 -1.2765478344824401 1.0087471285195402 -0.37978844658681693
P 8.53368016864588 1.5189306983813093 3.7540662270753153 -0.09447107189639213 0.1724192064370966 -1.4043229198476008
P 1.7583307672976582 3.1149612267874134 1.6523295513577536 -0.8070494848333003 -0.5622490964203156 -0.962117087365827
P 4.686302129034882 0.9342006080528625 8.377304718377268 0.8630954199842749 0.41972282088790946 -1.0005509658619929
P 8.461523676266292 1.8587761408001842 12.43066297780249 -0.7410932325471495 -0.8727802513722064 0.13057681648001382
P 6.368029204210092 7.727194477346386 1.43641304246288 -0.11884564408601467 0.4259695731285696 -0.025467548143485175
P 1.9787242442095325 3.24362331589981 5.9582553796276265 -0.3804057684558416 -0.8209110733067412 0.3765087473942806
P 7.154741544928755 4.028080484335076 6.062926043920326 -1.3441624483076204 -0.3532232945037788 -0.5113420251578031
P 2.2852743230363264 8.48827904023652 10.273858603200015 0.36964467328459566 -0.4519932508858409 -0.41292662390168244
