# total energy = -381165.9277945882 ev
CRYSTAL
PRIMVEC
9.32248291983644 0.00000000000000 0.00000000000000
0.00000000000000 9.32248291983644 0.00000000000000
0.00000000000000 0.00000000000000 13.64439608419713
PRIMCOORD
 96 1
Ni 7.72233483474946 4.085363814142411 9.550272410697408 0.4523717172711822 -1.252369951684656 -0.4388947658306699
Ni 8.726133205657195 7.549113775730778 6.961630466160064 -0.5303471055053963 -0.6771547820219758 0.05963031006812312
Ni 3.9111638943951914 1.5533307839088804 10.521371239782102 0.36904380647580315 -0.5856625902482494 -1.4557287851234026
Ni 1.0702769981001483 8.109171272184486 9.551487130249107 -0.43702711649431186 -0.46096640091872865 2.492081076954721
Ni 1.846457620931884 5.761182703882327 2.1263838218443203 0.16253048656847494 0.17999676167403839 -0.2458509411646863
Ni 8.737749019635844 5.927421223037441 3.05671356770957 1.5766691069549168 0.14805543288075146 0.46827090499994195
Ni 5.632383276973005 4.113349908495465 4.3162276508439055 -0.8316387441368903 -0.14329992047363704 1.4367468447042613
Ni 3.9534600003511553 7.203809000635141 2.126684005801072 0.81267531566051 -1.6004440978873276 0.5298894491426874
Ni 6.435086364306552 3.356606662987552 0.7688326416295116 -1.2238078237762473 -0.3298887335428964 -0.7747361174125754
Ni 5.629521274652423 9.184314606477937 3.219408611027375 0.22236519933792023 1.8062596203966828 -0.8599311633236801
Ni 3.0980475934066276 1.097685098499208 6.160239984451072 -0.3928187974082138 0.7764952661955272 -0.2569604208142865
Ni 3.90750948100865 3.193090308906088 13.38539840369978 -0.6459649866827326 0.36361646481264476 0.03724062951901328
Ni 2.246177730051094 6.96365251275073 7.976323090852269 -0.36212831030289244 0.09773560158027683 -2.8173834766785157
Ni 6.87489315088017 1.0522939281444388 1.0079049247260299 -1.463213523536222 -0.785800088536221 0.31421528867169757
Ni 8.000592311181817 3.9305733042696276 12.083614317562242 -1.6688413555148034 0.08031252100782298 1.2672574103194498
Ni 6.523631309065147 2.5676635607523086 3.020351222265171 1.0078138180719933 -0.906514410399858 -0.2431003750027426
Ni 1.188635243905067 2.943163858702554 5.684514602629992 -0.5367519805904756 -1.2010641023218283 1.4945408728945937
Ni 6.920722477941998 8.431263064289082 12.723658719262186 -0.19506008376506406 2.340307314682118 0.37279221777464183
Ni 3.5250173207117057 3.7258888646908 1.9036939383502738 0.09100882437940455 1.7349631868445412 1.0061798820129964
Ni 1.513430556117052 4.093381149633293 3.8170608851951275 -0.3628248221492848 0.6077799909725791 -1.4763744863982122
Ni 7.147482557570136 6.399791443180416 8.847872716092978 1.0570609851335795 0.2329900260416181 -2.514679016859895
Ni 7.042958876728552 0.15075387467795673 6.92575941557656 -1.7034828568480727 -1.5600343266117134 0.1584079797596691
Ni 3.6274807327817955 2.4537241719505043 4.230704122867397 -0.849695087417969 0.7210697382373711 -0.6508999620905047
Ni 7.400261687611122 5.932259591781356 4.928533003993713 -0.6399429488583689 1.338430688030166 1.4228261208581108
P 3.9811477752440827 6.440549339420106 11.063422360072279 1.1271207180651428 1.2289911677493994 -0.45690328659294854
Ni 1.0126454073970916 7.150512364587039 12.144072485149989 -0.5824762221004678 0.8837498630098327 0.3196624278291979
P 2.819818084423657 5.338892863107973 0.19493218997765177 0.03589388568313173 0.11494682325224076 0.7590544450112605
Ni 5.046045700578837 5.330745012853287 0.530993723050951 0.6313544358584094 0.6270735490948685 -0.03087740630514682
P 7.591689556180609 2.000595556985643 6.146364400561969 -0.46345394322727285 1.3690556120048745 0.1295270350592608
P 0.45828394813516016 3.3487478097098626 11.095678151698383 0.43343605670894386 -1.9345435270774618 0.5622187574030124
P 1.990350148026947 2.7038277493334872 7.787771208328058 -0.5173846318074574 -2.4164381935084256 -1.202393105545897
Ni 8.927405616410834 2.234300886544835 8.001428537918484 0.4660067915561136 0.9330859902407995 -0.5339101402663062
Ni 2.543695456627825 8.911911649450548 11.66089657481227 -1.073451253566145 0.48530857720851905 0.22321263493988008
Ni 7.0382230552990555 0.9009387533046661 10.759057269637347 0.26259679316445744 -0.3731532006584864 -0.2896643388052108
Ni 7.981872765058922 3.7421099853351416 4.7823061271231655 1.252428058616101 -1.3572966716967334 -0.98280572606343
Ni 7.840702403037508 0.6202192090779577 4.366984842487688 0.18072386964805007 1.678776612350644 -0.1113591059009824
Ni 8.65366022181288 0.03300252252473159 8.72237158371467 -1.0616365203194038 -0.2665197823679475 0.3857824593867227
Ni 4.900670898666275 9.001538002252099 11.442054080105533 1.0473298738887447 -1.0704163233945632 0.10518768698294788
Ni 9.33422945767429 5.176159597609339 6.7917571108329815 -0.3900152665211477 0.2068102823224567 -0.283740260011292
Ni 1.9407825052304164 2.046313014249925 2.1035567896548177 -0.5330537058032819 0.1680807269627428 0.8749170952095513
Ni 4.06015581976178 7.299755996998109 12.958424015153138 0.4508781634447912 0.015501695180024914 0.7294805880088856
Ni 3.297119898141838 4.220297434950571 8.27602227848117 1.2787720958272688 1.5998920820385996 -2.2872322892340096
Ni 2.0371956257498294 4.915344487111213 11.858221846209117 0.8578012614648711 -0.4821330076940148 1.5445647702212044
Ni 3.5944977874716346 8.568853592788987 9.482309644190869 -0.3811485601591371 -0.7310479324960054 0.22125499699287704
Ni 2.755539563249672 7.066498146629105 4.312270256755673 0.29791603729104177 0.2330964697124953 -0.5655599059611034
Ni 0.25312499416507006 5.065594947700208 0.022885763833214764 2.106642888281294 0.9713928562407981 -0.8705747590804556
Ni 1.53561806596391 8.317099935892182 6.063160306387939 0.9311504637809835 -2.0861285703780266 -0.18230047010655057
Ni 4.616614837727721 1.6747840941126044 2.163359586678603 -0.644008120066678 -0.570743764154888 -1.5380426528319704
Ni 2.3673420432778216 3.3523556106807595 10.038728575479356 1.4647178759958903 -1.531899258938394 1.0381929445844829
Ni 5.959443952585321 8.520283455687252 9.095873141282073 1.3072869154375097 1.2306649559073966 0.35171868493379427
Ni 1.4914015284833864 0.6244292424589833 0.37937192519369084 -0.5534826630815952 -0.4669771258891829 -1.6895688178701418
Ni 5.514556412706436 1.4268153653661464 5.0741604451990705 0.6974952933515407 -0.1562438822288148 0.9053648701764472
Ni 4.694112639978532 0.7703503418829017 7.906013855342178 -0.8660750714378891 0.5362984379928247 -0.17517877146010477
Ni 5.222986430365964 7.672207842965194 4.736351878787409 0.17875440462650502 -0.8563282764637704 0.031337890881333125
Ni 5.824072175070102 8.062130022315896 1.2671137713810408 0.9372370362946956 -0.43688236338633146 -1.2806577428857557
Ni 7.956944445172159 1.7826918363299904 12.762858828571032 0.8757861280780659 -1.4055796750728373 0.5900632904191064
P 5.674138678907491 2.717214835106633 10.41871112331799 1.191349703247542 0.8275895137681811 -0.300425948197089
Ni 0.9740782946927007 1.2935504690380657 10.016214778722986 -0.3633112748674001 0.09824905088158561 0.7235356832793604
P 6.890601534952419 6.426621549625482 13.089846788814942 -1.319281883015857 -1.8424828643947753 -0.6349133568542613
Ni 2.1564115400026096 5.324713366268869 5.795647924009989 0.5468134785915356 -0.29238405172921905 0.5128826301720457
P 0.060610124062750334 2.5288913534190813 3.501561020911 0.41568001827710344 -1.495643104819837 0.5841181285792649
P 0.32615080125893187 8.275092826913216 2.318182725242338 1.2024314149830002 -0.9807149049726723 0.3125199032471456
P 3.55919354386237 4.712841508584555 3.922831914279363 0.4813061409173453 1.1200458134962323 0.4399134369031714
Ni 8.977896185037128 0.8859426069434663 1.8653803971869898 0.1499631914264256 -0.28411229863873005 0.8263402147421123
Ni 4.569126108668943 5.670465620554692 5.925461637083738 -0.245572490692319 -1.033240485675214 0.29120622937103396
Ni 7.782875040188743 5.30086645442506 1.1248862397728052 -3.393830461865768 -1.6459212563835202 0.45916637159551243
Ni 9.255985856773165 0.47065861224050426 6.284213161844545 0.11865101157670534 1.3705157414901685 0.9147828210562375
Ni 5.897999466282531 5.932520621308965 2.9883005252679036 0.2839446627126142 0.6024755480405302 -0.9336079241825406
Ni 0.7359186826945049 2.8540409199899655 13.53524147177604 0.23718298107704316 -0.38953729844346463 -0.46930603113267566
Ni 0.8459668670382937 4.256216962446346 8.825031700178782 -1.9822889127825407 0.5177006203859794 -0.938175488948565
Ni 7.658671597461985 7.827734829005164 10.656601315553761 1.6313970946254164 0.15797963397299888 -0.38776580836533864
Ni 4.874558623422136 3.1988795709291544 6.870240299550519 0.20400340900128094 -0.7057166528200683 -0.9063848268005293
Ni 6.523500794301342 1.9228460476903515 8.607540033277427 0.6465769092351188 0.6657586243698921 -0.3268890274846241
Ni 2.559245358486883 8.901964559951978 2.4908528255081004 -0.3278449636399902 2.2482170843130764 1.7122780865421996
Ni 3.935253190800351 8.199086621963035 6.751629414452807 -0.6004410341090046 0.6137241243711559 -1.3168192804079772
Ni 2.2776504330943683 7.766952239004528 0.7030252332223819 -1.7910911401863607 -1.4399033880553718 -2.340883241790246
Ni 2.5768275616680487 5.797913287410319 9.72067714756284 -0.4788060002033109 0.28575831888258524 1.664917594980365
Ni 2.3130106116024067 2.1070210243855287 11.907041825858707 -0.8805272423074771 -0.5324911484315926 2.3681683027584444
Ni 2.017310769235818 0.15027842803838118 8.027953799165232 -0.26340746199121085 1.740071454605384 -0.22608095762661065
Ni 5.4542213018959895 1.8141272494407483 12.46879508199357 1.5060586437262062 0.34091850899449677 -0.16888034004590272
Ni 7.591009014912197 8.012487799654334 3.2858574062737755 0.3374935424733478 -1.3625926299883502 -0.9274303346169189
Ni 8.561330348903939 3.139700448026695 1.66048247274451 0.2700931015415026 1.1078752395719693 -0.10742146140947306
Ni 6.507615283049642 5.682668750970464 10.819215253268345 -0.9127385369326989 0.14911704137604642 2.5834359718196342
Ni 1.1963262924864357 0.3978826476944979 4.340227451411028 -0.28949593154814657 1.3803065023283452 -1.7106325805189766
Ni 4.40419273715188 4.345377191091449 11.186508037071878 0.004020176902986624 -0.9220348746329605 -0.31989511266529425
Ni 7.281017805908955 4.094033723452318 6.995277172269005 -1.0969408520476527 -0.4769334657709463 0.5399463191580572
Ni 4.730116069822466 6.832895364384331 8.252417751198713 0.38869911881288544 -2.629962397515948 0.7922733549653903
Ni 9.273046000899111 5.363159286692583 10.937293824579397 -0.403254390919241 2.602257732511828 -0.557241358793079
P 3.696019628745703 -0.0002628940242358778 4.353585637486474 -0.37933001889315965 0.16470898227703248 0.34778515420734296
Ni 3.818339929880417 0.5407804658397037 13.46483621468972 -0.1107590104231383 -0.36692367480900684 0.962323032729046
P 6.184367503037059 6.977897266971737 6.524354733755952 1.0154073141485351 0.5913154176586526 1.4814781261733647
Ni 8.274216513499095 7.377085994552598 0.8170783563183597 1.559912199211552 2.5120606054004413 0.3698035674599631
P 0.12490542570636742 6.25871430599029 9.002026500368055 -0.5908991560568404 1.2433500075742328 -1.6824224366333478
P 0.5179674173748946 6.592794811398692 4.987818403203842 -0.4563116757555367 -0.3676083595808572 0.5469533466035097
P 0.005450855885486444 0.0808548284255387 11.763325493694783 -0.04651022774639732 -0.617399259229898 -0.35987653815423826
Ni 5.547651227814144 4.487237416864406 8.749114058818325 0.0785212334353551 -0.01960029072943076 0.564911216633511
