# total energy = -381168.5702411901 ev
CRYSTAL
PRIMVEC
9.25169214915581 0.00000000000000 0.00000000000000
0.00000000000000 9.25169214915581 0.00000000000000
0.00000000000000 0.00000000000000 13.54078663566814
PRIMCOORD
 96 1
Ni 8.50105589488283 3.2300246961943837 12.317565695526278 -0.4011941659561026 -0.602739086114562 -1.4010689316866773
Ni 6.274913785403519 7.104624020057012 3.8648249113505146 0.02235831309054214 0.11981829241192912 -0.5227302123900868
Ni 4.586803819456622 8.255571501511854 0.8597560293286863 1.056884350346399 -0.5230294887980605 -0.21471513899183023
Ni 2.814892028110076 0.5350984320249913 10.602475945606049 0.42084819274160423 -0.2147364791480689 0.9912083483048284
Ni 4.030786386834242 8.716888615654348 4.730352146098091 0.11497561960764717 -1.7856414299256986 -0.5873415206125691
Ni 2.4774643204509896 3.5513082014553263 10.707824036315175 -0.756460201921523 2.679071496337773 -0.5383321805934019
Ni 8.362104733955768 0.8365167043980859 7.402449860458073 -0.5696726425778963 -0.48099092366977164 -0.31864684208048993
Ni 2.3535194038160703 2.822792973008652 8.075278230076858 -0.5887828810447859 1.8319215439391612 1.5425238285317757
Ni 1.5643038246907581 2.3346181972261513 12.170039141359767 -1.776506043283334 -1.6882639830157893 -0.28206827162550774
Ni 3.146657700314914 0.4041305560545812 7.964203342070052 -0.4318962230256498 -0.8299382165060158 0.7101263518519899
Ni 3.844827379268229 7.296790912900478 12.20894158070874 -0.7728574123326237 1.4438644295856489 -2.225486732595096
Ni 1.926137495631394 2.228612311221605 5.738029776838218 1.2783656044174694 -1.4115577470331433 0.7235498243467475
Ni 0.3567285873398934 0.1972127656159287 11.981808843427713 -0.11859650418968606 -0.46200615503715275 1.0791035667559157
Ni 6.326454961082637 9.26815993032243 5.489732869123955 1.119467315284943 0.198251079898536 -0.43299511251678335
Ni 6.023933887032832 7.394211228804465 12.409629281809334 -0.40838734127043214 0.2359786763562968 0.16416030886241406
Ni 0.6602035108265166 0.302482216943746 5.237738985318978 -0.6365583486568521 -1.3883082895868994 -0.6063918523758008
Ni 1.0409448645414143 6.5278642941528915 5.5109099919258755 0.20467755225017006 0.2754487094264611 -0.5730986375403098
Ni 7.755517553305735 8.696220335907956 13.561368708092417 -0.9177624725098517 0.9892581665569931 0.5282601410693806
Ni 5.1004855098589985 4.803663478031117 11.944408878846337 -2.349783372493353 -0.07555700860070858 1.207419869336527
Ni 4.551425349559486 6.115914208088618 5.139717309440275 -1.0975586881373098 -0.34302655647643504 0.06035047606359929
Ni 2.2968065323543954 2.0210876097930854 0.6608955373820359 0.5107424439005913 0.09946209735308031 1.3315468164261388
Ni 5.445083278755083 0.8819906205169152 10.50062221893462 -1.173354809332018 0.4950414882255669 -2.1216843559954492
Ni 1.618925813778805 7.181181770684313 12.567542710492978 -0.36510204821923575 0.6508806788167951 -1.131387977981929
Ni 6.197088552983355 1.585943532088614 12.486676446939136 1.5888471370783475 -0.1248381142240237 1.6921016115943246
P 2.683397730869492 4.70467962619287 12.817423507863722 0.20300556386438587 -0.04751810018562139 0.08620368968127735
Ni 7.870784382920907 1.3441505637932032 10.620472336726317 1.1935135436680802 1.3910408580267142 -0.14607774032909035
P 2.243276242912756 7.448037572387503 10.415816584961789 -0.24516959882694553 1.0613801813342236 0.914308195412664
Ni 8.19935822141379 6.9873588249874 12.062565937016915 1.7007045227719872 -0.3733653166692925 -1.8823645310810615
P 8.054643256421373 5.024445853979144 10.853183844234326 -1.1594813937840354 0.433628375225408 -0.6999239573976914
P 3.969318145726352 2.849169546668886 9.661500238092225 3.0057028992856365 -0.9868683261685778 -1.05311537022227
P 4.332696849217412 2.4525217590381554 3.1295735260178295 0.5380519303488217 0.0013598564620041097 -2.5539395050224143
Ni 3.527910672592916 5.83832644375973 9.923649704116366 -0.01746241845082154 -1.30626747303406 0.7389455900765275
Ni 2.521650401054735 9.13508359376375 1.3705844979433333 -0.6925168663003428 -0.6636400353649925 0.19988167352342348
Ni 5.243784965987853 5.268264942804752 2.779070402170034 0.1845499282623596 -1.284557335050478 0.086045052616226
Ni 6.8757834204477914 4.334917255277902 4.774143179456907 -0.26647504517294107 0.23975768378275483 -0.21259500732503386
Ni 7.6570332928310965 5.233423071038901 2.676147179912801 -0.30885839523515835 0.30527967674496453 -1.0617949002741391
Ni 4.486987315345691 1.4727028230036388 0.8884168457236492 0.7113627953622522 -0.0009981022472111843 0.739314800490488
Ni 1.7677392782912091 7.923778074231261 3.578423985299865 -0.1787387208972212 0.7741501630021184 0.5798017605920983
Ni 7.582473907658236 8.482469245818146 8.926126730426212 -1.4241769784590503 0.011711117789341122 1.8764900745781554
Ni 2.065838043603872 6.848324398833069 1.4865072725155415 0.7158601690119736 -0.9227241873905011 0.21007326934444467
Ni 4.364763213407651 5.955184564384919 0.2909139013685945 -0.006941978535471916 -1.65310646127805 1.695025984329971
Ni 4.407191472546842 1.5797726535788363 5.09302864617252 0.0843892621803579 1.3758618362934305 0.8334598565060292
Ni 8.309656892468617 1.8301511919748075 5.273905699367589 -0.524853943601309 0.9028282197975226 -1.085084466929699
Ni 3.0645766896121445 4.519664291202565 1.8299023214621943 1.077652436131686 -0.524501959578529 -0.565855068604019
Ni 2.6221885371353255 1.0628158642372378 3.5136177337477053 -0.3529664412979663 0.7212317177365319 -0.08183384274835585
Ni 5.964019930167285 6.125313927078024 10.37616938441336 1.025088288881725 0.626928795986888 -0.4826901657490655
Ni 8.53992225263332 7.352939431155112 2.3739702688023723 0.9658475009425366 -0.10152437919874772 -0.013393904808402739
Ni 1.4179143034610553 5.110579105742309 8.70691529176598 -0.1864916253697627 -0.09173053303677751 0.1905197726925493
Ni 1.9665673893161442 7.713339089848348 8.314611173491084 -0.9700219440352005 -0.43419710324468447 -0.06437708072448912
Ni 5.286361252197743 3.6594142215254193 0.961702272919304 0.6772285726827046 0.14115407777522787 -0.28526698106846354
Ni 5.22248757119099 0.18500330779081092 2.8631590300191627 -0.09106076066326253 0.0010806346586884614 0.0093583012864484
Ni 6.467626528070189 6.892686261583269 1.1271243747641713 0.09282556587316916 0.2783196032163529 1.8511467107173603
Ni 6.6293738578849455 6.581561114049067 6.399930973131817 -0.7299647267341558 -0.7378114764720841 -0.6475906952116137
Ni 7.098721440612877 2.568417703703799 8.753549370051417 -0.4565333048480395 0.19654386739944216 -0.9610179407643771
Ni 0.4767054533108793 0.44727582131747196 2.547089778323604 0.4866288386818393 0.49951392217462365 0.604092771928979
Ni 7.095279811219117 5.22977790442293 13.295765585475023 0.048837847438309434 -1.0854469924754402 -0.3265835804290633
P 7.820075859514472 3.393899915150443 0.7416276514030581 -0.8216872893511333 -0.3206636154002026 1.947550480860091
Ni 4.721711991015209 3.9778482056754 6.289546261342146 -0.3293189770823554 1.9521165029642185 -0.1996919261101206
P 2.5614234246132566 5.954092864738512 3.8821163235465783 -0.14285486251641846 -1.074877187379394 -0.12658286482927233
Ni 0.8631541757704275 3.729134971824796 0.34938736980239926 0.33267220982530443 1.5588279650084378 0.6275857128445965
P 0.983020021438389 2.6002157688283956 3.5112344979094465 1.9941213866410947 -1.9767494710215505 -1.0181938757547369
P 7.0427764595804545 4.097842649861032 6.926478066316347 -0.7251217968195576 1.0477420217254987 1.9749304155349405
P 7.068459156346786 8.879209550368065 11.241777108880632 0.05694710680900515 -1.964669399928565 1.2600747765280815
Ni 6.385961843503761 2.1267511831966397 3.60314913195261 -0.6154135962584368 -0.026089497998200227 1.2402304881086448
Ni 9.269825234867799 3.0828487811515908 7.358916024134597 -0.17613573605673535 0.375821748629585 0.10732375948934421
Ni 2.1907543878902556 4.557781261907638 6.539956255490641 0.552694362852345 0.9258071971911991 -0.3652843394333709
Ni 3.2955174232869116 3.7815920650038657 4.371412404389626 -0.9457111352039776 1.3334453190004325 -0.3291428565158073
Ni 9.30831227324962 3.2077836288218116 9.93169312507049 0.23701817336440473 -0.021285391741337534 -0.3619442193165444
Ni 0.17965120401583884 6.982316652891704 9.631521055598846 -0.7830014427451613 -0.19414065727458824 0.676233555759287
Ni 7.540545239882655 5.663182664046685 8.649691726910394 0.08857270413408617 -0.37207976508864954 0.08151502595635639
Ni 8.515673568114387 7.516241045212211 7.150564221448545 1.9928494619072066 0.7460582898619087 -0.8592858164301976
Ni 3.639264036526475 6.3753316494891665 7.6368275976806395 0.27074127664846276 -1.4849208333063264 -0.8658362159542056
Ni 2.353963485028168 8.445527239986749 6.157442277604119 0.003291012046445945 -0.5562088037635066 -0.08536705271259491
Ni 4.326220664874317 2.139666545115155 7.48912433619848 2.360568893144631 -0.18574163457761558 1.0662791612977378
Ni 6.542111899707701 3.4963716548420436 10.939804660161606 -0.04822541066529114 -0.7266639444956969 -1.157656938980787
Ni 7.638030317630072 9.26973271794861 3.2934579966658073 -1.0997862919162478 1.1264406612789826 0.44742825722297785
Ni 4.089876943119025 2.4380613645692155 12.180478750520837 -0.5758468897094083 0.026418856313160953 -0.30150581152482914
Ni 8.676551238888784 5.255118288588269 6.553050175063188 1.1720517742498782 0.43498874590804437 0.16102896232228397
Ni 8.30683512643341 3.111427257488477 3.067732441725615 -0.24637184666516276 -0.4987983841648378 -1.3585184599189766
Ni 0.5939512198274629 0.20775229304971987 9.714931534430335 -0.5587891628961731 -1.1305886220090853 0.3488935567801733
Ni 9.155881397197001 1.4856736950736662 0.5946636001052035 -0.512469196783711 0.3423148751213911 -0.8722189795520979
Ni 0.5088911643268695 3.792990149447713 5.056712054714828 -1.396519107532466 2.385674172852691 0.11206435949812311
Ni 4.846646838685431 8.068419025688328 6.774509774859664 -0.23684899477639212 0.5583536180206513 1.4891217587615515
Ni 0.19729325533562148 6.065288949909453 0.3067962808854391 -1.8772254100822834 -1.2713449501252618 1.3383712955471403
Ni 0.7795854930071296 5.104232445086074 11.376494695585691 1.390311178949541 0.8338126118597574 0.7531517063735803
Ni 5.236374360760969 4.582751578396229 8.72481639045949 0.009344931550009714 -0.8979580361894148 -0.4110096093846276
Ni 4.086694361098989 7.211203510960519 2.9275582071269 -0.6360369289357433 0.33449872151108195 -0.5333079879059331
Ni 6.772932361387524 1.348831919904069 1.3175278951279314 0.8498120726118075 0.652551895871631 0.09398307651638006
P 8.024917570286567 7.724737174292195 4.720399175931945 1.9978965374128106 0.014317959284568891 1.8525980984519062
Ni 4.49608172850178 7.992259097813531 9.806467774274022 -0.11847309123794435 0.5138565640495408 -0.9854148815515028
P 3.59994434587197 0.1458862291893253 12.970082900706736 -0.7376554105101941 1.255701072940418 -1.8493117143911506
Ni 0.9531000497732901 4.714162610409545 2.5548760022423878 -1.0415803729994773 0.46729105758517586 1.3257019276095878
P 0.4718964238515354 8.297481665903598 0.6881537972821227 0.8184096470411261 0.3634182327589096 0.00717980557789086
P 5.788903905529996 0.3598639857311432 8.211444631736388 -0.5088868787490912 0.1633691804196864 -0.6531468491431526
P 1.0574036244647944 1.2615329549591485 8.087370191414607 0.058788530893118106 -0.22104416653365158 -1.6066304292036975
Ni 6.279447114443686 2.320130047681456 6.364643169815484 0.8956401866895157 -2.324879410162822 -0.5367622650031207
