# total energy = -381179.45488004404 ev
CRYSTAL
PRIMVEC
9.17455468168100 0.00000000000000 0.00000000000000

0.00000000000000 9.17455468168100 0.00000000000000

0.00000000000000 0.00000000000000 13.42788815484998

PRIMCOORD
 96 1
Ni 4.901836194100726 8.211767858516977 9.749909496983209 -0.6585777903507367 0.5244263691455872 -0.23466304286866682
Ni 5.016683271279901 1.9754192700778195 12.806432617754265 -0.49755062780066567 -1.536366293570812 -0.2831363078787059
Ni 7.7669028700730545 0.3061493894570039 4.531200693757239 -1.0257439201878529 0.17545130839520107 -1.6602770108845601
Ni 0.4961846957148256 0.696833126983102 12.660417742956213 1.525866936701385 0.6418262819240108 1.8179928496732112
Ni 8.789370306030106 2.015145092428501 8.900836559759806 -0.44465480824289866 0.6857744053701866 1.3140633149293948
Ni 2.556030971570399 8.696138479996012 0.16135656536036339 -1.1025047192886754 -0.4235627634592899 0.18345592386723245
Ni -0.0008238750224229068 5.479273499627177 6.078240732938927 0.13586249035898537 0.2445085682041789 -1.3349118762436298
Ni 3.13506464963473 5.352444453859089 2.9727869589709006 0.4996208800661331 -0.20843599085133782 -0.04212289731197907
Ni 8.857262011664066 6.906513119484855 7.975319396903529 -0.43837566010240625 0.8499668530221169 -0.0022566572446606295
Ni 3.421365807204098 1.7362202769307142 4.322342870840144 0.7511048511468805 0.23493506558313088 -0.5980586499197572
Ni 4.560928086270098 4.157522911036967 4.5904040959810155 0.837386702364261 -1.5303663672336354 1.2850820972056964
Ni 2.4007241076553103 2.070100675772746 13.551424817874363 -0.09599085097502824 0.3673329944322835 -1.849614847453866
Ni 1.5081500187746895 7.026589692908808 4.196980836387039 1.5534291625903698 -1.6769110198968151 0.8090017234636647
Ni 2.30228113448607 4.6537287082278675 7.179985497055849 0.17543613888654946 0.10922071940174093 0.5327320607978051
Ni 2.214535692231586 2.959215957487961 2.5246714257558804 1.0032660508003108 -0.13259873200604905 0.07950802282865661
Ni 3.7707970764582317 6.171897340860974 13.070921271250018 -0.845204398636467 0.4825690667901689 0.0019897767365191542
Ni 3.8752402084767437 3.8811486217778617 0.560716679375385 0.08780214451664879 0.08183204297614294 0.8609750312071623
Ni 6.39414175670922 2.6060506444239593 4.031589301818862 -0.08805025597171287 -0.9117723163646878 1.0089577018684495
Ni 5.708187816826219 0.39786833140203776 6.014781254736288 0.5238411860660784 1.4326114823796487 -0.60365902682567
Ni 4.679573429142849 8.554244815221038 12.90895459799443 1.81619513434284 -0.6925328071399428 -0.5319039084695549
Ni 2.253087171565896 4.709473303286237 11.555826114480071 0.1449485118206536 -0.9845713026042849 1.1787083603344475
Ni 1.8002219713229437 7.066425609917275 1.761027355696074 -0.23301419441133417 -0.7506415383572169 -0.5885951905140121
Ni 9.15523320295862 8.255842419850158 3.0573827765572577 -0.09981331004491198 -0.39097814465504926 -0.7948274888458118
Ni 1.1031759946681245 0.5945854659319152 4.553867348884166 0.45386475687694094 1.0390465508340299 0.20965700774263246
P 8.964613477559059 1.6947879873843688 3.1011573299479753 -0.6418013422233464 -0.015439988704154053 0.2877031013137819
Ni 0.8341688729257855 4.801448215310621 3.2535237490447284 -0.3350394245059004 0.9736510561473554 0.020303744554358582
P 4.53308331240536 3.3222530915333333 2.6781250295982586 -0.22469204769888398 -0.6898532034252507 -1.0463194303463594
Ni 2.461331216765842 8.759929159627488 9.244550246452985 -0.507226717437849 -0.3945802601840107 0.7941764855253742
P 8.482738334989811 1.3561001218190676 11.056966118581075 -0.5710574387405649 0.4129230243572566 -0.9513158829852648
P 5.703728983185934 7.013928807263557 11.296358694834785 -1.4500173365609221 0.7039024824294652 1.0144020128124724
P 8.376974067077883 6.359507812281086 4.005700543040767 1.2369785568302503 -0.5206033958550711 -0.07925322650537318
Ni 0.001673438798328933 3.8018896427276223 11.65825359680564 -0.22860063872467082 -0.8752305126849121 -0.1535092569064711
Ni 6.06787623836397 3.8775705453998555 -0.04063226836644287 2.080198578046837 0.6284282633505499 0.06814168997324394
Ni 7.960761213322453 0.4215010671510262 1.446438293264384 0.049902541257397924 0.9984783996036805 0.5389980963121749
Ni -0.021277627527875338 6.17697086967389 10.27450962387229 1.2736756551409676 -0.4244883605973528 0.23364720000964279
Ni 3.221617399763212 0.4971149955731072 11.383075669494461 0.4499877904200379 0.5071614114175524 0.34174768976401143
Ni -0.009581905049203606 8.930355689878356 9.433454330102066 0.14205962030863276 -0.02429435377099042 -0.26314418102749515
Ni 7.989211507805008 3.673647715517963 2.4570751407869778 0.0258544991692587 1.375152983151864 0.6878657406815767
Ni 4.330252254546499 7.168960434534183 1.7097599433876196 0.5543444968612583 0.8935028286315386 -0.02077811308761583
Ni 7.751682283634305 4.32991279601833 9.835418182773699 1.0226064030001356 -0.2780182699258502 -0.5693707950667614
Ni 7.221466411742717 7.472463882382426 9.783572773511873 -0.5467890531115035 -0.16318380388175768 -0.29417893884611274
Ni 1.5678396724036807 2.014493699036607 10.670888007572307 -0.3959786831934342 0.14229256225504525 0.30005596645217997
Ni 8.728643927706974 8.183446007801837 11.52351791969764 -0.9972273008053987 -1.0982289747314569 0.9884228151398912
Ni 7.1515471294945545 5.668728056565183 11.794480139071142 1.58673240472819 -0.5032345655593204 0.48725593074287704
Ni 5.2617631540636784 0.3602655010356399 3.57098536458912 0.30247486030631776 -0.8865009433924087 -0.25561933340535975
Ni 4.029280983827308 2.5233236836534982 7.171982532890376 0.557443447501556 0.5798022748127305 -0.30524445263165495
Ni 6.4132615289445125 2.3914761564013873 1.6306018844403498 -2.353904336640262 -1.8405342253088366 0.6265079063993856
Ni 8.12739865243456 1.5900604441665793 6.30659540229423 -0.8271771088211108 0.4943048671698584 1.5407878196772753
Ni 8.531895599690724 6.045334357182532 1.7885675343409413 0.8319994699104187 0.5868208722224086 -0.5415648285980866
Ni 7.005946944574159 4.791071793814404 4.805573095155625 0.5343965929844215 -0.46764741248333014 1.0722711172151145
Ni 6.19922833965605 2.6926217436620723 10.743948657389263 0.8205518901951094 0.9540327676957956 1.0082619613530055
Ni 6.448978070840865 0.34186501389787394 11.265662469333419 0.06528210903726177 -0.5612985595815881 1.1699439838782562
Ni 6.948101376463063 7.106096384939064 5.401247580744128 -0.7286740329471902 0.566688620248908 -0.1015886567777799
Ni 1.9888508183275648 7.608017929779959 11.505833965290957 -0.304384675734521 -0.4612759617393475 -0.47599218490359957
Ni 1.4440474042794909 4.192899994405148 9.370141644776472 -2.450161811013116 1.3674335030204192 0.591464284531691
Ni 2.014411128043269 3.7528608217941253 5.000062647776323 0.698787529800403 -0.5208862172028126 0.46868202439543155
P 5.809447378323787 -0.1991658232101077 1.3689463334715906 0.023252542770037375 0.22545000891083108 0.1223927380073247
Ni 6.658781790359429 0.6786886099246857 9.0042319576184 -0.009359586838029042 0.3947373545871653 -0.38178207997807795
P 0.2717292121560682 7.855501545925369 0.39516550755342095 0.15254560744162116 0.8075847885114802 0.07718631667401546
Ni 1.2789421158215548 0.7304358514499855 1.7892125055444639 0.822240590751442 -1.3688118714251845 0.5616983661231681
P 7.794334788971099 8.942979877304346 7.552207277926919 1.4624002836063072 -0.899405824379535 -1.4229690741938783
P 8.370808766241934 4.3343808042134295 0.1666612929546276 -0.7092282655177528 -0.16191033648597278 0.8073567316610741
P 2.410972085384112 1.4974616624147485 6.145017730162815 0.21238083443169875 0.02355901826686265 0.42437780316141754
Ni 5.785134808062978 5.445712978112444 9.129903174568783 -0.39356698842814797 0.5825073324487193 1.2046297081858997
Ni 6.753848527356602 7.572549100863623 2.9349336632580423 -0.5507840332035095 0.4504613876223468 -0.4895807222213116
Ni 1.8201766280464384 7.10807808877919 6.924976911050848 0.7277929158938176 0.10023342830146609 -0.027578166728584763
Ni 3.6359127715622233 3.814311989947673 9.323721149776995 2.300805914153386 0.5079417412270026 0.8206606478588319
Ni 6.489612174118271 5.8486227273855445 0.8235474908159971 -0.6966512001836905 0.9553257754756064 -1.2739175959484448
Ni 1.0170819722804123 0.651542019681399 7.470873932032917 -1.1690752081200575 -1.6975047848877667 -1.3987279422583268
Ni 3.814770717688443 6.697397491577447 8.09399501580717 0.29002275058589405 -0.3569094851061143 -0.030177294914328672
Ni 6.37132463888332 3.095237907181079 8.401332510112768 -0.5879498436205294 -0.0007813582507147834 -1.0114185047041162
Ni 7.229668463747684 7.923613440874898 13.457698483335719 -0.4766383031280308 -0.5076113544707774 -1.0417726915159413
Ni 0.3194213004529613 2.601050512049566 1.0863709626127567 -0.7201328282453985 0.9587684826085682 -1.227026330713545
Ni 2.8466074716837433 8.688679566931093 3.2255670456112417 0.808316267360866 0.037700342764251195 -0.8072243198482678
Ni 3.997197565637854 0.10054486367744853 7.685612644586685 0.11945859507966522 0.3509874631947245 -0.21562453817997704
Ni 7.516556792825238 2.1241296290806355 13.026380642532216 1.0703651584416534 -0.5854944401015014 -1.5368879704022371
Ni 5.41797829890549 5.200743189986453 6.890265900362264 0.8877296735931872 -0.7226465958061877 -0.8554055075391848
Ni 1.6807050457427297 4.635618137022268 0.751061168130486 -0.10628374826060405 0.2887256290410254 0.4403099010106417
Ni 5.946909733122923 7.743700420944908 7.351809312005103 -0.2991969608859944 -0.5924292195481216 1.6604328197361338
Ni 9.27272255192463 7.936641308712766 5.657075454494145 -1.7070464058296149 0.7223563182592785 1.1943442670994915
Ni 8.90705232064724 3.2318195047179366 4.69143521106368 -0.05993781400621289 -0.5479846160815014 0.3589537692296528
Ni 3.457421807628619 8.55081353172008 5.534532760735812 -0.07118870432968384 -0.5508274848469352 -0.2975802512181779
Ni 2.1665527705470446 2.2862990599976434 8.427262554387534 -0.197061430465809 -0.5775515311053407 -0.2969989247934111
Ni 4.614021234986817 1.5648028947597834 9.605586410093117 -1.9416420857954562 -0.15015268172941235 -0.2513821553955606
Ni 0.10843865064061857 3.5289466369694766 7.280131267598828 0.07184536407707627 0.05333110732297267 -0.15087259061457242
Ni 4.962186415676427 4.728437108089669 11.727984800680087 -0.5097507694112834 -0.9893718093167219 -1.4771417035815402
Ni 5.960699089010469 5.262625562216325 2.848579083513573 -1.4986011590068966 -0.7099481744029128 0.5738465714499279
Ni 0.4270443331704908 5.946652845588091 12.713148496757723 -0.584448258225174 1.1271160900794526 0.03758875688705139
P 1.7820655273432675 6.6134503150165385 9.138282295481687 0.20856428889908596 -0.20618421870268364 -0.003331378366078134
Ni 3.544791093135672 5.81101622719722 5.5605958360554 -0.8592763033485007 2.4855124225982674 -0.28575163401436593
P 4.658692142382999 7.08648118674374 3.860813221029528 -0.4497574195767867 -0.09684574277615579 0.9792172373812232
Ni 3.659161093464447 6.126446596305484 10.513096674213209 -0.05289119157207665 1.6320853789416925 -1.285815118716979
P 5.907587591184119 2.7231730111973538 6.284949875118257 1.4489361876816014 0.20497374333435023 -1.573713880981335
P 7.664533187442823 5.112961049512707 7.768395570141519 -0.6544941071996664 -0.6146124405133803 -0.340251307724143
P 3.581434265068379 2.8482680661053306 11.494648348060021 -0.39712873763747736 -0.0397885927518476 -0.7910397396686053
Ni 3.9854816591385887 0.9939620941456048 1.4111235968689468 0.44574572731423234 0.37737443782868557 1.2701187910276448
