# total energy = -340886.9811154805 ev
CRYSTAL
PRIMVEC
9.09232238170176 0.00000000000000 0.00000000000000
0.00000000000000 9.09232238170176 0.00000000000000
0.00000000000000 0.00000000000000 13.30753287165277
PRIMCOORD
 96 1
Ni 6.596079740898898 2.0627751522045896 11.133707728830096 -0.10220392176427559 -0.30791814280907615 0.43996897273145513
Ni 4.736308867899456 0.5229149103938145 5.920787510902309 0.013054004970480745 -0.4931201028331378 -0.7716677628998968
Ni 2.416939289061262 1.5262463076837602 4.579388114860984 1.058043917872139 0.5859286994254426 -0.03746945770036773
Ni 3.563017418211156 4.761812831852089 4.695762565992014 -0.02897504707611139 -0.21372192184062547 0.6251341659803105
Ni 3.7873613777716795 3.297339761635063 2.841624386635587 -0.3095569639640798 -1.6661365549891305 0.34067065464974877
Ni 5.3306557897018525 4.960170934379947 2.390950704331918 -0.32395719854980987 -0.38446014103087334 -0.11613647268496773
Ni 5.200581027382291 4.26283527828469 11.521741675355202 0.7432611867327458 0.6033001008243545 -0.8081422036768469
Ni 6.233159697701268 8.308782301265955 12.218417228854037 -1.4978100305641688 0.4378066749728137 0.9174979059945553
Ni 2.111091752719489 6.115450493661772 0.37853792515179635 -0.12847931052103678 0.8606598139595887 -0.2582043205237166
Ni 2.7977348378313964 1.6117505062615005 0.4055548515292844 0.8384992187021494 -0.22204432566339177 -0.9351657555879637
Ni 8.13975603036419 0.10647200295248807 6.6368788093652995 -0.5046828679700728 1.2680158857520292 0.14153254416056915
Ni 8.834900436793642 2.3942994066220264 1.1565588490244747 0.3337453882848252 1.7475780473950742 0.9973465999920824
Ni 6.9580723672255225 1.1216652438690309 4.612417793952154 -0.10603255148174642 0.1642659812023429 -0.3438590796800594
Ni 1.3099581456498077 7.367508731129631 2.180079747903305 -0.7833328579426508 1.2109124558708177 0.5815205430554178
Ni 7.789665253882128 3.6992204057371607 3.463698345184349 0.1448083866983635 0.2041849288844677 -0.37140407917786356
Ni 7.891517447891895 3.995193680099411 12.23982964778753 0.060661836656431004 -0.6524202553897731 0.4534970891248771
Ni 8.031266441101154 7.266047506977248 8.786404717530127 1.049289825828593 -0.010257673172266205 -0.497347253540608
Ni 7.445611779383862 0.6905382359701276 0.49759279288647656 -0.5331310960084367 -1.3441519067846592 -0.8622870651503666
Ni 1.7536543798475057 6.6899215989934175 9.019247270711517 0.8916349221848645 1.1225680656974537 -0.3850039293494853
Ni 0.09643135147552095 4.970836228396504 1.4898179185300258 -0.22934471597954695 -0.6271157151867135 -0.2413204002841844
Ni 6.581995733710794 2.465710505689399 6.8806466969800155 0.3158605375846044 -1.8114861589029445 0.14940860447453624
Ni 3.7901618130292234 4.086135087391474 0.48969338330285883 -0.799678646290526 0.8432426469244058 0.05610969850937434
Ni 5.882841613162587 6.008288383449389 4.485090731421001 -0.2824971316328102 -0.706881362552131 0.9955262589538919
Ni 5.2553622690274295 3.1945692430765558 9.168969632212983 0.5763749942987364 -0.09114123619221078 0.430831014985929
P 0.28526433719882416 5.534696593645181 12.48973121600205 0.6561519545180635 1.2091697621480981 0.43831266807495484
P 4.284711405653687 5.917401530090914 12.564652860695844 -0.13962709960774017 0.6700947898514008 -0.06648975619211775
P 2.8722191418242558 8.569395534340579 1.0593637424787146 -0.8624793836668307 -0.43074796835381945 1.1331368423522357
P 6.448729566276306 8.026811203191425 5.778183528501917 -2.786063069298679 0.7643352337942256 0.9068327129712253
P 4.863728672117709 1.1971769802778074 12.282586293237534 -0.0048408730320690825 -0.018495744811342342 0.5011625135216401
P 4.163401641997348 6.132516782552713 7.956520278227069 -0.45798263570005643 0.8310489330716914 0.3333692358923291
P 4.679099976209628 1.3157499549324556 3.4662260107739504 0.43279816601462884 0.14430522180969987 0.9419113018419133
P 0.283796836385293 6.1229607518524585 3.661368158916766 -1.5425809070219563 -1.5985211698330017 -2.1061314958625146
Ni 0.5805293196566506 -0.04117821830484139 4.582795008013587 1.4795688249657937 0.9083589198077646 0.3013466602391455
Ni 1.9534127000041368 6.684366190089653 4.691318238869004 0.18680427151417506 1.0700365714576412 0.20998945138138675
Ni 6.114677646269268 5.7406558775863745 9.04447755576398 -0.5559722622726683 0.3632305422281357 0.6477979261264134
Ni 8.67649399829711 2.3239066476483057 10.063355914894428 1.068378724139244 0.8946850218650979 -0.4016739338059986
Ni 2.4068740883141797 5.463858310880489 6.787985931547688 -0.4622414109764104 -0.22531682576707646 0.7278052571889917
Ni 0.5778088968350363 0.14254851923457637 9.126106606592483 0.7361826826194096 -0.27842784665944303 -0.707317421648285
Ni 1.5072524464726904 1.1071538975344846 11.474473419597429 -0.26166245427564616 0.1116378134836658 -0.3225058108152639
Ni 4.314406930170372 6.864957894912184 1.3028915927856415 0.5968983110630688 0.6714623596228888 0.00995608277144737
Ni 5.529513969954273 7.900900724469119 7.8240442335973865 1.7860070407952338 -0.1757061047184845 0.2825462397031908
Ni 4.859937173733307 2.902596590510797 5.351757251213892 -0.23662479458072794 -0.6802421626980477 -1.691034603782391
Ni 0.3889477249127124 7.420335123487847 6.702830878144914 2.112020093432808 -0.40936975978835954 0.5880454886581291
Ni 5.415432602498413 4.786789441113366 6.825752710538794 -0.9628192556391741 -0.7887617422677061 0.08849814214240888
Ni 0.9706054017624188 7.474061655750275 11.112082549555605 1.04073010918404 -0.10889110397646407 0.7430722106503912
Ni 4.839506725604407 0.45303404916359985 10.240067016574363 -0.02839269221008013 -0.850321151037742 -0.9950410917873574
Ni 8.128672489523456 7.557801943808653 4.799335027374273 -0.0823244092315292 -1.8506654002055676 -1.4365450131061002
Ni 7.288496450648924 6.138735930981805 6.517323863906058 -0.38529497822734293 0.1751098658953823 1.893373223486739
Ni 2.3107955189425313 5.312071082992697 2.51401892311426 0.8783546601361906 -1.3683159056253724 0.8374790049677512
Ni 2.316860097893122 5.398711821853531 11.601107647172006 0.4258939826956278 -0.9434130831984203 -2.213814181353174
Ni 1.1100361636924114 3.465693200689236 3.794417019849128 0.792686531243409 0.6643550591541462 -0.31991465304932
Ni 1.3808237053812953 0.782742566824765 2.0184064380170468 -0.00429091406587003 0.5562301439197453 2.291850504732311
Ni 1.2687608334682103 3.52930308725345 8.139086835445504 -1.2307873404178737 -0.11797866810002906 0.02562258566411071
Ni 3.5987047831003123 3.150307818291737 7.469371835926115 0.25827605430191647 0.46206400485828164 0.13629392146944916
Ni 3.942685519020461 7.237806754022924 5.7929021797841 1.2504220839296658 -0.00042603179382507273 0.46802742153056814
Ni 0.9344906977268186 -0.2152225418645233 0.042481148085380546 0.36148270629909357 0.2980561624133318 -1.1849715676353398
P 0.327164485891487 5.618400512414501 7.939513998663074 -1.0238359045318626 -0.41707741284526234 -1.2882802924280201
P 8.865377901025095 1.8151093860349738 7.825907250429435 -0.4876277122599989 0.11660955566664434 0.09326136785900713
P 1.6649678684771019 3.4640929519706396 10.478417698583739 0.8547089956927925 -1.072924177418081 -0.47866973173576277
P 3.886622259935992 6.511657528670663 3.514945401165178 0.9989903062430924 -0.024157056862177752 0.07105037897960666
P 7.148574703316634 4.127095999194188 10.184733870967753 -1.3643831462298694 -0.49798848666903267 0.37240063876317797
P 6.4597949224725095 7.779554591523722 10.158718009271613 -1.3845333959254993 1.0101789758700601 -1.4532522985584522
P 2.2437123652731814 8.704962059308052 5.847383374794502 1.161050023822736 -0.753985000908153 -0.06464447545326285
P 6.992259498940995 3.9776091288393784 1.4198206755748222 1.7320830370832685 1.4117135558847171 0.32809076110220914
Ni 5.788517861988036 2.9081429070922966 13.473211346091361 -0.7743903040373825 -1.0175217893883766 -1.4892199749023127
Ni 1.9841174722922088 1.303166180918037 7.097439482899662 -1.2861881857856818 1.066339582222028 -0.07926659624181187
Ni 7.210184278982603 0.5069942541082315 8.881487677613785 -1.2259202421335598 0.6448810095899346 0.3549125092807436
Ni 2.672788145269156 1.6674500724553796 9.461908798635484 0.7479310814045894 0.746822678831759 -0.8520954693293454
Ni 6.392302614301246 1.9583225540271034 2.2255249930469954 0.22203301280948212 0.036904843446149346 1.4889739203297776
Ni 3.899469711296088 6.729300446722064 10.353899254400167 1.0792213232807026 0.9538772159545378 -0.08568458395301372
Ni 8.59663613184578 7.228514400668345 0.429822259653911 -1.1669964712141578 -0.6676244739340373 0.10936907205414714
Ni 7.622411985821991 4.052411664111504 8.079282994981316 1.8954357624427227 0.6827502738318822 0.152685218343279
Ni 3.5421596309358114 8.196728521675135 12.411935488240367 0.09109829876941732 0.056034108076432526 -1.113339090900018
Ni 0.1471183204048414 5.0920277918634005 10.109493085762466 -0.34974356348529445 -0.6763423134230094 0.03145950406086195
Ni 8.737621680883047 2.548696130999802 5.578863458278447 0.6677527719817854 -0.00013986801197395267 0.5843305017003873
Ni 3.3874083059897098 2.782468828748876 11.769833871439033 0.7787632362940975 -0.07680913584025481 -1.591477375612343
Ni 1.3428723522482147 3.452218379092871 12.711248372570463 -1.2998479426609613 0.12522146570537146 0.7521731445103949
Ni 3.4021378680586096 8.619430583763517 7.881585904282105 -1.2005707076251775 0.1250098639151976 0.4382663882180517
Ni 5.945042189775765 8.252700857536956 3.596667193680781 -1.2724428111751311 0.622643795458289 -0.8427392249254261
Ni 3.341173847273439 8.612402218652862 3.399609293236782 0.06584338085737049 0.08156619090926596 -0.1432670103531726
Ni 3.0998545220446205 4.750983876034767 9.298824360333736 0.6289347706733233 -1.1798561007856456 0.24453762166990142
Ni 7.767434525944806 6.654907065951852 11.316299744550873 0.5808024339424708 -1.8776113326667923 0.3798313840096103
Ni 8.307391175959447 8.690232497239151 2.7706679036814523 -0.7004260938450906 0.3242986410496286 -1.8996981372635025
Ni 4.867011000455285 0.44671670365404925 1.0937845468763914 0.6650929657614352 -0.7634248061648142 0.2636913117802168
Ni 6.508875278057649 5.775270348448291 13.172195469801078 -1.0130655533892359 0.37172392441112756 1.5982566033177057
Ni 8.315183296140342 -0.14700193867985256 11.120040150001719 -0.3791186742133019 1.5999113653123092 0.603501161091567
Ni 0.04522430171265663 5.17221298191626 5.613236982600347 0.7680003413506387 -1.641712103398179 -0.18684026695843306
Ni 7.332148689842004 6.238160474946883 2.605189456927395 0.8947608694083556 0.08081208635206082 -0.39665025533916204
P 9.019774625402873 1.6270528846330805 3.3449817118379177 -1.6590557368829493 0.6883804755344661 1.0703427898441502
P 1.932354881638968 3.134696300963155 1.6463149693509602 -0.2124620812915954 0.9120461388513648 0.19208197497334661
P 4.857764108712032 1.4594722929714117 7.860387154921832 0.23482425103687943 -0.905664146584421 1.1894591710930482
P 8.66375565480419 1.8178552673589292 12.355113020246792 0.03301604991470443 -0.9472465980118976 -0.5106264871480173
P 6.599262053691561 7.916212195162965 1.4189023510260823 0.03924763264671305 -0.08713879990103703 -1.015962929541689
P 2.1910041731044063 3.382816683246009 5.92363522623563 -0.9005286251300685 -0.14893397883096285 -1.4334527473340215
P 6.945861378423959 4.07357859034385 5.384054998362748 -0.14459575646692516 0.46066635317980664 0.5405530995041207
P 2.6464385953459013 8.602555233640135 9.946263170304482 -0.7480822622704729 0.17157819859304 1.5039133152484292
