# total energy = -340893.8137707016 ev
CRYSTAL
PRIMVEC
9.07244729562836 0.00000000000000 0.00000000000000
0.00000000000000 9.07244729562836 0.00000000000000
0.00000000000000 0.00000000000000 13.27844367417885
PRIMCOORD
 96 1
Ni 6.488315009141163 1.7233204612368485 11.401894472028568 0.8307239456321048 1.4062389059233908 -0.8513994717035853
Ni 4.644603170545876 0.17958093161798727 5.750987227043538 -0.5856857301767009 -0.5200220694303044 1.1897273371527706
Ni 2.8208960785274795 1.744232452556457 4.775738140147561 -0.03478985398567557 -0.5163173668852076 0.09484825273015278
Ni 3.524137768396515 4.339614705386971 4.99465992554395 -1.3773039680565957 0.48021650739759236 -0.3315617503699451
Ni 5.297565356773579 4.71060522557848 2.832398127375636 -0.8118564193036404 -0.1373406175664086 -0.5855463763853593
Ni 7.245891586651472 6.250571524312384 2.6945014627064867 0.5380899826756088 -0.49300646007340904 -0.44025076563793214
Ni 5.1725651761221405 4.569428871164411 11.531677646963605 -0.6743409667222645 0.761870831414133 0.7178319480263637
Ni 5.407396405326802 7.838621794410247 12.481710773480527 1.0387117932024306 0.4474763368520938 0.3167221142539513
Ni 1.7967437782648705 6.549336290536256 0.3231034209367192 -0.10174549407061832 -0.20950685531801336 0.4762631791767991
Ni 3.003615169710522 1.5426971054094802 0.45497235153526155 -0.31001719142995 0.13983715873601724 -0.6562463140040826
Ni 0.3100681284733729 9.223503676824244 5.1454902712652615 1.339806742442086 1.0850201893506668 -0.7498768922770505
Ni 8.594392954882549 2.307985263232876 1.188476097042338 0.363117156578723 0.35833696158126027 0.42092095496106857
Ni 6.872143042442106 1.0071505337841076 4.816437139305809 0.1874907560582384 -1.1363373515674042 0.49077294275719985
Ni 0.9493499712256585 7.618442567800452 2.736846203828023 -0.4616518570215275 -0.2397234881107097 -0.5105886919315464
Ni 7.670972038403721 3.9126562570173 3.9258512245553647 -0.019432397692998794 0.5157890051855633 -0.42458014898021074
Ni 7.493034127014791 3.8802585472549045 12.555220278759109 1.1462073023829484 0.2805369225826459 0.2522105648341269
Ni 8.050281992885937 8.720645133278936 7.041611824157779 -1.035425923362307 -0.20391290617000368 0.23300159600584391
Ni 7.109151659029287 0.42459507581489503 0.1950258661179879 -0.6475580422014654 0.024136230926571335 -0.0013536858144170235
Ni 1.6584433896852129 6.703903577352814 9.223738653212608 0.835925287327386 -0.9104021754900385 0.09353596167663246
Ni 0.0992217285318999 4.904810035204308 1.5007696968695938 -0.782557156118891 -0.6816439281415809 -0.6027701964628136
Ni 6.453631042627123 1.9464663781553249 7.167172682060215 -0.7421047045307994 -0.15042753265735384 -1.401706051050044
Ni 3.309982646878356 4.158637524109943 0.33122689036300007 0.9433428920821173 1.0771814100325385 -0.6171426631344017
Ni 5.9453562479677995 5.637092629287689 4.891752061622395 0.7275088089944954 1.6334357223219997 0.5111633334880938
Ni 5.158158129607807 2.888612826123817 9.21869255795362 0.012266733182495004 0.020678097174641807 0.37091788357006444
P 0.17950653754908455 5.597954091086913 12.265086131772698 -0.41391675572909364 -0.24035623659870217 0.847303961477973
P 3.7858778766701384 6.279548921394739 12.701455429858562 0.5300871669757903 -1.8313530730302008 0.5838777304336847
P 2.404742915043559 8.601351522059183 1.3863625058341102 0.9972833508543147 -0.04374757739959563 0.11979515248347757
P 6.3632059591206005 7.7584576489438435 5.793119672895279 0.6542948467046666 -0.046594302819771366 -0.17594316042995506
P 5.094850591461071 1.0217843914841198 12.758977468280998 -2.2879971924244917 -0.4167069168797211 0.17327255557632737
P 3.9604136202738807 6.234232046496065 8.410194147524138 0.13709456299387357 0.17868627039273097 -1.2747532044758627
P 4.790388328252942 1.1862315735488582 3.924125645054718 0.4208026842156495 0.26302462473049537 -2.2548944963332525
P 9.402775237984965 5.5971738606081765 3.5793635703751354 -1.3266249536444894 -0.31182596250391453 -0.6364670744946265
Ni 1.5914342929881944 1.1916931869000098 2.668010823463917 -0.476646787768463 0.20015112513472624 -0.3591419739810589
Ni 1.9378838428892298 6.225821887731086 4.735092668429132 0.5953453647536521 1.1233226844752913 0.7520559022062403
Ni 6.1177055317415965 5.498928327419439 9.273147201900931 -1.3483453760407167 0.9247371040554719 0.758991710094125
Ni 8.827473201733769 2.0551542983327256 10.154703309727122 -0.5646764749148856 0.44856854147500813 0.6223373199614637
Ni 2.2812033984278943 5.103941183783087 7.1237791660161 -0.2583202772762906 -0.026311127090703074 0.1357593891222178
Ni 0.7297305146221199 9.100390565237655 8.96202031881281 -1.4852527627244485 -0.8982429144196854 0.47290454711721136
Ni 1.7330007626416302 1.07747107379204 11.39696813307562 -0.6552780365535424 0.3487858275577154 0.6782007067879868
Ni 4.118383074875625 6.956099470933063 1.6841048072329408 -0.20371518833690075 0.17090405534415085 -0.6715605757636498
Ni 5.456641649961437 8.023336824027265 7.852141555566203 0.7543475264538944 -1.0341982216027932 0.0879083310772099
Ni 5.354984876540087 3.1169300380757754 4.799785569297996 0.48959357773711804 -1.2432823875610912 -0.2137157511930384
Ni 0.9230670910291702 7.2491576677252505 6.851809873268351 0.089886023628871 1.1753309592217822 -0.20384194372275216
Ni 4.941916345181402 4.638996398035889 6.996027312060003 0.32142286216373034 -0.16008999544778238 1.0137119287239833
Ni 8.27008017670379 7.024959346905223 9.439433369059156 -0.2533207671791701 0.04027967345565321 -0.7873504637424763
Ni 4.47301597235596 0.27490150775620753 10.647944151754896 -0.005501646544519558 0.1677896780848852 -0.7007281984665416
Ni 8.392050159914556 7.3142524780151374 4.558768745437495 -1.410208174983784 -0.18084625415852723 0.40548919378703074
Ni 7.155611662303783 6.097610060690432 7.331506458532115 -0.07770259418880165 0.1913857202372704 -1.3340189321157154
Ni 2.3509614466953423 5.228932291987098 2.5094271641713526 0.5866617209367251 -0.3372888826617094 0.15679332697438159
Ni 2.184491108854347 5.227226671870792 11.327322583156265 -0.14987911635305157 0.5763963344549751 1.6154336293176244
Ni 0.9942585859901103 3.3884774620181615 3.795245178638683 0.6636346360483538 0.286213661252449 -0.11939328905936858
Ni 3.9080293088294473 2.850553909166872 2.4962811878493953 -0.8079156894883377 -0.7607814550046962 0.35069795697876377
Ni 1.0546901583024364 3.263468208919296 8.45287184746625 -0.41779526484789337 0.4449859663300723 -2.0541327341977205
Ni 3.433721757337418 2.744079666161699 7.221734380887168 1.0147766225430717 0.183327111598852 -0.15163723669473886
Ni 3.958063856390246 6.730177385101875 6.092230099366126 0.12851222064150125 0.6897722136756701 -0.05776626027619084
Ni 0.6314523206226449 7.5944731616978896 11.447372836491445 1.400180872654769 -0.6753611804566627 0.021851805767768816
P 0.17412476173529207 5.532795773665035 7.964875787296118 -0.25967679130418503 -0.6311577464665711 1.565696152883181
P 8.517776136360167 1.5618218245859377 7.976441343276265 -0.10480125017780662 0.3485575135969933 -0.05747392584675263
P 1.8259842763226137 3.2146040070766015 10.469694148174472 -0.09171690619002269 -0.22127196627374152 1.0201309448764497
P 4.04618453825027 6.217066975963874 3.845543734419612 -0.5150894080153774 0.03226117402655089 -0.4203748526496115
P 6.801613836143349 3.8071799832291147 10.478976169137203 0.7660185350339195 -0.4644433037237356 0.16716824245080245
P 6.243322638818081 7.810941757309976 10.121108944149084 -0.2726222957212595 -1.5652996887757107 0.7814747216879896
P 2.357593405764598 8.466144838052188 5.664743634556194 0.22138766591599934 0.24050253236857935 -0.057831309186171374
P 6.89022443016444 4.00833428758415 1.6340448568193464 1.6605456911649144 0.5029548295353725 -0.582604520148216
Ni 5.502820407365692 2.9532086518052103 0.3816978226450449 -0.7866210417756195 -0.14738771738976553 -0.08449750562344803
Ni 1.7650900091915023 0.9491775947245424 7.148702993587999 -1.1989514268541996 1.618694045236451 -2.1687471138112064
Ni 6.618386687904386 0.54008823880741 9.142235414505954 0.35254760859299283 1.7657701449230687 -0.18124143271441687
Ni 2.713541808121872 1.666744679081066 9.241797359816374 0.7397673146468743 -0.9732569060327303 0.4880622286942562
Ni 6.640151489282147 2.027574058154153 2.643897165447263 -1.1984778296518908 0.33621056199586613 -0.4341464525124071
Ni 4.230473162838212 6.737970617441808 10.616314878289582 -0.01727447080973154 0.39390740248670225 -1.1533745095553491
Ni 8.239977796140467 7.025666997804541 13.692067799227697 0.08792992834376469 0.1734209082287336 0.2034339096510561
Ni 7.442555029530063 3.6221837077418546 8.484793253738719 1.4408829783598218 0.40133197708554746 -1.0590278790519632
Ni 3.0758046338884504 8.309536250564516 12.39570578636052 -0.9919295427415691 0.6971407382255993 0.3417209502911341
Ni 0.04974967271158553 4.680584497042 10.18554872373473 -0.9497498240497257 0.20244300649269653 0.35517681868572376
Ni 8.606976439464024 2.4693478131723796 5.80379522178282 0.8019389030796125 0.5069768062105721 0.8676773829280023
Ni 3.7981982602762243 2.70191093052025 11.40882582186292 -0.4573655709413478 -0.6186971521057151 0.5140776789214114
Ni 1.0745769630627755 3.258423928149794 12.704284218966352 -0.6230711128036946 0.17518828454180152 -1.0376319298746903
Ni 3.1316274029077777 8.333197193454556 7.9210830835652075 -0.15273638329618855 -0.5647219834408403 0.430831014985929
Ni 5.688506188857417 8.084049642209834 3.5079262120889187 0.20509844183767256 -0.16228597465783665 0.9241573202926019
Ni 3.181798037179984 8.310761030967184 3.535107264580696 -0.030622352871547263 0.561722020272252 0.9230543170364103
Ni 3.3469891599337496 4.516273401688669 9.492587024045411 0.7965424146543895 -0.6807255300923696 -0.8323028600834504
Ni 7.1713432861424815 6.255742819345866 11.575802402270352 0.3422040605751397 -0.05546949382221415 -0.8031727754867135
Ni 0.6208175977485255 -0.10056717248534802 0.24980893266216286 -0.001494325157339362 0.22235080116021708 0.2395388829037294
Ni 4.776988323403023 0.4400980739784294 1.664971015609056 0.18419434469515372 -0.1872696411863678 0.08381616328570726
Ni 5.933253603099965 5.737352245805257 0.39077027007220694 -0.24639704347614338 -0.5850869202504375 0.5813050846105021
Ni 7.983281968636344 8.915439651987532 10.948395485955476 -0.11289199760574106 0.25466828234600014 0.8695892552387346
Ni -0.18978289874983093 5.33470795654038 5.839740258489236 0.025585304668272066 -1.8482061400317975 -0.7411027456288463
Ni 7.916445248440443 8.987239000926092 2.3589950988920947 0.8822498814255386 -0.4598124898199436 0.8018892807885996
P 8.643384170989224 1.663641902060977 3.557600583486859 -0.22134704248605105 -0.17140593468123383 0.568618233171453
P 1.7589842520730223 3.2633593395501705 1.486428879221479 0.19186291698400504 -0.7341363416133421 1.2736216619745806
P 4.5700004353523225 1.0555701857028712 8.208455577554792 0.7201315426938178 -0.5290733809992952 -0.6884786916752272
P 8.644173473915387 1.4672687775000555 12.401920412848124 0.6385021026467842 0.7372746301320077 -0.968433516502158
P 6.3246571300025884 7.7797416106079655 1.3470715505165571 -0.21375046108571572 -0.7282387451819845 0.30459782018659154
P 1.749385602695085 3.2693743721943784 6.006238720917255 -0.6507287266199632 -0.17293676950346346 -0.313130540247951
P 6.834002473458317 3.9924756494814715 6.059166471962577 1.2556607066207859 0.06626015667981493 0.9806668253435562
P 2.407210620743747 8.526286092046844 10.09639741184698 0.7647172997239927 0.024458904373312714 1.5013342416673434
