# total energy = -340890.0809235393 ev
CRYSTAL
PRIMVEC
9.03368946839328 0.00000000000000 0.00000000000000
0.00000000000000 9.03368946839328 0.00000000000000
0.00000000000000 0.00000000000000 13.22171767632192
PRIMCOORD
 96 1
Ni 6.2275364150269565 1.9510059062117355 11.557222567919965 0.8954057020812063 0.9136818746825749 -1.2636198135668626
Ni 4.714113391118273 0.15000170287944625 6.056459114707162 -0.10262943933746842 -0.9095256864223561 -0.7615103627509209
Ni 2.6071137358281273 1.4269435149946443 4.658024116815926 1.7006968094625032 1.6219197512626 1.720994897589907
Ni 3.7249786006624332 4.350182178738564 4.841832595649515 -1.9835081299016228 1.0340454980750127 -0.5693389133875614
Ni 4.896449378574761 4.824125660997638 2.4887507234396073 0.14092653514545406 -1.2639995655037843 -0.6706812584824902
Ni 7.156271957953363 5.935639842162606 2.5745725797631374 0.3941760827670566 1.4429594012728761 -0.5369792661099333
Ni 4.854126543594894 4.832012071870088 11.123483520469406 1.0150864404740065 0.3142368859382524 0.3011458570822491
Ni 5.6936995718465315 7.814069087493178 12.532786950113955 -0.29601367806200635 0.23790546106536448 -0.34048399256023937
Ni 1.899342236361178 6.600483249457874 0.3821286763676386 -0.4488287371149302 0.6735585800302851 -1.273622176195213
Ni 2.6425438657728533 1.9635265997618094 0.33269452106842173 0.7335899821915689 -1.614607019651271 -0.18880047600859742
Ni 0.7637324953793901 9.007880179366063 4.697980125165115 -1.254215489533827 0.264437445917622 -0.756922229159606
Ni 8.645773772251227 2.334711864753864 1.7040546483688022 -0.7800050791209985 1.3487737218273868 -0.36714658945309026
Ni 6.989166770875969 0.7813075381655871 4.927218124773572 -0.023077707755069933 -0.17649080540330894 0.201806144239646
Ni 0.721976976095731 7.336394691499485 2.5992173878973053 0.16187536948297926 1.2975401204633912 -0.7851886802044671
Ni 7.699630309793079 3.8447833898839923 3.835329633895426 0.01786839563998858 -0.6217467375653163 -0.44643709695430206
Ni 7.631254314496897 3.78180954086699 12.750879183703598 -0.6796423243305199 0.3070473101683486 -0.25102631471803866
Ni 7.796335955141956 8.586883150856616 7.208586053442886 0.7684358862261605 0.6121061291517588 -0.38477870071255665
Ni 6.504428029747963 0.9466312816873712 0.36580931641222114 -0.1526286540737307 -1.6768115182044736 1.0889449783263696
Ni 1.6150429963075152 6.798068104672316 9.092390343984347 0.9109593335450892 -0.5385741214008788 -0.06221709695869285
Ni 0.06238394909721898 5.223378599048914 1.382119251411591 0.6120135694379525 -1.555918761781443 -0.6751097265674889
Ni 6.409836267725724 1.7380728126556082 7.021525446414472 0.7239293191733532 0.49390403218701395 0.6449270323365215
Ni 3.1644201041478683 4.445126254648576 0.22984777364498624 -0.3305047698603405 0.1202677212445219 0.01679161763604205
Ni 6.150379673604747 5.50690094181159 4.603286282452316 -0.667460180442031 0.6955852208130214 1.8154705974719894
Ni 5.296280472749561 2.6428510112134758 9.242800369626034 0.19353490536978926 0.28265062649153905 -0.6111633056225151
P 0.10287565522961174 5.65354482232988 12.338691809126349 0.05171825430989803 -0.7539657176344434 0.6990682942656153
P 3.8575750941169678 6.272560323146414 12.499772428722832 0.5098315020505477 0.06781078899638644 -0.11004527218556531
P 2.3395539222883803 8.50766672824435 1.4018190179517398 -0.5708473796122878 0.22167562947006342 0.5471094125653997
P 6.5634180217263065 7.4445821561139764 5.823955436369736 -1.2101676072849932 1.0411368577041553 0.1495304747643812
P 4.493086111832805 1.2013813236152822 12.712535688917674 1.2848427275013807 1.1949227653107808 -0.16237210661373974
P 4.04178105528548 5.8691609216467375 8.319289912665976 -0.5165801336282909 0.31873554513955427 0.3549217652521242
P 4.935176805161462 1.0222522959064684 3.9663434249618126 -1.00705097176404 0.6968419760382579 -0.4490796767834717
P 0.19880621002538737 5.54417394440005 3.634293005949755 0.06995945990827306 0.19111755417754828 -0.2250111216011996
Ni 1.603940591997962 1.2217793943483752 2.6438808518085035 -0.5684575392238725 -0.9245077616534851 -1.6665183638085819
Ni 2.0659776715882083 6.352833687421997 4.686768413213458 -0.09656909207600142 0.3336497432472254 -0.6743484229214323
Ni 6.0924104885320025 5.525374836696079 9.055144442464178 -0.33060144333920477 -1.2132552450713814 0.6717850330696301
Ni 8.499247329695528 2.3417220077515966 10.466417216404484 0.29137540795904654 0.7731595169540749 -0.24469574451432052
Ni 2.290997841601766 5.153277169071588 7.102507955310315 0.416874809916153 -0.6637775893841213 0.3948479120231006
Ni 0.5675316013856344 -0.074650795974308 9.124069686077709 -0.3447772206189546 0.6087891489633838 0.26045583556205465
Ni 1.108966680745689 0.9613200607006613 11.697980999774567 1.7192241788427294 0.9568031313520813 -1.0626724177830862
Ni 4.337896361113671 7.084219251059143 1.4739042461279086 0.17403231656048737 -0.2660258734506644 0.1761215949893483
Ni 5.7345318480704375 7.56912059859689 8.229844643512047 -0.8463606237280973 1.397957125530573 -1.8907005617505828
Ni 5.280868998581864 2.87807021659358 5.187818383976395 0.9840491115522279 -1.9668463529752254 -1.8894913719338298
Ni 0.707709167009882 7.023377352747636 6.51567587645734 -0.11561273897101379 1.3700359736402727 1.0733350397032548
Ni 5.162048881508183 4.515932312401446 6.842688206874249 -0.2030886104964954 0.14344210247845618 1.501881886640697
Ni 8.077970256813748 6.951595656536318 8.936162622349698 0.41128317476098847 0.9546377482696464 1.4783426658681766
Ni 4.670760715543378 0.31281950095332967 10.552200227863466 0.18668702921002042 1.3478812919201044 -0.18650473799588524
Ni 8.240179184220045 7.3611018320907196 4.489831273531152 -0.621006516965182 -0.9105425577226448 0.037762306350438195
Ni 7.5232113889132854 5.833712724323153 6.893750233008765 -1.046336913847856 -0.5540452204532845 -0.5036192025922488
Ni 2.5259641036778286 5.62946100630932 2.3962647144235167 -0.18405293402128303 -1.4722049284015548 0.8303994724131504
Ni 2.5201102729271447 5.085154117079447 10.841067804661913 0.06937119150497086 0.6729618269865507 1.611576203244747
Ni 1.1457247630366347 3.40066011643357 3.7000709121658506 0.6930994782766903 0.8330600499644492 -0.04351849210792505
Ni 3.5994193512739217 2.765953097077009 2.8124178786605625 0.05078828629646091 -0.013010296216738885 -0.34401951651732365
Ni 0.8708702452821079 3.3325731991991496 8.215565090629939 1.128977054547591 -0.7279644084746754 0.028232512483132022
Ni 3.7026111856335855 2.3197340076788118 6.9038255068301195 -0.05235434523200015 0.24422291864296003 0.8652484617715356
Ni 3.9300252833461116 6.539650384835797 6.118098687795343 1.3944712238645016 1.1040890330566597 0.002044798344170672
Ni 0.6870057575740527 7.446723140508902 11.343149422757762 0.37099835909901263 -0.852632315669422 -0.136141712162301
P 0.22497409819746467 5.387710443471276 8.07566666600908 0.6779549093257679 0.01987925542243028 -0.736609485744183
P 8.524930108745211 1.60099560924376 8.148081623849446 0.009415636886945074 -0.6088961068548934 -0.6444914874609997
P 1.734947156112805 3.020179185017976 10.502684769359377 0.19990712744472022 -0.37483547345691576 -0.4048374191356447
P 4.241389456932257 6.319083823711263 3.799035883241186 -1.074267578819853 0.40439107562684545 0.0187651964226451
P 6.841348510731771 3.9352648232155505 10.357788004376863 -0.2909810007341053 -0.19074500132947794 1.5864819792802807
P 6.448057807704341 7.8222174753591 10.216077421656331 0.17991808591730304 -0.3931003332043746 2.002823799511099
P 2.407704075348812 8.351284530520447 5.838803208316995 0.8257838280180101 -0.4132022461605722 1.03860689219345
P 6.888296594699833 3.9976063139724487 1.7014502357061136 -0.6525804351167211 -0.45162275492029963 -0.9095328855112078
Ni 5.159555583225485 3.2603036837586075 0.24755561166580506 0.3365532900472656 -1.3509221356289571 0.4726780329287021
Ni 1.3649904728832396 1.03711271501893 6.829956124991512 -0.07391793033538882 0.25910832039522474 1.2477041707778704
Ni 6.8817110351053135 0.722115191544011 9.333487771076596 -0.07438638533137512 -0.10587931373333377 -0.11926293412909136
Ni 2.800344352737277 1.349154415312331 9.21163685119913 -0.5364622172641987 -0.11357411127443019 0.0879003606574099
Ni 6.12415487318926 1.9505722891190924 2.33229806293815 0.19934688406587603 1.6394299922322217 1.86303060663914
Ni 4.138884182969278 7.1959208208619305 10.30426610461054 -0.19859689327372892 -2.491405905264567 -0.38026230089944185
Ni 7.848541646358317 7.129152822284301 0.2334413753002672 0.25009531826333703 -0.987520872150912 0.21542862011908706
Ni 7.4923071373730235 3.6308565904905574 8.30092442205465 0.4093625606995078 -0.12391560240975431 -0.588384874275419
Ni 3.3320221441439157 8.520693308402508 12.527551023720289 -1.5006451860201186 -0.9378191340504106 0.3160063191338493
Ni 0.29121543268132255 4.9868856434591695 10.235460105697486 -1.2197873897629443 -1.1093991324156636 0.47904151325288463
Ni 8.771721470285232 2.725156955610823 5.861795754654404 -0.03859560088501095 -2.837705218955003 1.7895500209514859
Ni 3.916610254542461 2.754832625388596 11.158322847125405 -1.630157051570728 -0.7228869939517679 0.9314186298407056
Ni 0.943270749219386 3.469144516002914 12.606352799987715 0.07439538419243961 0.5069914614985914 -0.6789000468478567
Ni 3.2785246353390542 8.206691297502783 7.93395608328855 -0.4508401111180042 -0.13609877473950754 0.214008856953425
Ni 5.864318864112222 8.036857936217508 3.720842977641348 -0.8253410840536367 -0.9043297440437136 -0.28488208692521905
Ni 3.1685936686645593 8.450058890748808 3.761750233487524 0.8711116054205319 -1.6823962113811026 -0.9628542226421676
Ni 3.2373942473639556 3.824258847498878 9.009952507721321 0.33122056498044244 0.45680918421724553 -0.8687359060995038
Ni 7.051291453086546 6.048877139168507 11.48828467714123 0.7385635241467603 -0.7126326632136113 -1.462139830856069
Ni 0.24862429712538206 8.813357744868414 0.32173755915869257 1.9672564439294506 0.8840964477159742 2.1053820192909996
Ni 4.3414104663019675 0.3920919324400603 1.802794680577329 -0.01254621209612678 0.9855745470578187 -0.6749410622001086
Ni 5.851328418711785 5.475129456086043 0.30359158720051543 -0.06938430413109341 0.7714998698634649 -0.1080593521037881
Ni 8.04492502087856 -0.10108969482928734 11.569505675438029 -2.746223311593922 -0.0030966366474527315 -1.0562654858154776
Ni 0.4844668270761613 4.811586900068704 5.667925552533605 -0.3542188256478287 0.7865032852508326 -0.1462122090244256
Ni 7.979755985330051 9.264229184323096 2.715661644650879 0.15327837184258764 -1.3509167363123187 -0.5609686870459951
P 8.62093112631854 1.8374253290074936 3.9743951523508327 0.6449123770485022 -1.3702187790750402 -1.5204748191515363
P 1.5946539592638524 3.3517336544803236 1.512061646911572 1.1689104004074191 1.0108672601863364 1.1439645290953588
P 4.8325721606147525 0.6923636387750258 8.193908626959237 -0.01626428437766231 1.1113086907335505 0.5243536069261228
P 8.328086016064034 1.6706182536812924 12.837494197959085 0.8265921828519185 0.39963247789593753 -1.405516940155702
P 6.50258515710423 8.03165453110579 1.54712591243438 -1.1761097463693357 0.005122923048862145 0.3300162602596961
P 1.973861140469807 3.110534146697514 5.875136707204727 0.33609126280918245 0.6535785373639326 0.5986458898817948
P 7.039366983038857 3.82721286394251 5.985762364596394 -1.3126332673510877 1.141964982166827 0.4093849292970111
P 2.348425005308707 8.489490945111054 10.433719777512355 0.4095649065183011 0.8792635451037051 -0.8008412991400595
