# total energy = -340884.690253972 ev
CRYSTAL
PRIMVEC
9.19430809377914 0.00000000000000 0.00000000000000
0.00000000000000 9.19430809377914 0.00000000000000
0.00000000000000 0.00000000000000 13.45679927014863
PRIMCOORD
 96 1
Ni 9.18777998359429 7.8845787758621455 11.439193847132128 0.1721474408329487 0.6217829901198904 1.1143441351257648
Ni 4.590534069398229 5.881010354938323 11.586802025129122 0.5723458185346852 -0.8523158128702676 -0.13404677730648526
Ni 2.3866860385687403 2.170068143449724 8.052777606495772 0.036707896943994844 1.101483991333645 0.3588838352236658
Ni 2.46536173163043 2.8782781013161265 12.461143933203738 -0.89847637058673 -0.02164791728707885 2.248632060363308
Ni 3.1777367109946644 6.622034797850556 8.324833500783278 -0.6638292685576632 0.32294624078679224 0.10907056697712184
Ni 8.831325858981847 5.06860130516259 6.013399194998541 -0.5973410550274422 0.6027277732606522 0.16129712838200608
Ni 4.7985828695150845 5.820465837138717 6.886193701046477 0.8874730774976909 -1.2318106394760655 -0.4388466862015539
Ni 2.8584367847767873 7.156922856697919 12.725206296166267 0.1615616948973024 0.0635926371499808 0.7483565989777822
Ni 1.3011876542927954 8.946429400110667 9.349367187386656 1.086174357559768 -0.9046277349001065 -0.08286819755014115
Ni 5.902966362304376 0.7559348521021527 1.4210382166121887 -1.1630344012426161 0.6765148344451317 0.6523616342376958
Ni 2.7981405132916213 1.184704966972642 5.844570554270869 -0.7242324522360689 -0.011187898296019442 -0.37008073238074973
Ni 3.7140131103413045 4.606853965995693 0.35416566136562 0.14122838265658902 1.0340377847655287 1.0338459804696971
Ni 0.37114203155015946 0.6012921090985545 7.16511314621286 0.2845393588738196 1.3752105758626767 -0.9218854935392897
Ni 8.169942511465239 5.678616054205942 1.7437722168464898 -0.3104504223126266 -1.3986536373769654 0.4917003396674758
Ni 5.270857691275838 0.6773511021198849 6.102321944261849 1.5421235077695636 -0.1969601290012543 0.22380141756381455
Ni 1.2069643865007886 8.781501904242885 0.4014731340207928 0.4339333080603366 0.07197109102166316 -1.018032667586524
Ni 6.5311858410733485 1.9168017368729664 3.622744893121932 -0.8494996835777111 -0.2439465250531218 0.27790462716612135
Ni 4.600215675661401 3.125623373578086 6.915422405994837 0.5690902877118651 -0.6300303177303471 0.9701564127305357
Ni 3.896483345762866 0.21689188549569452 3.4861183965311398 0.1931286710703061 -0.051752192871627 0.6863575315671663
Ni 7.031953823147084 6.086576691910774 12.876837903318785 0.84436673322652 0.33358700833009003 -0.10590245366178536
Ni 6.577037854781267 3.897577468407992 0.7173132421600077 -1.390321463362186 2.124446492121619 0.03560823612191287
Ni 0.5059802352461874 5.243320738988849 13.109788567066385 0.6894575106487287 -0.6531167672361655 -0.4945756043327417
Ni 6.129256669378622 8.564553014037948 4.074153233007787 -0.19755173983866622 -0.0322082093014284 -0.021210058418711857
Ni 6.36716858169185 2.0045522118736407 12.973592364087288 -0.4104683921691769 -0.9143791578599156 -1.6546874326119245
P 5.1690583137394315 6.177140625141773 9.323704954489088 0.044365413489252624 0.35943276574860034 -0.25787110555401394
P 2.4371995664033697 5.0904653694492215 12.14154519197774 -0.31041905485405896 -0.5192970183388218 -2.3794940121839083
P 0.6537483942013779 1.766024280928283 0.6267437923442446 0.3265599262799795 0.5901141982616999 -1.4318987725833403
P 7.0449269916535755 3.80579988652862 7.056812473530501 -0.4819507164798796 -1.117219656901347 -0.44943963122605174
P 4.176321302292678 2.543072022358186 0.5073888032229374 2.025413511886157 -1.0265342772996322 -1.0929710687666274
P 2.403116266861511 8.751243436804995 11.314085979531365 -0.6968782285928321 -0.2689620732608529 -0.38917348734614265
P 2.709507384728493 4.725313429523427 2.5976466760109 1.1462677233072387 -0.2459355304586926 0.9937815083486433
P 7.190711938385626 0.1253836968390294 11.611091547850917 0.3110798283665094 0.6818174776049677 -1.3273489762947075
Ni 8.760474521978997 3.1173760793539027 12.696893344288956 -1.2117069267476552 0.09261139297983405 1.320094094504507
Ni 1.6034781108175409 6.371471517808815 1.7203975277649501 0.8195615012573821 -0.1125137883307159 -0.8952344666106647
Ni 4.429229130859689 3.353789319472547 2.8619251052100703 1.23736576496634 -0.1575623439299222 -1.692940305445536
Ni 1.3801759538245213 3.4260014140508472 6.112212261315309 -0.4220306430854796 -0.6758918561491521 -0.35774689340574517
Ni 1.0535665527925686 3.774778291531524 1.6124067032602436 -0.6288116148318977 -0.8212417171732823 -0.45596689082160824
Ni 7.870980394415582 2.334158957294761 1.6445821839040888 1.6426338438815 -0.9545878688683173 0.16324936701237044
Ni 1.6718837619077564 8.527812559500784 4.4829707802128365 0.7442677736203892 0.46865682758445093 0.07272185314475862
Ni 2.8843003730182897 1.3536779583350051 1.651135886605313 -0.4180243501395639 0.17962060928154228 -0.576627990849807
Ni 2.8294563261428682 1.63513411306265 10.478889756951602 -0.4850648366288292 -0.7161373339327602 -0.43145142217874727
Ni 0.9263173308720603 3.6689610014243614 10.907973397722921 0.08801117520366133 -0.08367860926657847 -1.6930426353513552
Ni 7.069181576005187 7.059647078669091 6.129343095873279 -0.21997561605982113 1.2015281864424403 0.5535286858281822
Ni 6.5001826346921385 1.802681986693967 8.08359324899496 -0.5468733852951936 0.9922131354202588 0.09830432959955328
Ni 8.615664171888824 5.4747874414345725 10.973602367814584 -0.6033139847814254 -0.25749675293373075 -0.9918832628846659
Ni 3.795217238087109 4.287085130072763 4.984949652642564 -0.801623942942355 0.9449313196151596 0.09961250688801554
Ni 3.068738190339489 4.342719887431216 9.826195030440404 0.39817671928601744 0.10161282514749596 -0.6555045507420517
Ni 8.440898766522853 8.734895957283705 4.911812610685275 -0.23951677141654235 0.15957551770520906 0.04137522051267713
Ni 0.5478566301998831 1.1851279051379848 11.681672572200263 0.6658992637128145 -0.5423814109621111 -0.08163586780493683
Ni 6.503465002627515 7.7909255551625565 1.7870093693756361 2.842893190913846 0.16225923518495927 0.018033974683575392
Ni 7.429653613188385 6.43584086771239 3.9394106501143593 0.6515003146786651 -1.1726945500401997 -0.7749171230751299
Ni 8.115751260453715 9.293514524929973 0.02137584653489814 -0.11933621056918804 -0.06425495332432804 1.2689841632025691
Ni 3.9131618203700773 0.41170455989890997 7.990835553888946 0.601887536747544 -0.5029579148591661 1.4280912259117922
Ni 3.9840683232205807 7.89472929183037 5.865751481477393 -0.3565017081447344 0.03213159042722208 -0.3464489518944227
Ni 2.3063645643853903 2.7997127399497437 3.834353729274019 -1.049955741547366 -0.8210853941010763 -0.14295153599528282
Ni 7.741119989039479 2.331823603077434 10.6614179165132 -0.6388851970178159 0.6158820512544231 0.5815393121084953
P 6.929823450524758 4.078861638105005 2.860202091901696 -0.08765379186424259 -0.06476017509552073 0.7101098967917577
P 4.451047223606609 2.4549261921159955 9.324579333174395 0.7758532617361541 -0.04988377220432054 -0.6365251814260715
P 0.4554382050569368 6.783955755021227 4.809339290376703 -1.4300925726125369 0.2834615524286086 0.3977308899978505
P 5.107382896062931 6.355740056919654 0.2866472609918299 -0.40809063596561973 0.1533328792296069 -1.3746526464766777
P 8.996041885766957 7.01069658318464 0.3865801940159634 -0.43676692085438973 2.598066577248616 -0.4783460298477568
P 2.2403494333601555 8.509837687473718 7.096308462157952 0.7875476673549469 -0.4853466295353061 -0.0926443031002985
P 2.2766761440399192 8.45117800280227 2.157219098100453 0.8323522252641472 -0.3520069055981744 2.49095544799071
P 5.429634195130265 6.457070524751006 4.800269105591689 -1.1431363767671088 -0.15614823719121493 -0.19037913334962697
Ni 7.323882294620933 5.6680517943803155 7.944476933813412 0.15501798024151367 0.6661049519657174 1.8665859280905661
Ni 5.825642232510194 7.899160948258527 8.147405423837236 -0.07092902291039398 0.6910719063237002 -0.05342778080183702
Ni -0.011626202392953975 7.75170263748099 2.7029325351190017 -0.394604685664043 0.5236732930296465 -0.19533339203110875
Ni 0.8872608301642475 4.953433403878177 3.8354570462270874 0.4134074201928429 0.3553493397078461 -0.30967266360633766
Ni 3.4731038536389085 6.720570196067469 3.563898563999256 -0.14341741988810786 -0.39778025517854715 0.31754358171398217
Ni 2.1922723971302176 5.9602652894003745 5.857368111495664 0.12741435959163216 0.3818332449309876 0.7108370047657694
Ni 5.476644691638903 5.85122999151343 2.25428340704661 -0.03982613085800238 -2.194306193227234 1.8270937835332146
Ni 8.021417660966403 0.3623918086815361 9.387893176526202 0.31631048063782946 -1.4595689848050992 -0.4238301581880637
Ni 6.143204434526989 4.102399066437123 5.110192676570077 0.7219621681446534 0.15397205547550258 -0.8796836633602592
Ni 4.593568191019166 3.179097468570115 11.545395459311276 1.0073139956174393 0.05781793944973268 -0.22078114268025203
Ni 4.247476051457621 7.904843030566827 1.410084118129812 -1.3248370085061312 1.0857537250825817 -0.0007479339096180667
Ni 5.723190059109888 0.7559679516107447 10.114250859408985 -0.4065088933007967 0.48996355948202713 0.2703247579363344
Ni 8.455968237240173 3.3625882721732645 4.3059877077712 0.8028279905527851 0.2693485100659942 -1.139547630974586
Ni 0.2708063878381562 7.491237087785462 7.1694730870390675 -0.24489063413394602 -1.3142404639372076 -0.19626413137549426
Ni 7.681531679265865 1.8446815853740888 5.81273158529771 -1.8281890734799224 -0.39796100373078563 2.0234134507369927
Ni 5.821403656548824 8.287841122208496 12.932091096897636 -0.817605663082592 0.5394002168466001 -0.49635994992667415
Ni 0.7769741869663651 1.038598219462613 2.6768538000716515 -0.47790585698654464 -0.2628140513815861 1.0411772240237875
Ni 3.6105771459911806 0.565324895859332 12.755901493231415 0.8675845661038801 0.08459109377851884 0.5613954901707686
Ni 4.4448410657456 8.041121062886608 10.304166645402168 -1.426645494604201 -0.25436206395949096 0.43067366347245833
Ni 8.410493190157888 3.499730569439616 8.697182744966252 0.5687516734255237 -0.07522996427859302 0.2653064787861366
Ni 6.949664767064097 7.337020960670385 10.598049826744534 -0.40223160608168146 -0.03611320078278942 -0.7783238347638338
Ni 1.9003255370404846 6.6133277882292605 10.376900976671585 -0.13343279787157022 -0.2087409236862663 0.5336661425763002
Ni 0.8174337390661627 5.249002821297149 8.228778726849178 0.5625473443870247 0.31140198759261856 0.41267954088788283
Ni 6.089380955833155 4.251126191710688 9.696498283745672 -0.15854013446215923 -0.6687184783291644 0.14882342139502755
P 7.428062997914378 9.165860753460004 7.153809664028679 -0.9154559358638621 -0.6763919357140222 -0.612760474906306
P 2.84136295492806 4.348641021746014 7.429714295620803 -0.16369879584496322 1.4053143372265928 -0.0691251369324358
P 7.867302671238688 0.3385160298171447 2.626322803051931 -2.1043137259274856 -0.37086054796956774 0.4938464394762011
P 0.35492327234006 1.4443338346454253 5.052018451357979 2.9952598495754414 0.9636132122953792 -1.2983597881512092
P 9.037499020278485 7.202655344402587 9.342315153194964 -0.48383816331057966 -1.6738174685731562 0.561457967977588
P 0.5260045185135772 1.7086977709084585 9.025757889036255 -0.5728834362057101 2.338293883796515 1.937794944135224
P 4.548810299956375 2.0142062352129857 4.671420074089233 -0.6878336018920606 1.222731817103249 -0.31041416975805247
P 6.6333529909274445 4.189037030176787 11.948318535694558 0.6450890118356826 -1.1836636474571938 -1.3291880863859753
