# total energy = -381175.08201215346 ev
CRYSTAL
PRIMVEC
9.14161251511495 0.00000000000000 0.00000000000000
0.00000000000000 9.14161251511495 0.00000000000000
0.00000000000000 0.00000000000000 13.37967396422141
PRIMCOORD
 96 1
Ni 3.648719212313631 3.7870958003602007 12.94870098267026 -0.6983090475020878 0.8519663999506488 2.550189293951363
Ni 4.339962239673171 3.5209377531265433 3.661976378726073 -0.7332338844037308 -0.00016017972694811123 0.6465571117407769
Ni 2.8391105866171036 1.9499882156058463 8.340166395908566 0.22751460474934365 -0.2126585135731176 0.15043396041525703
Ni 1.6695235448475225 0.9037215261351503 11.417986424139412 -0.6181906447829417 0.5181143108846303 -0.02742981407617857
Ni 2.4899101316530476 5.402382158388651 7.7291702711843175 1.4544612312648888 -0.4417702876062521 0.5601778157135836
Ni 1.0976516931973108 1.0616428816550345 1.5095754938417476 0.35879693193681433 0.5200200125477753 0.09246818253375041
Ni 2.1021960633283396 2.955593012784071 4.123388298508391 -0.1476527981256941 -0.4879141331521661 -0.7761826200511148
Ni 6.854764982097891 7.078058008432403 0.7295893492118847 -0.5443555039693464 -2.2835453273007253 1.0326357622116795
Ni 0.23836023201716738 7.910237275331744 11.385807948224508 -0.7704999678440407 -1.8280497196885808 1.4920733851907078
Ni 6.4772712365211556 4.544286420120345 5.827489992545723 0.34954147477681735 -2.1347753848514524 0.4755514978217552
Ni 6.182618783200351 9.165837748886366 1.7953651538672402 0.3464913750965839 1.0142552028219627 -0.42928141111062196
Ni 8.169593962883386 4.035318003916289 8.059379940391093 3.1574105842069944 -1.0164244425591396 1.292335436334
Ni 2.566343153563424 5.370377373110786 10.944279035577111 0.34864518821479307 0.6936918604450504 -0.6031743738797677
Ni 0.7185663928885345 6.2508517787199125 9.107262866947515 -0.04342850349728005 1.2501580316350016 -0.41321407323511417
Ni 0.8490912499796176 6.594201601699439 6.804313337005059 -0.32655941205934724 -0.12180112716991282 -0.8443471928424943
Ni 4.938847556189446 2.3794977361700282 1.410458474733858 -0.35519661618006565 -0.44863461882625316 0.1366497621469711
Ni 3.6430239877411914 2.449586479022182 10.985020459898122 -0.46493618419975413 -0.9664527386267034 -0.46222444169554594
Ni 1.5481320727810364 3.47239579087991 12.040382139621018 -0.7595725222982597 -0.7288969475912737 -0.6317850956379248
Ni 6.052561062506783 6.772783001414689 5.79642222254663 -1.3422469764524625 1.5010120824412343 0.8523322679304998
Ni 8.919379876538112 2.8060910823544223 3.216179247213713 1.064486073953057 0.17434599114616425 0.6285871575259174
Ni 6.579986394299531 4.6658881492737745 9.906257166398362 -1.0501678575581719 1.671204456430341 -1.0143027682304468
Ni 6.214705842990498 2.361708158292072 10.464952297825919 -0.07712795263225426 -0.03709176264597483 -0.6882922866960339
Ni 1.500970494018253 8.406096619245467 13.357744261223564 1.3595898386062841 0.5206841284943355 -0.24665286824069133
Ni 7.954409546814932 8.399048436026606 8.385242772865613 0.2972951158775912 -1.6638212765923925 0.7841664095875398
P 5.109914550449568 0.9178818838602039 11.687466533346786 -1.068343242915618 -0.5856355936650559 -0.07275296349301019
Ni 2.16449615235109 0.7829032331708987 3.8288482870210383 0.4181811874324024 -1.7481015239987119 -1.137586650593473
P 7.19835248700179 1.2916184267093749 4.227602680732801 0.17955633170251012 0.5081618276576088 -0.053924517932597456
Ni 6.705774981966888 5.46157409916962 12.030869377678673 -0.7693164890589008 -0.07490214862552906 0.7581105930407525
P 2.7827068376412605 7.170735675712322 1.567254497757968 1.5394315627596973 -0.40492020865743816 -0.5055763263186196
P 2.7801380445355535 7.33230453461006 9.423986829429953 0.08939211471158799 -0.7829716179484902 -0.5526730226961063
P 8.553541686868055 6.170113057333421 12.843804636155154 1.072433868045224 0.5431596838890322 0.8589587721080821
Ni 8.235879794945598 0.7981797817792505 10.908836089847089 0.7166515545650173 0.593643551571197 0.3794225786069659
Ni 0.22606202075343948 1.2182661282033516 5.009483881628903 0.592023756579587 0.6304406657948883 1.16085050621742
Ni 1.177777926547921 3.185312592689088 6.330190919236353 0.47199591926001294 0.6510501145151238 0.4732544742574623
Ni 7.360606966835216 0.10210084141999905 6.394828518569172 -0.4030476742250736 0.020793539706583545 -1.128210608695212
Ni 0.03102023361421843 5.263749605192758 10.963224113272013 0.33500111506879726 1.7325905728473066 1.7443772810695894
Ni 2.1619182176329073 4.955905805069337 5.103863717151818 -0.024411853185461185 1.4182927517641315 1.434283213655117
Ni 3.7191736196648173 5.024422190575648 1.888220168429189 -0.24841690211964956 -0.9220063353878701 -2.4644604870239752
Ni 2.4287710274147276 8.633539937644004 7.608565891952 0.916495175761654 -0.4190885297380202 -0.029467927552129895
Ni 1.6872765562755754 7.501232391550839 4.100589116993682 -0.513490953180006 -0.22583747415723687 -0.21362653391334177
Ni 3.2016577957958643 1.3836287562785576 13.166509041519276 0.1011446272618258 0.15606930432416347 0.08036651417420998
Ni 3.834449352984976 0.22207262106898926 9.769797574487972 -0.22579890760981758 0.6500484127234869 -0.26352778961915907
Ni 4.210416449278249 6.351967154315018 12.953785547529314 -0.041462123799528586 -2.2449695239100564 0.032309253655666934
Ni 0.8964877681830297 8.778260804748797 9.45086682675387 0.9211270181067104 0.49834792689098045 -0.7136945288192225
Ni 7.731454760142026 1.978510046530422 1.499058982849558 0.0991885319767195 0.28016616950678846 -0.7339833609752456
Ni 6.436636769066112 8.251850191940864 3.9702973710207323 0.8810856859141084 0.19823308217640698 0.5690913161531295
Ni 6.848146454665393 1.0665610691670286 12.96973400465464 -0.5113443391506484 -0.17375335186748783 -0.9262255156755402
Ni 4.781575255155345 9.079732900976566 6.0073265356539025 2.48431685962827 -2.527653317632376 1.0645243833901603
Ni 3.3673220970827726 1.4184125917490735 5.787966231006491 -2.6450696854710314 2.1214550135934624 -0.2472182538258581
Ni 8.738814746915608 5.179409088490793 3.6873580657652023 -2.131636839222471 0.3529255607577019 0.4287041984509133
Ni 8.366961376236459 3.4125822204505845 10.332172204937049 0.16412817007289798 -3.041979622229484 0.41086279939411824
Ni 7.901470468967427 1.715569846888255 8.646948854823544 0.5172082541305931 -1.6893528452045938 0.16502779906903192
Ni 8.72615361363659 0.06418783199900825 3.1989061704406407 -0.3835083186405653 -1.258128451434988 -1.3907577795686563
Ni 5.822320410690644 4.544661226231854 0.9487750490610083 -1.322645143061135 0.70911487986834 0.32620794225719946
Ni 5.369947717324422 5.45852994221517 7.9164992798776845 -0.4652092353554827 -0.23194641526845214 -0.7971864759962917
Ni 5.758054874985591 5.390708319257022 3.7654813718223585 1.8737842456112181 1.2133354634900138 -1.5634304967774557
P 4.610023755434006 4.366710597777436 11.239193853175971 1.1830710081785174 0.9905452607995328 -1.3716051178996054
Ni 4.180185136820694 8.355845175465854 4.005365510639247 -2.2009560944435838 0.14020534070871338 -0.22188980236339848
P 0.8793280474046578 8.464502381353515 5.84136513196153 0.13732981893313123 1.029619601093175 0.2404675653655859
Ni 5.9190935203597315 3.1106530435990223 12.620538120496821 0.13537398075834106 0.7973566830255687 -0.15015268172941235
P 0.13109529370957457 1.6693955622728607 12.8611444466993 -0.19224858245819793 -0.5217243968333918 0.5577573791975491
P 0.7815630727819427 1.883656675481257 9.603247450952157 0.0627364597972726 -0.5375495367911065 -0.3370945072627162
P 4.355347573469985 5.160522517115737 5.448323331885911 -0.17568733566540712 -0.15100217421390125 1.2831565980482094
Ni 3.7658781178038097 0.12297845599228917 1.6976266899207049 -1.4820291135808283 0.11444083015009968 1.2178647188189349
Ni 1.6659857408193777 5.893094774478484 13.169091547043697 -0.45679658581175525 -0.18757971622761888 0.19137209339051559
Ni 7.861686171472635 4.922346945670582 1.4207208488992196 2.2618860971597368 0.40400849547644613 0.7505749467853395
Ni 3.674260877571087 6.2376878567547225 3.7019416801478866 -1.954018862193254 -0.2969801557403337 1.2784159980394305
Ni 0.8711828706886973 3.469945838736389 0.9678453668468276 -0.6077848760685856 0.5599700705781517 0.39635046471055607
Ni 0.8711636733024981 1.1679872595863117 7.391721359057935 -1.5714299700431646 -0.7504595042533978 -0.13966618037579173
Ni 8.331848442716813 7.102968902429028 5.120039800427792 0.12217470845924765 0.5710952339570359 -0.26077362391278963
Ni 0.7481294534741063 7.2101634503205565 1.8053057432734525 -2.242500493544273 -0.6089778679354222 0.8382097124861887
Ni 8.317706368216712 8.853139752538281 0.6379309717230212 1.478855343838537 0.0013040635234042059 0.22732357178446014
Ni 3.196529351196926 7.163660067656033 6.017548686724371 0.9569519982251197 -0.9030933005334512 -0.36680514695327154
Ni 4.977233186975438 7.177125662832924 2.118350206734371 0.11467737164093798 -0.49647564956893203 -1.069624423620887
Ni 6.241765015918942 3.1307280245959346 8.121529192807992 -3.558042449901724 -1.1652707467723027 -1.058791594671441
Ni 5.7817682177478815 2.124702713243822 5.714218100680265 -0.19600187885304307 0.3132320988228218 0.33355229843741263
Ni 4.6544794169039445 8.445707226103218 13.138840123038696 0.49198187546363653 2.0220068001974534 0.17385079667730058
Ni 3.950602681102814 3.437474831222257 6.861993255082527 0.0982289962769276 1.02716599734636 -1.3135123275219314
Ni 2.939384933864433 8.004085069008568 11.472080087642617 -0.37836354121483223 -1.0449585454430905 0.4639905324570332
Ni 6.72107804125142 7.908820325397992 12.201232467778155 0.6152711571433016 1.1499701118594905 -4.052711899499853
Ni 4.943628619514303 7.782062726808196 8.231054851880858 -0.19707274331971864 0.016010516495643393 -0.5783483159750233
Ni 1.2840034635170123 3.9291473166220516 9.30712868299023 1.3227271612519802 -0.22041990268609135 -0.3485914521587223
Ni 1.5754380692463268 4.943720035639061 2.8788647167907255 0.9118031696026233 -0.016134186557701245 -1.3181991914746396
Ni 6.6607708237484 3.3645978965649768 3.1470732277027107 -0.04430190724116886 -0.9487527502437789 0.1915207031532379
Ni 4.790470044094324 6.365067084992875 10.347773280788294 0.05273949648556079 0.7394281861399007 -0.12714799330412294
Ni 3.83614969290548 3.921779176966537 9.100104984378945 0.7786015139052527 0.8057785885406769 1.1208881068918695
Ni 7.769913523827824 5.891677824544731 7.331071331087071 -0.754710823330584 3.930299363998186 -0.08627336657694819
Ni 8.020101174066214 2.418696970466368 6.420531076206203 -0.3543877471255252 1.0964497713438472 -0.8079015484209505
P 5.272845509606204 0.9221053088240352 7.824286006511539 0.10909447823652178 0.7901966749420197 0.7809566444009906
Ni 6.212740396308195 0.07451602577419582 9.835344764262135 -0.16608220847547528 -0.16926189175503753 -0.03251262791572465
P 2.6850469915620176 2.8880182133627694 1.6895052813971816 1.945823213756339 -0.6109779290845866 1.2618984600003815
Ni 4.989684063167512 1.2457732401431105 3.610679134479226 0.5286897724076314 0.6780896351314193 -0.16679003317577729
P 7.700318428049364 7.044270608721753 2.639007088650018 0.8500822955540586 0.005760299522544919 1.5336877182973845
P 6.9894209338668 7.139608485232135 9.982641737762615 -0.18524232634369386 -0.5191448090316736 -0.019539098474192156
P 8.74961099124956 4.673530537303566 5.794401926189472 0.6510061486510659 -0.051859407873452626 0.16107138552444517
Ni 8.414708018197693 3.706896434109784 12.773200306359364 -1.7436476019924165 -0.2723502730067955 -0.824297987501103
