# total energy = -340865.04429837066 ev
CRYSTAL
PRIMVEC
9.32548322333276 0.00000000000000 0.00000000000000

0.00000000000000 9.32548322333276 0.00000000000000

0.00000000000000 0.00000000000000 13.64878733163830

PRIMCOORD
 96 1
Ni 8.061348530814753 2.8754753917639517 10.464306359960789 0.369267492450835 1.2352877993913887 0.9379327768101396
Ni 3.653658974546042 9.162995818132412 6.327605082644067 0.9471699791376912 0.016019258246391766 -0.5383419507854148
Ni 5.783468742869296 5.919928536113515 9.862586094996123 1.1972609265256542 0.07476536593734866 0.12332347735171019
Ni 7.462372755507148 8.80221153049267 12.822516791313957 -1.3968245545880267 -3.5274254963468152 -0.8325602275098951
Ni 8.899746757550778 5.007001048965558 0.4203051156559072 -1.7161653374117478 -0.14132402769418886 -0.3601884129677022
Ni 1.6146421090469338 0.5534151953941243 5.155460873778605 -0.13236938960406236 -0.23924372026081378 -0.18263985572384028
Ni 8.630939709080566 1.1921604256507685 3.5132796807824125 0.8460742028359299 -1.16924772914218 0.7908260809959025
Ni 1.5881111098137075 8.552624302556618 2.918260707926357 -0.03776539167423173 0.12030397379909603 -0.3547011646008859
Ni 4.389262401792487 2.203788825236148 2.6228601794865876 0.13664950503665496 2.102407767154024 -0.8179514764577849
Ni 0.5637086635676342 7.533507540094513 5.274642412056454 1.2564400079889717 3.269685517054027 -1.4257625777786154
Ni 0.9349822545246106 5.346942882023134 12.167770897266674 -1.4779839969771773 0.05105979479029271 -1.0476569182108602
Ni 5.2750154313778355 6.2460873052460615 2.2617271187813546 -1.7634782635650983 0.05241013817060006 -1.217151237691678
Ni 2.8520684293472915 5.424064626718664 13.345811609054866 1.491989824337966 1.1614223195604902 -0.7102621060989058
Ni 6.217075727525652 3.8401686352365623 8.566578955369481 0.21914386418714518 -0.38539293725778784 1.014525425764214
Ni 4.750083991364367 7.247625532188084 11.709307770130094 -0.40710333235168594 0.44603163398576734 0.3469798846972282
Ni 8.373920071165996 3.0569865935479656 8.044649388344828 1.5354612652580395 0.39394494059285706 -0.42542089971395125
Ni 5.309818134062686 5.136280220273192 13.56075280242105 0.5206075096201292 -0.08380999263812017 -0.5950499450004203
Ni 1.7816988121274326 4.37523687530856 5.649860682337035 -0.5877202441082265 -0.8836462475524332 1.361730796208687
Ni 6.673250381125559 8.388234687623992 8.529509227758938 1.0813607382212085 -0.631385546206661 0.44623397980456053
Ni 4.593443852833434 5.11950367629408 7.662756869856436 0.24587510953440236 1.0032953613763493 0.07986514905775924
Ni 4.94803601973825 0.31463247210187245 12.72563807826148 -0.14267514240544463 -1.2672275855227788 -1.0933947865676075
Ni 4.999699195749524 6.749635412661361 4.5816797559853795 -1.180471365772141 0.43776476599128483 0.9558009153398119
Ni 7.4958792160502 7.764816821282895 10.638519438721984 0.32402970365895806 0.40874215350668963 0.03538377881593261
Ni 7.123895023285993 6.684487588182163 0.9534662944473445 0.6194895661000235 -0.2762048708661953 -1.0185710565884973
P 2.371134618290717 5.280386909605721 7.831182553846403 -0.1848252934109333 -1.343727417652731 0.26814060580082205
P 2.6279117936463905 6.448571518374724 11.38304735323247 0.5045782240714084 0.8708568090972486 -0.642318391069081
P 6.731721159752037 4.302572711503534 1.4613889859541407 0.011900093871695635 1.2463438000952343 -0.23461419190860236
P 3.6163197404758 4.259927277586646 3.5766239568427336 -0.575708307249015 -0.8372728024942161 -2.060480016571987
P 5.420604872512855 8.83948548618167 10.229301389845826 -0.44303707013381766 0.11202656428165221 1.0764581587132687
P 9.121935716331393 7.9998189937529505 8.728958928708165 0.6585497653262787 -1.105775162509831 0.6158529977887007
P 1.0915104872591292 1.3476069023532822 2.192008875066935 0.0417634570900313 -0.7371684435714465 -0.3197274767391784
P 5.044881161051802 4.041990739069774 11.30871579306087 0.769150910015314 1.4336581784766083 -1.4403065370310615
Ni 6.6435673686266625 1.7502999107501835 11.964008160413977 -0.7972731221728269 -1.1222181385572028 -1.605737227965467
Ni 7.735180436199172 5.480912771297135 7.456796116652502 1.215965959134325 0.23889302178961438 1.3276292265392875
Ni 2.6825777751947815 7.931854873397325 0.07880033164174463 1.493753601106608 -0.42721732949274166 -1.2056440083830269
Ni 1.8646583092025757 9.194478648856972 7.698271106896821 -1.9286518441833753 -0.41567179074698735 -0.1705793250148804
Ni 3.6769167292341502 0.752501202505006 4.085273103477919 -0.2889256608669734 -0.36546380243402865 0.9143279929070061
Ni 6.802063278281467 1.4830408924637033 9.223631973919508 -1.7098098275073648 -0.5574547603554658 0.09816009071220515
Ni 4.07482576483434 2.896010105405978 8.520650951424441 0.34232515953403625 -0.66173150548837 -0.36757390679849594
Ni 1.834219932577883 2.628471322628462 3.760650241401159 0.8956805530091477 0.593627610731597 -0.09914842276740343
Ni 8.776193432826343 2.6442780163719832 1.3954382373856693 1.0788734530229807 -0.8274136503119491 -0.8958052515124701
Ni 2.6874643283048734 2.5819091858370737 10.913119477253243 1.7235806560392124 1.0371159094702203 0.7647484100722443
Ni 1.8416803190055038 2.791387511241631 8.100978103518274 -1.2956822413190459 0.17623343797686425 -0.37899243304808283
Ni 4.738958690104178 1.605792225647169 10.459624967477458 0.38573180865444534 -0.2250031511813996 0.11038337225127443
Ni 5.90605221735814 1.864910097244508 0.7374862422711156 0.41409467606785455 -0.3391267072013966 1.101755756937793
Ni 7.6618261866495905 8.91132900747966 1.4689640758230862 0.3280861331165188 1.4195124831038457 1.5515365735533473
Ni 7.308884630241884 3.3598316550941973 13.228499830125438 0.9805148731467244 1.8453139060856671 0.013136280271641891
Ni 4.325578678149709 2.7894851127025873 12.736911654701919 1.8580789190608193 0.3472945877241696 1.3917713084348353
Ni 7.167929954175024 2.8598925096132586 2.994544091697083 -1.5407299698561465 0.23793400031045475 0.8471702641135862
Ni 2.4078583704806804 0.2106188319796799 11.89079565820652 -0.07450362763552976 0.40923271998986294 0.8440564010749528
Ni 3.639185824876458 5.039649565069434 9.896230572688086 -1.1107343062873194 -1.4141249935396873 0.7364799021448543
Ni 3.179308954511843 6.533741154929049 6.283041396866977 -0.3472099984301633 1.3798323909054042 -0.37144907348318607
Ni 1.497131697328872 3.7683064629725047 0.4669008241862198 0.25138472649872196 -0.9534871796049708 1.1425337101861033
Ni 7.945507380559872 7.937571394497489 6.706850096498956 0.3824989035394445 -1.1175564714154753 -0.29882286537602726
Ni 1.6844153731112574 5.91283184352424 4.029040440779728 1.8603805706108028 0.8555985973865975 -0.9864965446514559
Ni 8.60381187893313 0.6639604038336989 8.181465415040964 1.6573076438435907 0.06691784486847185 -1.188342798100418
P 1.1217250522909936 1.6993268204834646 9.966221120507115 -2.2613199402436215 -1.6299323371544314 -0.5420325122631245
P 3.097571095714223 2.2277086892197073 6.3851890078339615 0.40631708900496477 -0.6057699025210858 -0.6255617404360324
P 5.27856844041399 7.960661290490976 0.4493633207914902 0.6352149472550802 -0.35495416115195644 -0.044787331518019634
P 9.182719214750435 3.401824305198668 4.247748196743555 -0.6301095077077148 0.6294158240747998 0.05109630445518296
P 2.884530435790477 6.554042731495214 1.6481728158458757 1.1244272303933796 -0.8505674627205934 1.078264101573756
P 8.987266415829804 7.036785686260486 13.09588866372957 -1.3085724670181529 0.3329681437991685 -1.2687882451416792
P 6.575799083414762 2.2396080055717627 7.103347253967718 -0.8009870806893045 -0.6435998288846658 -0.15168557343417102
P 2.9079840256223095 8.059669943868538 4.640901235996137 -0.1038316871756857 -1.0258629622642204 -0.5129978155936713
Ni 6.831429224357188 0.06257492370997286 5.197990671705864 -0.9988355258327829 1.9498302780332029 0.7880839994743911
Ni 3.578747369329695 0.7280143491529476 0.8485201060216994 -0.7718644522917352 0.003185853927149352 1.1440141513863715
Ni 8.72696420788708 0.7307289972642982 11.220053763110114 1.1220615583746805 -0.18259974651452424 -0.7364853014614928
Ni 7.698176919518173 5.538273817442504 11.516614381639378 0.18726732719352263 -0.4625293745304744 0.7297901488295045
Ni 2.824968575648959 0.2655571176326794 9.658796314242629 0.5480470938883206 0.49845462767217386 0.11742022449339778
Ni 6.777994206569355 7.865774500614673 3.6064738954879476 1.0356169563271906 -0.7534424981411217 -1.6694363087863249
Ni 0.3136271850307506 2.2762758048635185 6.068932969135778 -0.1223721691820344 0.5890667308337919 0.4341765344193942
Ni 1.403718333772025 6.187700455966893 9.509232352238293 -1.2531621085686482 0.16055485089934285 0.2623826202711223
Ni 8.537703529701375 5.794528765748243 5.051566599839254 -0.8823609530821063 -1.351573653170027 -0.272625123934737
Ni 4.129090750612246 4.457235847631147 5.463076852445299 1.6493205118730563 -0.434173963316233 1.5280958260319037
Ni 3.5894530238533306 4.212246082831115 1.4297783961120079 0.708862911758534 -0.10524399414218004 1.1704083251091844
Ni 3.4534128773456656 7.206602732319204 8.925870233175395 1.1911540422969678 1.1657374019960762 -0.4548854848319714
Ni 0.6379572269402266 6.509373667759833 7.165899796518408 0.15543064229890005 -0.7039081388564199 1.6182474446173356
Ni 4.833127417786821 0.3057182428691691 8.149840836974281 -0.5587778500422634 1.0825514160952 0.8797242867902075
Ni 0.6175409469327389 2.859258376766911 12.229640814459236 -1.0868274177627346 -1.1301911294603504 0.2638147247319586
Ni 0.14133422322636557 4.914939880448717 2.698392861873034 -0.8528292621715765 -0.7793710450814254 -0.07672223255340335
Ni 0.8072277996931218 9.215405032786448 0.39349994722146575 -0.922465791522792 1.3636961474651739 -0.03430288704692802
Ni 0.7887987801202915 6.919853454490564 1.2383803172147896 -0.3981602642257852 -0.41016988709215163 1.3437587851112986
Ni 0.7353712227188851 7.808954332485307 11.15019936734339 -0.19556119177119868 0.12218242176873151 0.8318932833498577
Ni 7.402848197297769 3.6259249880013624 5.529382901917387 0.37291305962322224 -0.5396516707357738 0.4555074346866865
Ni 0.8856933464939268 3.8798112636163324 10.140584339545164 -0.6397858544552142 1.259637946100979 -1.1093970755331346
Ni 4.462709906172414 8.524414716377176 2.56006237673209 0.44273727950521174 -0.9469414080666531 -0.3795909858640301
Ni 6.219173961208419 4.909391218043174 3.7925471235724517 0.18452550278232738 -0.7485165215944141 0.4640159863783299
Ni 5.384822994109379 2.356969209561272 4.94741214492324 -0.02920927457410453 -0.5136382773911476 0.6448334441814508
P 5.39197563959686 7.21650639530187 7.360381812655144 -1.4680194295652975 0.3701267551273367 -0.6023364513595045
P 8.900679305854231 0.26956427769261526 5.7364897569862645 -0.11518182208118227 -0.2917531030134395 0.2665053841902442
P 8.064994794681253 4.846257697899434 9.506680900080047 0.18176362376647406 0.16273746037295844 0.3025054564339371
P 6.405226673230247 5.567779645763744 5.92919713370153 -1.6766729357440802 0.05926547052953664 -1.7519916030817375
P 2.555303582739571 1.9918112703783377 13.19592032259602 -3.0231604326404513 -0.01547161327303787 -0.6182214980208772
P 8.231575898126989 1.1934753187586367 13.38516048471905 1.1788402579266215 2.7176254453515716 1.049881950886637
P 5.930214543900597 0.8241143843720414 3.2818780773119878 0.8682543384773951 -0.3413635669517153 -0.1390578573678315
P 8.978453834362176 7.075523742785907 3.2592348719558553 -0.3980569058787015 0.3659785372869181 -0.4445676478457311
