# total energy = -381169.4367160073 ev
CRYSTAL
PRIMVEC
9.30805065298869 0.00000000000000 0.00000000000000
0.00000000000000 9.30805065298869 0.00000000000000
0.00000000000000 0.00000000000000 13.62327300282386
PRIMCOORD
 96 1
Ni 2.508817426869141 1.087757379972625 8.430558103959317 0.6212957660708267 1.1373994742833315 0.08177110783122046
Ni 2.0269955085646196 7.207037224805361 12.88420980976086 0.630811675981062 -0.1594068533378287 2.7399541907557583
Ni 6.8592605395876065 0.811919823492993 7.38044899523633 -0.2954500922490525 0.30029944992155383 -0.27254439129547253
Ni 0.095699788865932 1.8294228318408008 6.675281339594564 -0.7321558208482036 0.033309155675091025 0.7068260838341633
Ni 5.3568109004328655 7.205678249454297 1.6421215886779323 -1.644735206495219 -0.9840851069964859 0.22445473487709733
Ni 0.3861435379543936 6.53065843809034 2.2064928823142567 1.3138517131392211 0.6930169458652129 -1.5702128098066117
Ni 4.656045021801497 4.501382457190031 7.7908632744777 0.590858275516576 1.3012767046876879 -0.7247327889112551
Ni 1.807269672008393 1.879537374923861 2.21611182154569 -2.3284223903190737 0.745827147687709 1.2415852023643263
Ni 6.620406659562641 1.9932910582481707 11.381236127371428 -0.10240626758306878 -0.47839308103560835 -0.3843279863283833
Ni 4.265414072773488 7.021378852529223 7.2637651376619194 -0.21544430384837088 -0.28895779965648943 -0.41136545006214964
Ni 6.955477856052984 8.837621485074775 1.2365447032033279 0.9124958247942736 0.5484980653828102 -0.2807202422380456
Ni 1.7607294202596369 7.291768407139147 6.650281777965203 0.22886469101933488 -0.23246860632050934 -1.2982250623455576
Ni 8.628190352205374 1.329664300512309 0.7385900720326181 -0.10971488542934009 1.1416183974606855 0.4536127887671349
Ni 6.188299038176141 6.215534393499513 10.245464100474646 0.3416682426763277 -1.2760791223761379 1.2040131576478232
Ni 9.126980846297492 4.397430150884009 10.860704820077395 0.2419480065658543 0.01430716065129149 0.6756373169361848
Ni 8.618714756949327 2.7467125777080823 3.5417243277407517 1.172933148413567 -0.617822977030878 0.7449264902503107
Ni 3.3157695438904717 3.031901932374109 5.871943538524041 -0.8309592015713625 -1.040000687217183 0.4912079734120895
Ni 2.22265072691639 5.985690706213107 3.994697805596289 -1.4313069046356124 0.8960335654731924 -0.40159217272546965
Ni 2.447356370409734 9.83069737688973 6.253109131151389 -0.5127782433836976 -1.068662831038566 -0.2158094004972735
Ni 0.009080003116182298 5.468414424126383 13.469097907978105 0.29197010412025204 -0.7453579213607744 -0.03211050738129954
Ni 3.6062551792055073 3.1670641315028463 9.288265157927771 -0.02135918240206644 -0.4500929485393345 0.07723362497218311
Ni 2.1146959589599756 0.653104006815468 13.206523392441834 0.6083008964730555 0.22191345651248232 0.554274048634639
Ni 2.6466231122972075 5.391883634150728 1.5480265076922972 1.3832586429781337 -0.10869492880525797 -1.0397497475486417
Ni 9.09939178506083 5.318443116891192 4.038455881095505 -0.5888836682887084 -0.12291030107369155 9.873036139337834e-05
P 2.3827864251335096 4.582678968944758 10.316032153396248 -1.4123511894687162 -0.7254231301100603 1.9462795845674676
Ni 0.7562641980367255 8.669843877520512 11.72944656773548 -3.8192498189178226 0.4458321163804515 1.2338071010808043
P 8.342274969612067 3.2887296576244442 13.175093829630864 0.07994356770417846 0.10580552307260488 0.16852861313343878
Ni 7.766962993594644 -0.0033024962640917266 12.60002851694771 -0.9020144656469756 -0.6154624472185013 0.1024224655329849
P 1.5543420198546034 8.338868223184058 3.763156329926088 -0.10256619019970077 -0.02209528923714259 0.032179412946021994
P 1.1915514494227004 0.34309938991700417 9.935724763011148 -1.6145268012326388 0.4469544029103529 -0.8655261409129544
P 8.68931631885219 7.592316044882262 13.612468876710288 0.00028693511279950584 -0.31844295359979996 0.47709107439473314
Ni 8.99500200038837 1.794433870576086 11.693386249875509 0.9853300351471805 0.25727666650312464 -0.0047218309557015455
Ni 8.240277353879494 3.862207947722966 5.601317559435236 -0.8313538659066197 -0.9373946449184823 1.1136733343109853
Ni 8.266712216872786 1.8666271090887563 9.14039840087666 -0.12235931366622797 0.07983686692298508 0.2913394125147886
Ni 5.135800552928373 2.110488720201888 4.236184002260164 -0.10560703390855361 -1.4961061604991848 -2.1630117539893265
Ni 5.561550775925993 8.21489430057572 10.61526735604005 -0.8274257344968072 1.279950432406086 -0.40465358525961276
Ni 1.0768390369123668 4.770366496197141 5.972442558150306 2.0491753901924454 -1.2939603735319327 -0.11674556702387635
Ni 1.2712935167690191 2.621398295849382 9.895890961539388 -0.6663057551226138 0.2983068449715572 0.014334928565433377
Ni 2.259054511834267 8.070340278644085 8.712914088098879 -0.02200478640586533 -0.7914346611141789 0.7277911161216046
Ni 8.531330780265863 6.832695363889417 11.401711976530809 -0.6490675368674563 -0.6910528801603066 1.4781421198215963
Ni 4.152656350836602 6.578920679153799 11.677909754558977 -0.5508747931451029 1.0622620697185448 1.792771356102261
Ni 8.824915996347366 0.34903327201497053 3.061149688183097 -0.4483538543610407 1.082815468389864 0.5003505591433061
Ni 5.805673012448918 8.79109984942672 3.336666116925663 -0.08469753744939608 1.3986374394270493 0.7583561333926553
Ni 8.84941478486791 4.469651313547729 8.490608990790736 1.6270866401755204 -1.3569225761867663 0.24215266637749264
Ni 1.5840347004703097 6.5242079591979625 10.76272548968081 -0.5491668093150607 -0.2687640983174339 -0.6672912589643346
Ni 2.8497340789791283 7.519890105110848 1.935063618480267 0.345325894033573 2.308423064379012 0.24805617634612118
Ni 6.0164445045686845 7.805172540280372 5.670632748779763 2.525693622802844 -1.4084549397381032 0.09909442960101643
Ni 7.358898066261552 6.167570010047245 1.3920124141700474 0.3878686524917901 0.5502376737817363 -0.68998407257616
Ni 6.526097493418962 3.8650562111299895 9.962358818281928 0.17611696700365798 -0.26836249200364104 0.6351995206361125
Ni 5.711959561527624 3.3858684710744478 2.015167768985191 0.9932048099095668 0.07789696958779488 1.7178003019120094
Ni 6.217954486590449 2.0526298792278346 0.1795066817999869 0.38002910184271327 -0.15071523910110174 -0.031822800937551646
Ni 3.5979151660921302 3.7596425409190575 3.3882848409452437 -0.12140903393781671 -0.43591614281832025 0.38559708284879396
Ni 1.23609977839661 2.8076337672472036 0.13524690238691994 -0.11949844717866517 1.1426077579571483 -0.7152137936772263
Ni 6.854736827117627 3.5014744564183578 7.80358737930581 1.0661485492571445 -1.9805266786757956 -0.5606311012009184
Ni 3.660437340291409 6.0375365466612205 9.595388933242985 2.155351152120275 1.4734382865880238 -1.0700111175363443
Ni 4.669429998204439 0.05868725745518133 6.030218557476246 -0.7642092497393227 2.6848377093975886 0.08420954206938401
P 7.962115577227528 6.828972143749516 5.288295272613382 -0.7964737661999831 -0.013109026578132262 -0.4524910164578659
Ni 4.137977555435044 7.476170192618066 4.424497961301086 -1.1605026359596982 0.6136817011689948 0.31467834435104514
P 6.312347425187275 0.5333578006759887 9.54007770564966 1.0376324440953228 1.350537498596029 -0.36062010118848215
Ni 5.324465425467481 4.987262685447043 0.177781900070178 -0.36471818251725574 0.40364982658544674 0.30699331700196164
P 6.930913911179991 5.498116412792439 8.486549750033209 0.351914088774052 0.7677563436606326 -1.0179226243712212
P 4.07866665860643 7.899612019128949 13.545142817725504 -0.27195278045806065 0.10213784441303055 0.36705094441549047
P 6.786257500694508 1.402388097894915 2.6567288625619323 -0.0795455609348114 0.46076714042372907 -0.24933581438949318
Ni 6.973516857630802 4.680748587429736 12.14076093544567 1.1036583732771446 0.2807094436047681 0.7512763437277384
Ni 8.035453705933218 7.568124422023259 3.3475109263881584 -1.2939302916249458 -0.34330809227259584 -0.1730488696012955
Ni -0.17121786296353347 8.84722739303572 8.085398842499913 0.5954068141192068 0.961897000935221 -0.6119518629620816
Ni 3.5537856993839596 0.9263232087317149 1.622300095458137 2.600411937552341 -1.623107343812798 -1.8637841969757127
Ni 6.234699669169651 7.237446625297998 12.646143390795482 0.5948915650456852 -0.315257871003599 1.195508719721238
Ni 4.766615351906191 4.370567117574628 11.459270167478566 -0.6234441798723973 -0.9814808366044192 -0.907514055308966
Ni 5.78877890106412 3.1960214761409227 5.950168393663351 -0.37423383531717486 0.0373918103848969 -0.8497835333667172
Ni 4.537702469654761 9.016875918710285 8.520444084576795 0.1305415923667042 0.31955598415832065 -0.5000150301807583
Ni 0.7419446933786683 8.842852609371336 1.4088776705987616 1.1168314203239926 -0.8036628277492547 -1.30506342542363
Ni 0.9998428444192249 4.2288334348989665 2.2903584159655153 -0.28358573671129866 -1.6601284011218376 0.07959595455677261
Ni 3.741398762233545 5.256386345209401 5.527915205182133 1.1764087656669935 0.49736859369684666 0.8595640097922487
Ni 8.980853763856748 8.863860879010725 5.493503343039102 0.41542522195382003 -0.6659720259322788 0.15679692651880736
Ni 8.991883803521203 6.203070914081196 6.933891556486876 -0.3951549017405582 0.8476096656438499 0.265521165900104
Ni 6.6437791739908665 5.338297188287211 3.892864011549871 -0.7936704924232331 -0.01643809095136524 -0.7131389134260687
Ni 7.393095843246537 1.345944080574024 4.919023506722947 -0.5271833630654339 -0.26992726538759965 0.6021814138388789
Ni 8.013821796920396 4.049178755098418 1.9755247825456004 -0.7537790555449342 0.6583268506821953 -2.362233425331248
Ni 8.737438939160404 6.842887679022394 9.11263434829342 0.8288313565950822 -0.8016311420312066 1.0485010113787105
Ni 2.2423000212047146 5.098019176558733 8.13189441560699 -1.1260663086586995 0.110964441565725 -1.330554884826515
Ni 1.1097336868483876 1.3975851439144436 4.612049591018363 -0.1971442199876024 -0.16862837193609667 -0.7090171779482112
Ni 5.079961558880216 0.21456731505239476 12.429465009923764 -0.18613784157476973 0.3206718429303187 1.7803403294277595
Ni 3.310370874687616 0.5160708895664308 3.8162326946304397 -0.29210765813938083 -0.7542840202058106 1.229606432735895
Ni 6.798581359357578 7.7052226956247445 8.168555102714521 -0.8182078154429651 0.24437024285410175 -0.3713840245732056
Ni 2.7503427173444854 4.828914132897076 12.82639285501338 -0.9260805054572437 0.21511725952625532 -0.4135853405316038
Ni 2.7704015658481986 8.86738863009328 11.1755514847678 3.9464888292738545 -0.6200081576076548 -1.1579258763714573
Ni 3.6952587566498285 3.2874172225251295 1.1026558453624367 -1.167304746483196 -0.31565742043486283 -0.803445569532126
P 4.751834167950786 2.1983753316042387 7.597236280297142 0.10024731225853703 -0.7914596008148433 -0.4706679444772088
Ni 8.116014881710315 8.895331397243233 10.318294009631238 -0.12049115010923765 0.5576002847943945 -0.8619736476750057
P 1.6261070880511852 3.4454958416149544 4.243254397305836 -0.64208467779172 0.24912395548900318 0.08586199007114245
Ni 6.5169849121265555 5.419854325451731 6.2909407709929175 -0.4844873668588042 1.1716326844345888 0.7169713997982813
P 4.289177525316403 5.76483859556456 3.1952842785532223 1.0028706151341051 0.25632073034775854 -0.9968012690115737
P 3.6793512986021035 2.9353402180457904 12.675678765360276 0.32720373051156554 -2.0274539393549538 -0.4707219376435957
P 1.587655532056363 3.051392989806488 7.708442350240724 -0.3354618567552997 -0.061453479319790935 -0.48144729448089985
Ni 4.37235426324178 1.2853952130488921 10.45624303903469 0.10182545537893431 0.41112530902688554 0.35021227559159684
