# total energy = -340866.9753158586 ev
CRYSTAL
PRIMVEC
9.26777252682216 0.00000000000000 0.00000000000000

0.00000000000000 9.26777252682216 0.00000000000000

0.00000000000000 0.00000000000000 13.56432189380489

PRIMCOORD
 96 1
Ni 2.5844017871140124 4.444425203500818 0.3437704141863765 -0.4857968296988472 0.9630647959910767 -1.2690016467040661
Ni 0.5481655772391282 5.662720244812277 12.38994982025551 -1.0981927221768828 -1.2037840723561528 -0.5292405027047788
Ni 0.4327994176883375 8.244128541390793 4.509471991960355 0.08797260865624204 -0.27336894407929696 -1.2478576656365994
Ni 3.4699745259027632 4.143194792122427 9.572125279666992 0.19398047754764014 -1.4342248496133558 0.010049928036834306
Ni 1.2548842073614213 1.453752070861945 8.122804130863935 -0.1839161513331026 0.5793099085573443 -0.4782465281554151
Ni 0.5035922251324189 0.45491510333803925 10.31653501399612 0.2820101646940627 1.9921210683816142 0.8381917147640596
Ni 2.1623474249267702 2.0250268389687474 13.327705679196468 -0.7047350056330896 1.3715590951530185 0.2595875740244884
Ni 0.7925687876376442 6.297062205160718 5.971407505988997 -0.43638434070399035 -1.076806543191623 -1.1529353651354015
Ni 1.4545120282115134 8.40471123646366 6.868972742464843 0.8263785241792155 -1.0649822968631852 1.2719028795112612
Ni 1.5157442014871196 6.367348992223257 0.9637955194907488 -0.4055143905980113 -0.8480205279290234 -0.4359791348457717
Ni 2.4048386938470423 0.1857919632016658 12.011071230073576 0.10535275180590242 -0.3246166865106797 -1.4645605244824198
Ni 6.517727869712282 1.7310994323642594 13.341962293718924 -1.1782830998715708 0.5343855372408282 -1.4088758293256058
Ni 7.6436046830981565 4.350070011111088 10.227077839402087 0.25897462303083785 0.5358220125770384 0.9775205664050908
Ni 6.7922485605851035 -0.2497423741678631 8.28284929512857 0.7928521102869959 -0.32549343268867814 -1.0964124903480086
Ni 8.90923023885165 4.72726835412867 0.7602557718448897 0.07537523160720568 2.847076632867574 0.44258018510205716
Ni 5.345901439995174 5.8054254066251705 4.661189135806426 0.6407284208741416 -0.5776422910469342 -0.2587403955328447
Ni 2.343347022939876 3.9568569571172287 11.582655468804091 -0.2219499661773726 0.15817375226167596 0.5547173068196447
Ni 1.5228989219001314 8.830861954120529 0.4860789153338851 -0.2911149552088083 0.7005785602625547 0.5480406661304175
Ni 7.501066341191265 0.309569553124023 3.852430476291204 1.1123227338203618 0.8370138924058745 1.1992249922305604
Ni 6.057647836728943 3.575664204128133 7.358806959238303 0.18317464518138776 1.5103194758850893 0.09981279582427971
Ni 8.65793458600345 3.403552399995957 12.32607540502427 0.27299921944470407 1.9713745798628826 0.03195804096383528
Ni 4.548242791669932 1.3538084116211189 5.292527411069559 0.8312913880998006 0.027705436335068414 -0.5052657370567363
Ni 5.0445598153461155 5.966971950043831 12.981178102674766 0.6673161986649991 -0.3878236581864676 -0.7244751643744943
Ni 8.442644229534201 7.047084502549588 9.545769588073052 -0.3744359240256519 0.0030932942133430597 2.799799187937849
P 8.780667697958778 1.4832884619970073 12.001684830029147 -0.7220688689258468 -3.7682345042122196 -0.3397301451133504
P 0.5712970107609362 2.9204790233018905 6.578166721657119 -0.2596055717466174 -0.6464555531659061 -1.0696822734420157
P 2.219835418089868 4.72246764794481 2.7904391994636364 0.043551145118073384 0.9174138309211813 -0.010897877859426395
P 3.567137853376875 6.104857870127754 10.64825083641928 -0.6703261891359166 -1.1235029188068975 0.2685175295242666
P 7.383291487553246 5.454139755673365 8.418587872311333 -0.680600317368415 0.28697007980249933 -0.7314819347096305
P 9.089432808424965 8.994428871956336 8.5171330246735 -0.40055910347526497 -0.818985317038938 -1.699897967710292
P 4.249616624379697 7.133423071678624 3.28522426033636 -0.06027308585844459 -1.1002781439510019 -1.0885053196857897
P 4.85079849452379 1.9782431231075002 2.9864433212444443 0.4628996133856996 0.22488436621534819 -0.3884666910871052
Ni 4.264769432508291 5.20908131375516 7.797138310365146 0.31778012320482046 -0.19927566450830841 -2.0797442641182378
Ni 2.490704606575738 1.2839108710059195 2.763866641991892 -1.749173416906652 0.5484931802868038 0.3377000020571991
Ni 3.2764170960766643 8.04545530111394 4.936694064124664 -1.6541053348562091 0.14659633183672172 1.9868773034841716
Ni 5.5181893318059085 4.310700513294411 11.369072236039605 -0.5438937338415795 -1.794734907586535 1.2969971034757277
Ni 4.943643039986939 5.690745989020758 1.7569861746668813 0.40114351522382524 0.48723227659379315 1.1665341868657586
Ni 3.8668298145110174 1.0145337939015193 0.966812179457634 1.1547469644228436 0.2449723952144749 -0.4810150920394877
Ni 7.8145302123432 2.3255343640877926 5.830678233284981 -0.40499914152448957 0.5562818230932871 -0.6755265023899334
Ni 8.524812301013165 7.082413251531972 7.415017853343223 -0.5603169123946092 0.9784338222479795 -2.4180515607421325
Ni 8.161710240052823 2.7639000059730927 0.982402426450857 0.7315454409577143 -2.430607800140588 2.1078104262268345
Ni 2.8316196200376984 5.7223583612083 4.6243080349209595 0.1279128964946055 -0.6879834972063635 -0.5982090594546923
Ni 8.211376233178898 3.2359632688709703 8.272676061194161 1.3122026075715723 -0.1121152673407166 -1.5185657750542816
Ni 3.917329907167106 7.607617922264317 0.5644750033826746 -1.1730359925400184 0.7912821946967147 0.5563075341249
Ni 6.578227888955986 8.115167486278025 0.46098178725301 -0.9859681829518117 -0.06354610018276154 -1.6665682432099105
Ni 6.08503410463108 3.5578052064132706 3.803653262553222 -2.3770298669141323 -0.7474099187937967 0.8324149601812826
Ni 6.547051102078562 0.1357830624910299 11.632423407428277 0.5895817227969975 -0.1020897647839145 0.7704441749054409
Ni 8.36807573155092 0.483749924090634 0.44273632342257463 1.4906057995062458 -0.2964443378415217 -0.11000336320403635
Ni 1.9380209902156988 0.7884826267178295 5.317620832041412 -0.6899671032952955 1.4787589274699888 -1.255848911372192
Ni 4.369143087030748 7.5940128321525275 7.966963755007827 -0.18085345324737886 0.938415629983829 0.2787320081634232
Ni 7.111421379631358 7.102654066793652 11.629872916420945 -0.5054883945905035 -1.075407091740935 0.24030841407990228
Ni 7.697543119372415 4.680475370494868 2.8948703141759395 1.10290555427152 1.1775883877973914 -0.6277070689138093
Ni 6.396208835961752 0.6649904841901882 1.816208168075153 -0.7830027282967418 0.8566216393344731 1.1997782936308692
Ni 2.0486596589858195 7.722288072096173 2.5659218486379176 1.7232322715608581 0.8311854586495556 2.2437829598011225
Ni 6.148360794504278 3.722150617143757 0.981444138768596 -0.8727049180495808 0.908861570475796 0.24032718313297963
Ni 8.701567259195755 7.578053727811588 1.6356942013439668 0.3910341947039653 0.3546451145519699 0.23207445620588416
P 5.66567666425755 3.0043801682487743 9.60683586821991 -0.30865579230604906 -0.47774464881833206 -0.24455819049519173
P 2.77482670981628 6.431852689211031 6.703813621303963 0.9289951080008776 0.17698651409280486 -0.4793608442655164
P 0.7145730673632614 5.382407196092134 10.289067189695494 -0.1662390457683137 -0.8455635817480985 -1.68230339455698
P 0.6988706803221141 9.425510044612844 2.5009760788992366 -1.3126268395931844 -0.1916698271365925 0.25037325451507203
P 7.3698439495749035 5.156255010187587 12.550931029548272 -0.45253421099097546 -0.16657406051022927 -0.6070024893766063
P 4.716962591046716 9.208013958275334 12.924519575155404 0.8347554353890011 -0.0718672184539472 -0.7846582616222938
P 8.088476301317568 6.009779791478677 4.724059851269883 -0.37151900748917305 1.0094891488918871 -0.803031621923159
P 7.084971156757349 6.167823116871278 1.0565307052377402 -0.35530177429936227 -0.9445525961195023 1.3946074923320497
Ni 9.063455241951297 8.219541140800484 12.138128684703402 0.00026456651529631857 0.8136546488546439 0.8855583769734813
Ni 1.1770812567561977 3.2275110603001584 1.8341542828520387 -0.6536127330359777 -1.4416460817780912 -0.9194218624901456
Ni 6.069770083231817 6.6892928752636704 6.727862564308788 1.2855667501515988 -0.29744809651568777 0.588887010722818
Ni 5.557707113983476 5.912644267322232 9.806489638833158 0.6004101808710691 0.7069947482015436 -1.2460116135667962
Ni 4.058329798829748 8.208771989090742 10.828696221633553 -0.8866140719315054 -0.9018203473582985 1.0958283357097645
Ni 1.332696425739201 7.579277073788941 10.45147285563007 0.7413236033904008 -0.5355643880402776 1.3664971072490788
Ni 1.353372826311 4.506426601898547 7.653207022243132 0.22983811067619772 -0.00664938699571758 0.39086578744690104
Ni 5.593758749225205 8.327334603396 4.902539541925089 0.7390237516126305 -0.8103965469286624 1.4198325854474259
Ni 3.100116258749306 2.687060903713663 6.788414483078805 -1.018566428602807 1.3541010475775712 0.39061253378551436
Ni 6.418090046965795 7.706792356383018 2.916993414043686 0.29358527112617183 -1.3078623283250057 -1.4570287348817488
Ni 0.7705559742633108 3.619055915233988 4.117341413801005 -2.3506973996671903 -0.13073982442043935 1.5209309328523484
Ni 2.9080231369870098 2.9681339097833743 4.416529208108116 1.2536426477494924 0.9295172990529347 -0.6062758956232268
Ni 5.042622850881971 1.6609701974351672 7.731595696073877 0.11548161270978821 -1.6516604728601425 -0.16393739421833056
Ni 5.129869661721468 0.7366331463776288 9.826239262149386 -0.31611739079041684 0.7424515463472567 -0.8753091884416474
Ni 2.2008364843506527 6.418507096730802 8.727745936333882 0.46981305267608114 -0.3319304465632735 0.6489801193599726
Ni 0.44727938552938595 6.0392698437509615 3.284966616259311 0.6901002864390503 -0.4080281581588005 -0.11313393841321806
Ni 3.804142600944164 3.4787974453758035 1.9090971988465693 0.6098283888611756 -0.9760424391976673 0.909969201717678
Ni 7.924019677316412 4.837869951808568 6.456956304732695 0.7916611753026882 -0.724388775308275 -0.5270820616008793
Ni 0.6552176180301873 3.157252076555286 9.998722703961047 -0.6176617688626653 0.4233416485874193 0.05145111669144042
Ni 4.293314171979891 9.295297840205052 3.2346435380590366 0.24332611786030353 -1.2268674365381773 -1.1088450596844064
Ni 7.415432122776464 1.6771980671802234 9.77812654770365 0.7975528581967749 -0.23861457131724714 1.0312468522839529
Ni 8.834031532334583 0.2267434697936018 6.2008617992551445 -1.6109313705718966 0.4557388339712022 1.16840826396002
Ni 2.6824548207534726 8.960128845727636 8.95151630469161 0.18779466045190238 1.0851582575904277 0.7995809443703972
Ni 4.418345691529036 1.900579189090612 11.709455279356867 -0.9893036750829478 0.10317399898702877 0.32124108517022737
P 2.423040599146466 1.9812551491881074 10.211683142409788 0.619966505736442 -0.8223460059810547 0.6712078204099214
P 3.2759351719037673 0.5204262072026189 6.954984159222662 -0.15329945488851016 -0.9785436083529664 1.0267494786342317
P 4.783004738278739 3.6722251263861225 5.61542587468321 -0.8031460360138362 0.9994135098234402 0.23693409829103065
P 4.382043826428303 3.4159712152206145 13.263017553534835 -0.06781541698207676 0.3956850632124153 -0.16177175402557947
P 5.9476208409475 8.008717850703087 9.998505838083242 1.4484268521453505 -0.01877650927655476 -0.8621873063477087
P 6.49694952364237 0.4318958098641553 6.127574107439065 1.189960793319815 0.8322239272163989 0.9510875690245425
P 7.910257035071177 2.502483945494051 3.5859727475418537 1.3242983623938418 -0.36525888551207414 -0.7848950602234482
P 1.848364558511716 7.19134665015184 12.551108044004087 1.5134513366458517 2.568225068407151 0.8454651084970214
