# total energy = -381173.2280684613 ev
CRYSTAL
PRIMVEC
9.17550501391131 0.00000000000000 0.00000000000000

0.00000000000000 9.17550501391131 0.00000000000000

0.00000000000000 0.00000000000000 13.42927906212657

PRIMCOORD
 96 1
Ni 1.428103158593198 1.4145509373867053 5.327703886707534 -0.05911326122238851 -1.4323407452167654 -0.012751129018081267
Ni 0.16662166944968498 4.97395879894981 8.62251036390463 0.31299889976609324 -0.23697626438287575 -1.5308129678527507
Ni 8.07928008279584 2.505114785537622 8.274759633705607 0.2579086436601687 0.5958513578557931 0.09863780167957205
Ni 5.476134199512674 8.828093063609566 1.2918992064905979 -1.0669337641626013 2.29281749663127 0.22583078928901754
Ni 3.90487480851345 8.154757788716362 7.053863239240874 -1.5907446112113766 -0.6890291648620585 1.1928319442200233
Ni 2.4748264428141065 5.229799410933993 0.5267382280305554 0.5723908128400078 2.1661184179391086 -1.187693337441877
Ni 0.03939778430361452 1.9950209239719132 1.1836447608315301 -0.22855975818440635 -0.08501044070412456 -0.609221351404796
Ni 6.340980619309006 0.4045085703744605 10.078754797000409 1.2896774298858629 -2.0873961242365406 -0.6846264078086726
Ni 8.129002145570373 4.598946725198581 4.7335789132573955 -0.32017253469639695 0.012381918604120612 -0.22395696930507233
Ni 4.538837990517651 1.0870496296525507 8.333767307760416 -0.440798410611286 0.04012000794933736 -0.3958010199649893
Ni 3.933823527475186 8.040054797990319 9.697631836774214 0.3788317391005024 -1.5915578511412911 -0.47044760093628657
Ni 2.150022733613946 0.4630473761126482 9.606030933085211 -1.0197331952173987 0.7692336995371075 -1.218674873425056
Ni 5.211824596212586 7.356479659274196 3.016041782977095 -1.133801729629744 -0.9205374641518276 0.48105545835911995
Ni 2.375217158171124 0.4105689915707289 0.977211491792914 -0.6975783399836502 -0.8274141645325815 0.613166452095473
Ni 1.2563927539497954 8.476295018059032 3.75474610969252 0.028012940273158208 0.4861876373793627 -1.557644486223298
Ni 6.734417107537309 0.5063695239978585 7.267577271669708 0.06812729179554072 0.8706588341538296 0.030711827261560014
Ni 0.8816320890415301 3.50262065977097 6.460947597378424 -1.0916649483606942 1.0984506038239599 2.016145970541302
Ni 4.080136133676089 1.3105924632705488 13.299311250875105 1.1298676846826605 0.8449714566900546 -0.7534797791369604
Ni 7.729941072643641 7.895852557989477 11.850492554151984 0.15071729598363076 0.5168724680577292 1.491023603769955
Ni 3.631398875500913 0.2512152398039572 3.341351980065271 0.6246124891488856 0.20477525417029893 -0.30958858853296356
Ni 6.1300908073861695 1.3578371396363116 4.828228837330229 0.46100548168678024 -0.5884519800679285 -1.2832121338764932
Ni 7.5052880028943045 8.017024279893976 0.9310642058511843 1.5680944779120285 -0.40411622469890407 -1.265068115977615
Ni 6.257969823604781 6.764430185104294 10.727080397321823 -3.4811744357990757 4.595838416158104 1.4102408279939325
Ni 7.167244039665052 4.42011612850627 7.021391126275554 -0.07875803203650951 -0.05224738734049066 -0.002972452364762623
P 5.952920977138255 2.5348525979480776 7.22712797446815 1.1854662478835711 -1.4734223457484237 1.536827806588263
Ni 7.870968587839168 2.3207054816729697 5.947102789279732 1.1100987295858495 -0.016062452779501368 -0.8892473957892943
P 5.979465713732963 6.437736321829294 0.13646178379921667 0.3009579094411591 0.4428187834754245 0.06044380710835397
Ni 3.366190072689493 3.1275535329884345 9.538118431216654 -0.6388949672098287 -0.7664286259881445 -0.18980166357960215
P 8.196460459930654 3.1146894746732667 2.809808539952224 -1.1981158183267817 0.37918989377086953 0.8866788637311698
P 0.8967496514381568 5.69441946864095 5.891115691542578 -1.12477587198205 -2.3796662760957146 1.2743104605114892
P 5.122418473371647 1.6535177952756002 2.326716355141063 -0.46182206405080456 -0.627614509200003 -0.14470142880685402
Ni 0.12485568724939086 4.525845475129436 1.8233738303145124 0.1960854397057849 -0.1694560100437146 -0.16672267027295157
Ni 8.040917295480778 6.6751066418103155 6.8476428419233075 0.5902756635402285 0.33832375168412704 0.5032641332456752
Ni 6.095930401460798 2.6386275619598814 9.641430032214965 -0.16263384491555863 0.5788648506001256 0.7107956100048727
Ni 1.2940949048891852 7.506260606447378 8.711197127136503 -1.4488148316123886 0.9610207689778546 0.5482910915783267
Ni 8.759038211341412 1.2293800665889867 3.5205523496178546 -0.31464183468615486 -0.6371928969170575 0.5865208244834866
Ni 8.425095698944457 5.8027730097563675 13.359353004367948 1.2699465271158388 1.385134776954924 -1.1513057999517784
Ni 1.3474137657090428 2.7035901389009567 8.599962477382736 -0.8830914034902275 -0.7684268873650959 0.295167270901311
Ni 0.6867783075876085 3.8173680152525686 10.8130273546957 0.7067857175145312 -0.27354532175616114 -1.1436750228793982
Ni 4.862852606269092 4.6884262520812605 10.401957380540086 -0.19007574317659523 0.87605018037273 1.7739043439944286
Ni 8.075903496875739 3.1211857323673744 12.416416612315626 -1.0071898113347493 1.7045380375854644 -0.7325792815388673
Ni 2.9561000424911263 4.480059704093282 5.551986266046075 -1.867134087284552 1.547183181680658 -0.44456070586719565
Ni 4.858962192056802 4.154732991095714 8.315960404784493 0.6868974632310363 -0.8158858521780078 -3.9516246078385233
Ni 0.9702179217160088 3.407645005262909 4.301116248686793 -0.21450148031912736 0.6323430250239239 -2.184835277622321
Ni 8.01924475215665 0.9950927163611016 12.290342417973328 -2.5091159209498204 -3.3316125935761267 1.1864869758386016
Ni 0.7718251478996334 8.0230617623272 13.158437884167235 -0.7134343331793004 0.28777303531976894 -0.15398311121909608
Ni 1.1875122362807764 5.819215515106425 3.8304330171320036 -0.8196635740528851 1.8549799684205215 1.1192189467195626
Ni 6.065357618075535 3.2896480081637227 3.4576368278908403 0.6713374040092502 0.930277831368043 -0.9403858663363224
Ni 8.343947530799417 7.038245611809884 4.477107026514237 0.8633527874107195 -0.1019943768566308 -0.4785889990964983
Ni 8.056983605116912 9.082768386431106 5.356456249857612 0.8534255009946786 0.29952323387716157 0.8812155266237532
Ni 2.3705468260153317 4.601323181049957 2.6144390951050696 2.6701803644957307 -1.5695458656465744 0.8454820777778859
Ni 3.3338188902815675 7.4676409049862205 4.879797011754556 0.4420217414954259 -0.4849252257271712 -1.101781725079722
Ni 6.038546791829515 7.666951229324363 7.9528058364260525 -0.24856294077921065 -0.1371030476343058 1.1050876495245032
Ni 2.561333106006262 3.012859717767609 0.986607209135804 0.6503769997074993 -1.7744509605265184 -0.7424916555565729
Ni 2.4657977456799234 5.5845519691646155 9.805804620436845 -0.11398111690486176 0.40476465691618035 0.9437807509504843
Ni 1.2317198204194915 7.6760900325211585 5.909460279124258 -0.30241366805107917 2.217236319660846 1.7903509195862264
P 6.459730007836039 6.093352084494635 4.533657500271756 -0.5483574260398879 0.1846856825092755 -0.2950160900354274
Ni 4.062629269720783 0.918807565981426 10.655085713181927 1.98517060520571 0.43698957838815716 1.6503152716861575
P 5.9194487341042095 1.3631314061469046 11.955107076891203 -0.31550675378961146 1.449069627935672 0.7603384539300065
Ni 2.900560709408594 4.247818491528936 11.788100953772897 -0.11744336442184936 0.3286378918549308 0.37261429743588087
P 2.6235797334029085 2.2536141875213955 11.261901327898618 -2.1043376371868856 -1.0209339003937192 1.4270273034236522
P 1.3974019181348873 6.112969314650004 12.135207563505638 -0.053410297300340276 -0.2618971959942715 -0.6612321972544483
P 7.987249765462649 8.023878382291572 9.150039520484947 0.5505279513286454 0.08157287577748533 -0.09202132480431893
Ni 8.842617888369132 1.4236438630574122 10.294831522022792 0.45842692232632665 0.9435100137876008 -1.7553983147704415
Ni 6.682043323754871 5.763345863836056 9.08010014951381 1.8489782423111316 -3.7172461860898105 -3.8160950753389247
Ni 6.696127724263988 5.0265894968783424 11.796736021733242 0.8082188225510532 -1.9012670244125192 1.2507218745582718
Ni 4.4884002383361405 5.301138964001346 4.026796169194231 -0.06901483660681662 -0.6037999232789085 -0.5107025918015915
Ni 7.3480381944739435 6.022352025120334 2.3541657965502325 -0.057856505997151975 0.5770997882799029 1.2440028106668832
Ni 0.6977393661206324 6.7941221199886614 1.7085937653446406 0.42550754589048656 0.4328166779573901 0.7721855830765798
Ni 6.74054634502271 2.0766095163673994 0.6582021141377092 -1.309770601091312 -0.7633738983222208 0.7561257014002397
Ni 3.738183405224111 7.3410648105085174 0.6243812019053923 0.33324299472710994 1.0611217854665145 0.5350707362333108
Ni 0.5294294037108969 8.585180738477076 10.941411023701283 0.5076339801785967 -0.7682607941008769 -1.1239029824587936
Ni 4.2429646492687905 6.129632032125286 12.202944813224537 0.893015861692791 -0.3153753704180698 -0.29856986882495673
Ni 9.212941278954135 0.463893357693717 7.6905992589218535 0.5039668157396546 -0.6692051881575959 0.05526072024551773
Ni 2.8432321528086164 8.06296603451883 11.964440400798614 -0.33920846828192547 0.6626185360790138 -0.6931755829302643
Ni 8.655134790256561 6.231737054187473 10.475361422281415 1.0699208718153832 0.06485993389817861 0.5562358003467002
Ni 4.9021971726424445 3.717180673780873 12.999274065358469 -0.10005525085238896 -0.6733328371727242 -0.36843342658531386
Ni 6.859699455779321 4.463653900764095 0.794529935560748 0.41045476532242214 -2.188424023414844 -0.15424716351376017
Ni 7.120880211800185 8.62031374795552 3.1681413803187803 0.2515647037200119 0.7489680073095358 0.4479409351933383
Ni 5.181793167635164 5.823188508865675 6.277530165627802 -0.38614729892530913 0.7243743771305718 1.0045073794065797
Ni 4.822278522196573 5.084138265603545 1.5589651315580733 -1.164634912960517 0.9412970652966821 0.5050093980715561
Ni 5.3655968881554506 8.500793616990201 12.292530775967741 -0.4146785735957826 -1.2003313379208618 -0.05215534184731663
Ni 4.970453755956662 3.4835356089182246 5.784715615488001 1.1181524531282614 0.5022804291761672 -1.1519151514010033
Ni 1.7577148325274157 1.8231637112450276 2.868091349094839 1.0046233361591534 -0.5834025905694791 -0.12218576420284118
Ni 0.8290968163672614 3.904094890569948 13.04853276511951 0.4494825686488452 0.10553041503434728 1.0869410605224634
Ni 4.182764159535684 0.885206865874333 5.738961958720109 -1.195457297658012 -0.08473841798966052 -0.20339328622110778
Ni 3.745909180617385 2.814338486878186 3.987770910402454 -0.8079897372593826 -0.8945600662514593 -1.3985178831300495
Ni 3.094017061417865 2.665126421028501 6.926902691094551 -0.13023563109051117 -0.40744297507929184 1.175440488216453
P 2.271579826737586 0.5922999654623446 7.126301100282782 0.24879896804941665 -0.5354471457361231 1.2156749102564677
Ni 0.9251294890763978 1.3633516182721288 12.50008070399135 3.412155228316885 0.9006345545803135 -0.2507632908646391
P 0.3611845873882067 8.96693680856329 1.6863817023137146 -0.9836423630321125 0.873736958858521 0.9226475685162949
Ni 2.43219704557283 5.994963142045601 7.509612418503391 0.7446284993939176 -0.8275080097979685 -1.4466414781101538
P 2.8968354542902213 6.920129333142869 2.4583233791296126 -0.22894799476176053 -0.5748732129422293 2.190436425859182
P 7.940317056274288 3.924859058877527 9.961423024029504 -0.9120829056265711 0.1469136059668244 0.3165200255454742
P 4.382826875301674 6.124539626729481 8.640653090371519 -0.1972558058648022 1.9309478393064037 -0.06688699163053642
Ni 5.735406450448264 8.134470746680101 5.592018995310752 0.8000062048332739 -0.198135123145962 -1.4689969629872184
