# total energy = -381164.3683398393 ev
CRYSTAL
PRIMVEC
9.26379254333250 0.00000000000000 0.00000000000000

0.00000000000000 9.26379254333250 0.00000000000000

0.00000000000000 0.00000000000000 13.55849678567789

PRIMCOORD
 96 1
Ni 5.7391233277674845 0.5863276676379381 10.416016654596405 -2.8527713692595063 -1.4582363820366049 -0.13598538909009486
Ni 2.152775710380866 6.525276560363473 11.080966130148772 0.2916857401106138 -0.025476547004549672 -0.808392114904124
Ni 7.401798089908354 7.176011672529024 2.1292808795534146 -1.0393782231418358 1.6225902949670634 -0.2604941449991578
Ni 2.2050883472717313 6.41070197331438 5.393745979638618 0.3764904925618355 1.4797665427988966 -0.47271608525548914
Ni 5.356148877314981 8.544394270910548 2.634579079576564 -1.2599899301237591 -2.515692031505442 0.20281710200266362
Ni 6.719621665611122 6.829508773597566 8.654687133013482 -0.5351334711504461 0.7358106439919715 -1.6200047936280744
Ni 9.139092701554434 2.857203764536759 11.742525983983702 -0.7769814618033264 -1.1888901859634555 -0.8460428353773622
Ni 5.800347733152951 0.49708121597459254 6.669600891012942 1.0848692655950993 2.353749556229953 2.6695769265837765
Ni 7.284796389194411 8.452284380950237 4.0181283592256145 0.7538374195866953 0.5790466275936286 1.1295223855280998
Ni 8.8709429605516 2.5559637563169653 8.928283984073309 -0.17135914060369845 0.3463463648782874 0.21512085907068113
Ni 7.2956998731010065 4.226883293884233 13.267084082905697 -1.1413746568809955 -0.4672419495147953 -0.17848186769140875
Ni 2.983904656117487 6.351839835045465 13.481620550534668 2.700201593448169 2.4602009404166725 -0.5153488323243511
Ni 8.0430192870594 2.240318550582509 6.692948427537831 -2.091227582167489 1.7765471809339146 0.8272483283786786
Ni 8.143420271409179 7.042538948547512 13.393408864506299 1.2347437539624606 -1.238739505385415 -0.4506521634769142
Ni 6.777344357388523 8.619051175586215 12.198945635037969 -1.8333387360016622 0.5903481686493769 -0.2355045649333557
Ni 4.739513785761308 8.83650944340562 8.547343862478824 -0.9875941485910088 -0.8205336353626643 -0.32514993330633035
Ni 1.4268463935680396 4.871652523606413 3.5894361658441034 0.5009092598602534 -0.7276563903159532 -0.555087802785186
Ni 8.759675547465681 5.508677222703348 2.0965778388677174 -0.15016245192142527 -4.115888017937705 -0.45160064343311257
Ni 2.0120309091974184 7.719138569691158 8.80701630686065 1.7688256439199406 1.5270696987602346 0.7214047529792865
Ni 4.110178034533936 2.367964349009858 4.359246215510595 -1.2621458001244974 -0.4144227488312347 1.1684851399445426
Ni 3.4699202718147397 8.530859869901596 0.8974734492998078 0.5748899251127777 -0.6662628176998202 -1.2592826196440894
Ni 8.75123623239439 6.718806451861096 6.083006426147723 0.15899264861854556 -1.8240351992125488 0.43694329853125397
Ni 5.8203204700285855 3.6797822296907223 3.8132725548782 1.8055209424584453 0.45441265896061095 0.47511646716686556
Ni 7.599163191548144 1.5396701238130996 10.639949387073687 2.6915904547403904 -0.35328731497249477 1.6299318229337991
P 4.258491354282964 6.361566817290092 1.6910293785735884 0.7903391140571551 -0.3000407969435284 0.6401391240295751
Ni 3.9340918645283436 4.9281801861366175 3.4390857380992714 -0.9558335683499602 0.6706552903405611 -0.28040476788015584
P 9.149857228571822 5.04709022812903 7.46397944507084 -1.502436987813219 0.2853952791162117 2.5894855204478247
Ni 6.948520717308732 5.014704009150729 7.187264401417166 0.9242527082198857 -0.2738911351313541 -1.2047479789313187
P 3.5182216865037734 8.20425559750486 6.4625088071285255 -0.5857772614492427 0.11543558996320119 -0.047398543888621594
P 7.59526313485768 1.8261992293619718 12.908542885472436 -0.7238521860785146 1.3316260064035066 -0.29026134895926137
P 3.5897381654833174 6.178634704542805 9.212035804596523 -0.7172459936159067 -0.6980596504954429 1.9555604956487609
Ni 5.83072370913403 6.655154932810778 13.518241249116798 -0.39393517040084414 1.5898861198658232 1.2862951436771912
Ni 6.650309969273693 5.636591671116501 11.575132956967023 0.5723509607410078 -0.9037476462879983 -0.5168891802282775
Ni 7.583776032016406 7.811146557932717 10.427948419483148 1.2598312930587077 -0.060768280327308244 -0.8677809983854022
Ni 1.1126185481035151 0.45297629933966926 1.4072497666725308 0.5011859105604078 0.12730251660411623 0.5340227545847707
Ni 7.115722910197564 2.964246888190726 1.6819990335335289 0.41353468979932656 -1.0241079272463265 0.24218969026301515
Ni 2.227636418494038 4.500795113892932 12.288472779617516 -0.6089794105973189 -2.3767735279289517 -0.6502435594534285
Ni 3.3017083255309885 4.38408059075002 5.801911461346182 -0.4511638130060101 -0.8839853760594066 0.08963251285716822
Ni 5.712795629158694 4.588764088554816 9.098429283875586 -0.25389797983887885 -0.30255045073925957 0.8334588280647647
Ni 4.996787834235387 8.890674838819272 4.975128160724756 -1.4779971096032996 -0.09983465020115065 -2.1020920356858186
Ni 5.43507639038567 6.7070136438635615 4.317635111847342 -0.6274137060431065 0.09213753866720906 -0.171086346558286
Ni 7.360527893813293 5.532818666255251 4.131409720825803 1.1098675874116497 -0.14893115061748544 0.4223065224546856
Ni 8.083474269404434 1.2777085962763715 2.932214546090277 0.8610380232346139 -0.8592613909501653 -0.357342715988791
Ni 1.627805846742035 1.9241453086690594 10.74399660019631 1.937207704173186 1.9339511449091016 -0.410426483187648
Ni 1.5165847526191847 1.8360003219475103 13.106944605505724 0.2724649442077888 -0.4705972391402734 0.3334242574999806
Ni 7.599431841533948 0.020413693404057368 8.655459733317484 -1.638222602187682 2.3200076838928174 -0.1545929768889531
Ni 3.7910311151914144 1.608731697749952 11.83346307779909 0.1821606020945766 -0.5748739842731777 0.15867151783370093
Ni 4.032464078295672 4.70548787549034 10.882239250994735 0.013220869565648198 0.7021942414891068 -1.9573762087012614
Ni 4.7238765038289925 6.468035585801996 7.51279036835364 -0.18138490027081663 0.07573595738073409 -1.8953326612059553
Ni 4.780005823276798 4.842230718264569 12.972837311730158 -0.21474907755355918 -2.788145148638689 0.987540412534938
Ni 6.784468213908636 1.740249761489924 4.969839461521463 -0.3867003432153017 -0.21213863651390563 -1.4644111433887488
Ni 2.134979964769505 8.914631006518896 11.306362541859055 2.0069599331666597 0.057671386569539386 0.09508787954478463
Ni 5.550531037733086 1.3701427189781707 2.978774367767892 1.589595842318914 1.1782566175090097 -0.9591628898335094
Ni 5.546779201724444 2.0440651040563904 0.018609106602863693 0.08074600900081577 -0.12975149236524106 -0.21877156844939097
Ni 8.653975673740733 3.3750682992407044 4.0830731037248365 -0.5065520599683275 -0.49569454842853344 -0.8273375456583751
Ni 0.8825272462964923 8.377182814229101 6.559478482694104 2.1380036619807634 0.6843284169522795 -0.12314144324789113
P 0.04068657716038299 7.012922603560776 11.221337600489878 0.7139783786082284 0.9139585253827293 -0.190767112816665
Ni 1.3629818072876023 2.751244504618621 2.0684575963881313 -0.7968938844565372 -1.3097963121229248 1.3311840337700815
P 6.516466693587625 2.377172558868105 9.131308336620949 -0.819745335133414 1.4248068987335656 -2.005459437361733
Ni 5.8278611972163255 3.084046254274076 11.302823773080533 0.6835902532346743 0.7049322092455601 0.6740188074961554
P 1.100084636696867 5.707348519101702 0.09975900352163396 -3.024069574718282 -0.34657570728027404 0.37200057511128193
P 5.33693577143369 5.064663642717656 5.72824763523873 0.4233478192350063 -0.6001643834088504 -0.5465309143541103
P 2.4543399513421464 3.392178524198634 7.641283803805163 -0.44967257317246434 -0.3322639186432923 -0.058290251100460905
Ni 3.4914771172273555 1.403964825811631 6.907268122419637 -0.8229741264833568 -0.011394614990186827 0.5422425713914016
Ni 0.18330636996888944 0.8601542607545886 5.030839683125673 -1.584920805440748 -1.208983357168905 -2.8048999994995243
Ni 9.418220036804776 3.7618131132870776 0.2568506931516227 0.678390968421922 -0.17734698275601715 2.0904395390485546
Ni 8.151637255457734 5.387284484290402 9.703409597941674 0.9339637648600626 -0.5803686888391618 -0.7467843693946559
Ni 3.1234914832241927 7.518447766502967 3.1701532066205607 -0.3951523306373969 0.16726260193682163 0.6057729878448793
Ni 1.0608432111842574 4.210199203386544 9.819320950264958 1.2022586368505617 0.24533209254673877 -0.3697194923865891
Ni 6.809758367744666 7.761242507121473 6.323927101520431 -0.8411631386875578 -1.1096390163406116 0.03035315837056063
Ni 1.2435622567014235 8.14462456444899 13.285415275730143 -0.06886442707188141 -0.4634439159249438 -0.9967051097533416
Ni 2.561031050876785 4.39603088322199 1.268920962602797 -0.27566056832695107 1.7826427523086914 0.6069263847230322
Ni 1.6920780398974853 2.4603336251633596 4.59203235458901 0.815420739616131 1.560715668949454 -0.7658167034357585
Ni 0.7953271664215639 1.6797571957209574 6.963034301196977 4.199042636380013 0.6507657505054857 1.8807766177686511
Ni 3.362432486115303 0.8962117207457905 2.384871696909543 -0.7647193566065217 1.2714341674049587 1.325970350779626
Ni -0.1023936261410358 5.019437807176447 11.863223937950602 -0.5021325907443933 1.9068308916535417 0.1403074135042164
Ni 0.955643582260462 7.021287808291157 1.7345923633405966 1.8420586323731631 1.622704966168057 0.054397858024590184
Ni 4.358734854158307 2.4729694382887613 9.644049994009391 -0.9980644519947132 0.4163055676762444 -1.4771149641086627
Ni 5.40934157450417 7.093823304458233 10.47792472787678 -3.0242485234983074 1.05718182698216 0.3290089020411043
Ni 2.615474360068855 0.3670916780159191 4.908067565992513 -0.3000852770282187 -1.3233722510351467 -0.4463219115326764
Ni 0.6977182891656233 4.301086272721816 5.747880390925433 0.6263685526080438 -0.19636260462657149 0.3395961906386474
Ni 8.352365113816383 0.11480896100222551 0.20645102943553353 1.2333337609888113 0.27807689107792755 2.3425560015069786
Ni 6.20725982371985 8.999135322743172 0.684398808145314 -1.248947042046036 0.739097028052727 1.047458429046809
Ni 4.5635387812670825 3.3153261006734662 1.7085064497190297 0.3045471694543142 -0.5906356179828086 0.4640584095804911
Ni 5.224704923915921 3.0268145435052136 6.894576726538553 0.8060457261591344 0.3910843312156103 0.22535873474860543
Ni 9.030039334903243 7.64289755647851 8.482399117979602 0.3197436746890945 -2.2424200180153253 -0.16615959868062996
Ni 9.488624860670647 6.838948578271162 3.917714405566176 -0.5704624854690433 -0.07320470631844812 0.8596642828155389
Ni 9.088178897348271 0.03168217073964249 11.652172509102991 0.33189367978806705 -0.3226572487914637 0.9253066034056967
P 0.6365216751579981 8.703712976284926 3.136012425321181 -0.27991522983824696 1.856658641674525 1.5017209355828007
Ni 6.3900900347483836 5.077614424791931 1.827210835515413 -1.5068132625040436 1.0268816333367217 0.18722747509452273
P 4.401515048449438 8.088708312231304 12.438374839799835 0.0965994310933046 0.5841564380163681 -0.3607106040197594
Ni 1.9159746435835727 5.767470533166112 7.643304236974262 0.3460483740218943 -1.1280715120141862 -0.05606418998341957
P 8.192490580885169 9.358746488223343 6.6281389344107735 0.00464804029497264 -0.40171455723594685 -0.367218066120974
P 2.990732071273954 0.9188755893757715 9.076301788837952 -0.9139495265216646 -1.2042579266687776 0.4230655121078972
P 3.301402620374729 2.9882215834755788 13.421040905115133 1.4478910342465385 -0.9787932624699273 0.2906719541341187
Ni 0.7111387455254244 0.31560815056400005 9.699667025725645 -1.0884351285694869 -0.6703189900470649 -4.261958044957312
