# total energy = -340893.2536636851 ev
CRYSTAL
PRIMVEC
9.05742253812757 0.00000000000000 0.00000000000000

0.00000000000000 9.05742253812757 0.00000000000000

0.00000000000000 0.00000000000000 13.25645342285409

PRIMCOORD
 96 1
Ni 6.315686363798207 1.938134438536158 11.452859858984239 0.7543976629655395 0.7964087172900025 0.9028439035268063
Ni 4.800433924303163 0.536830714270323 6.032839362524766 0.38678287562677904 -1.1373549941986414 0.7120017144978318
Ni 2.882470365671577 1.2070011795972901 4.76786886745139 0.21390806970950255 1.292191454556968 -0.7065556037815961
Ni 3.729149163426172 4.470327103916081 5.2686048473222025 -0.2792739967098223 -0.05818946385653849 -0.738251135112664
Ni 5.011988141604953 4.344954261689281 2.709685539633159 1.0265265639901482 0.7229808392171548 -0.4698158808895586
Ni 7.319040455935059 6.4142039483164055 2.830239833090659 0.11500133063925999 -0.9604605255990105 -0.915009592355063
Ni 5.2948061591263995 4.591424842723503 11.796308262711882 -0.310137261947582 -0.409208808730463 -0.671556976219224
Ni 5.684945575834766 8.001807078730948 12.4802614078551 -0.7414328752747553 -0.6803262377714219 -0.19041127213914302
Ni 1.7526837128755783 6.278034658471173 0.6677883632098129 0.30882239979090037 0.6759769596637907 -1.4206483964805017
Ni 2.544719080695605 1.657136962936948 0.25883396274492737 0.9162660904699833 -0.855577514340675 0.1357899852498371
Ni 0.9719701231789076 8.845080285626036 4.278255402408963 -1.5575699242316208 -0.22023041238310456 1.7191105360830004
Ni 8.70543294554131 2.457595733680752 1.170574037792078 -0.18777717695040563 -0.8775061960929662 0.501838199432426
Ni 7.050587510496528 0.4430284239049394 4.574761902552672 -0.62448933330746 0.2562248281998426 0.20467035316131846
Ni 0.6306782917481999 7.4167700446958715 2.53401049007541 0.5375657347410225 -0.9463166299984607 -0.6875209557476482
Ni 7.494890313747033 3.7273467363489337 3.758774180934872 1.2298072358927916 0.8566465790351376 -0.2734517336010904
Ni 7.626512777497926 3.9305771823744324 12.71818812224631 0.13460342114090368 -0.35918542562448463 -1.5207560978373809
Ni 7.664110138289968 8.93462196444804 6.962673450497539 1.379929321494585 0.31231961431088145 0.29824925226074445
Ni 6.946055797439201 0.6346164590506282 0.29685702239440787 -0.566238934305999 0.9350536554901315 -0.39343689060818693
Ni 1.9139420630421697 6.6151972109847295 9.274864040611147 -0.2271947595160797 -0.3538627278599906 0.24889101354259066
Ni -0.2902505384238669 4.923243515962835 1.4212508858346893 0.6551625940216007 0.3251059674422724 0.4712829523533884
Ni 6.218744770794778 2.2949334830268646 7.170734219941587 0.38425908076366083 -0.5376004446336999 0.02229249284961322
Ni 3.3763172699898893 4.041838560348281 0.2180828074388428 -0.055700121775781486 1.5343186670131639 1.2411684265418819
Ni 5.867389237225782 5.645219720755533 4.661657908262807 0.62632895761936 -0.17854151728475054 1.3138884799144275
Ni 5.311526161058971 2.879472358824512 9.505049375992733 -0.279131557594687 0.30734992901043195 -0.6807910932229824
P 0.16992177478658393 5.763699864460834 12.472798091716182 -0.4227556941769622 -1.2483402616999726 0.3158929334844366
P 4.0143402256422736 6.163159368920348 12.648459555140183 0.7256267614804341 -0.24991148438730504 1.145626490178814
P 2.360400532847361 8.472937967422558 1.2616337406248597 -0.5308032192062084 0.16106855731096775 0.7173681210160677
P 6.254738967804554 7.790270976274154 5.874133394018303 -0.8467421754372321 -1.2132015090153105 -0.15916336986845492
P 4.527796449670239 0.9837176001597022 12.562504615627661 0.4528419720393814 0.48738088635651544 1.2465340617291694
P 3.9545793519959482 6.462144885601947 8.352957914551475 0.21117627260063632 -1.2963371012942253 -0.1288302661025523
P 4.923814133580254 1.0208530324043117 3.816188276411787 -0.4139231834869968 -0.957790434966015 -1.1527551308037953
P 0.07482246151938868 5.5655596898795965 3.6504827317983413 0.687810461963609 -0.4016294537213083 -0.21072247289266932
Ni 1.5789804641957932 1.2224621998025458 2.5208871906170645 -0.32397673893383555 -1.271762754388971 -1.1371760454186157
Ni 1.8817610409043413 6.282608656833008 4.718912593103746 0.5033001286899332 0.6420733649378104 0.26897132923223355
Ni 5.899117388238677 5.763690807038335 9.259380376849647 0.5634125206007974 -0.4659833945173459 1.1268623221974334
Ni 8.59085655093294 2.255751073297552 10.097613128124218 0.4581780395403141 1.0310679035039274 0.3362110762164984
Ni 2.424925610727995 5.355173880080136 7.21880196114211 -0.698823525244661 -0.9928001182719806 -0.5013224361382721
Ni 0.5519711017191251 9.054922650075575 8.943532656702246 0.019236736742424935 0.5887592268957021 0.07578635100269529
Ni 1.5989792530728901 1.1628553023386985 11.291647701672389 -0.609489260354202 0.49985844999823587 0.24515108688418422
Ni 4.008389499060637 6.707410829443843 1.6193421503344343 0.7045843389878382 0.2890315903172183 -1.335397814741113
Ni 5.666133309304997 7.91168572486903 8.168414742625263 -1.2646983913430219 0.8493801272807115 -1.3310192260574434
Ni 5.377572885919385 2.820146241458124 4.847023494151899 -0.4851000607421388 -0.10691058321132556 -0.3327817388199753
Ni 0.8603084071306165 7.379679899563756 6.824051410639662 -1.1630472567584227 0.010373629924840198 0.5518340717345787
Ni 5.141002067676226 4.606396762113829 7.344684736255586 -0.4437898891394421 -0.2875328942845048 -0.47873735174890464
Ni 8.510680246974578 6.962540306386809 9.132954156386248 -1.482442289858847 0.8721302764930335 0.23510604394335638
Ni 4.792726057756782 0.2891926314760204 10.584469513758046 -1.1702512307060298 0.3412620083768445 -1.7733839527145847
Ni 8.1096085213103 7.1858420006693935 4.971037723003898 0.9270169012285842 -0.08737585561250757 0.23956330838376158
Ni 7.062262528097333 5.991349121542788 7.168877448329356 1.104726923750975 0.5900054405979774 -1.3738162666183114
Ni 2.3498033485238996 5.029749747124875 2.599271936405186 -0.4718370250846454 -0.18339473161199382 0.24590724832391841
Ni 2.401430656766405 5.327032468376721 11.581977945414245 -0.8434681326716506 0.6875209557476482 -0.7786228540614913
Ni 1.2341281599808522 3.103870001229438 3.814080614196343 -0.7801351769409597 1.1887171507207013 1.1902446431088212
Ni 3.6472519491930604 2.611037528230978 2.577677229683821 -0.6746183887533672 -1.1538735606789547 0.44450054205322154
Ni 1.0495469468801464 3.352405674593361 7.990128438161143 0.5532666904160471 0.2220731220187982 0.04842441404997467
Ni 3.637442760626984 2.757305844162246 7.356297257641151 -0.19227815014455274 0.9610745050339253 -1.2211367047019872
Ni 4.036657714679034 6.7507324812550555 6.1614538562638455 1.0578983934332105 1.3838942196796036 -0.6053220163503897
Ni 0.7574767722762936 7.549044642866671 11.53764820247893 0.017242332020215467 -0.010917675353768294 -1.03196830383101
P 0.2704790908514869 5.4431214525423695 7.907235813195425 0.031665963644713205 0.35876247915445314 -0.020474465804267965
P 8.554119645278274 1.7741407467749635 7.927094212023793 -0.3801761689435388 -1.0941247227550963 0.06381169513932236
P 1.711463383084062 3.448151687826962 10.530595058993615 1.4613255624848898 -1.622008968542297 -1.358853474660892
P 3.9648504691094573 6.041047198793074 3.6676365842686014 -0.301861395092035 0.26798865360399005 1.0916999153636875
P 6.930884614753904 4.007827938865719 10.47152436094169 0.4442218344705382 0.36090857896317846 -0.22841089131136788
P 6.409765811292051 7.931122953551208 10.162622778108531 0.9811437649799748 -1.863284888741791 1.3649480175944042
P 2.4718883463836776 8.36062592843886 5.800613389854226 0.11159641872276911 0.12671604797302694 -1.0986375230237855
P 6.8105476994363725 3.8406641492299842 1.5007759611153955 0.4537038058190444 0.24671714581972348 0.566459020736605
Ni 5.1904103074065535 2.6693945013900073 0.654120712659297 -0.03995057225100861 -0.6955181150205119 -0.978968611705527
Ni 1.3700438419961227 1.1411265457643525 6.726841717930273 -0.19217402046652063 0.07149389427492847 0.3646317934510365
Ni 6.903458739427885 0.7141596491763317 9.174525914170713 -0.25601631173346234 1.0248412058679255 -0.38301955192960485
Ni 2.782684742003562 1.7350760835381343 9.236062948369032 -0.5377153729450094 -0.6444608913333805 0.9488429959647401
Ni 6.546596292979688 1.9486319912121342 2.4853195982069782 -0.10502365060125783 -1.1844270079857795 0.7650844532554243
Ni 4.1198773125969534 6.934462296640885 10.556365237486876 0.17482061678973765 0.25361001628481483 -0.19508219525225112
Ni 8.082427196391745 7.4038813324802435 0.19857402511892475 0.04840770187942631 -0.6839597207589511 0.13135843184104473
Ni 7.651656182354277 3.8948365931946207 8.324403484382119 0.04335574127781565 0.0606950038872116 0.1691770453507151
Ni 2.976984569445357 8.183480859209576 12.410996580780905 0.5237334568436206 0.40500505506176054 0.3594659329793809
Ni 0.17560349592000918 4.932273766194025 10.24391133354973 -0.5265722118439963 -0.513741121517599 0.2494923945720155
Ni 8.295521175518312 2.3410538783901695 5.819158462420283 0.43466967200572887 0.1270752310846586 -0.4525025864220916
Ni 3.713235272095982 2.7860903328630675 11.510565603465611 -0.4366856739944931 -0.4925441757250098 -0.7639925057428262
Ni 1.0925244166364076 3.6574415495040813 12.624398512272426 -1.1268705497275495 -0.7040876018570777 0.25527223447858616
Ni 2.9224498285807736 8.489712313890122 7.882287142922797 0.9770958201628461 0.2881437883956264 0.8505152693264192
Ni 5.533451127121757 7.745554481398145 3.6876933406496897 -0.7503306919850175 1.2649953537581504 -0.253746284752363
Ni 3.0749496511911363 8.151118688621773 3.321643044818826 -0.21248419277878244 0.033541840511187394 1.020859595512358
Ni 3.505956158213571 4.505297812183505 9.464418684405883 -0.2162061217150599 -0.2748990075705781 -0.13837677214040683
Ni 7.25937015651372 6.163720929115266 11.30632344334701 0.31323184171250573 0.2801281171800014 0.47900551780862666
Ni 0.5593519953133037 0.11299949735134684 0.14220968490960667 0.35115021402483393 0.07910821628707666 0.6561982343749667
Ni 4.5833818515446705 0.14269969146678554 1.7083322321262664 0.5221828245270491 0.8580776550547093 -0.9315682680446924
Ni 6.146258218537801 5.649576340977401 0.5047248687392335 -0.5082821552855569 0.6833614250533199 0.16602307310276568
Ni 8.002115031095903 9.116295744926667 11.290190362392352 -0.16817328667654907 -1.7290298520792415 -0.7145095685213501
Ni 0.14834699439471577 4.761967050951247 5.7150026323966525 -0.12438868539143093 -0.34661530226895787 0.44991245709741223
Ni 7.979652623299163 8.949657285795857 2.197721073090726 0.5258798137626621 0.4137799730409132 1.2035598721604885
P 8.70294215435417 1.4952445931954486 3.739208336853212 0.05623953921901928 0.4010512126203351 -0.8228483995387699
P 1.6863833801852024 3.255056497577492 1.5602315996235148 0.46415868260378124 0.0014243911513523856 -0.204823333799415
P 4.6682408429348525 1.1382009982972774 8.282433200007711 0.6871556019884295 -1.2469174132105172 0.23411025568899035
P 8.619677269323757 1.7351123132281288 12.291688588659223 -0.26162568750043974 1.4450149982503242 1.2534428730338607
P 6.276105427478952 7.627337002945306 1.4156434355657534 -0.5567749606796217 1.3461619952361528 0.19142840054974772
P 2.1276791191661433 3.188855796534602 5.878865897273866 -1.2890896757031929 -0.37651183271807415 0.0855989662177429
P 6.840509653062022 4.046014032120175 5.851372091279107 0.25559953591101786 0.8475908965907726 1.3875485286027394
P 2.358081832687698 8.497873051561438 10.188286984758555 0.12051017627263116 0.9078107606137785 0.25171691302716004
