# total energy = -340895.14256407344 ev
CRYSTAL
PRIMVEC
9.03711490406218 0.00000000000000 0.00000000000000
0.00000000000000 9.03711490406218 0.00000000000000
0.00000000000000 0.00000000000000 13.22673114767377
PRIMCOORD
 96 1
Ni 6.261301725314565 2.158361237628227 11.274372755052923 0.4768470767047272 -0.49675178604845416 0.4763724510611538
Ni 4.6590935692323505 0.3018278858749581 5.867602530442406 -0.13683256758173853 0.07290902945490024 0.23644224625627666
Ni 2.8697990626819028 1.5066497042490057 4.6281522956001835 -0.34520068130961834 -0.1457568666545619 0.6397580865410724
Ni 3.3698587727007037 4.021651640113072 4.809887770398808 1.0613231028440433 1.1620041602058893 -0.6333745516122317
Ni 5.185089798710327 4.456770643221202 2.8548968603863702 -0.1079649926177689 -0.440132494892513 -0.7848482661459127
Ni 7.244675371638631 5.995438845185837 2.6364047285855507 0.32763361896013254 -0.4349483795884122 -0.2390837976441818
Ni 5.107063349577744 4.740020932213852 11.447352169327509 -0.16139405897118658 -0.6071313016449866 0.7496814884367927
Ni 5.6153377969444165 8.034654761368156 12.277659683825872 -0.7289887359741316 -0.4519832235835119 -0.12501911988657824
Ni 1.7992714812831758 6.40557926300297 0.5340726989694962 0.0473041844026024 0.6339597346917404 0.47961409792690307
Ni 2.6141752336149313 1.478137607073502 0.40159401835631775 0.12726472138764533 0.2768509890906264 -0.2694032745633296
Ni 0.6888829939504675 -0.15585227431673543 4.837835951611157 0.3256944929558907 0.9892625374323671 -0.5741751584339402
Ni 8.606089604031053 2.256260302193118 1.2759231264398827 -0.09552779529568063 0.6152174210872308 0.03503256612410096
Ni 7.012981822546536 0.6945302869853239 4.815244068337293 -0.1465495377591863 0.477764446312674 -1.3920510444587832
Ni 0.7347174327633738 7.31079090347254 2.66649560971559 1.0720587440939926 -1.1762694118756516 0.10576284276012753
Ni 7.540442064621161 3.650696152043319 3.866636202626274 0.8499583683816846 0.15660512222297546 0.23430283131577068
Ni 7.56946927733993 4.134642686384173 12.587695077356866 0.5820651027049782 -1.1143647039510551 -1.192517498303398
Ni 8.087160398322094 -0.16267619969778863 6.816118217582525 0.8063642858408178 -0.02103522340374442 0.9312453374876348
Ni 6.691106904923743 0.7027820765038508 0.23200171470657574 0.672670520998377 0.33168901997642875 0.5550654341876827
Ni 1.992674774992511 6.434073285948885 9.228342854315827 -0.16922435364888275 0.6112075285968892 -0.2104473648544118
Ni -0.08263808881203098 4.783760567817477 1.2148539195070196 0.9535545425077966 0.5045800238436213 1.0639967930214642
Ni 6.498887473252439 1.8970892118149194 6.970328448141165 -0.7915333914755723 -0.4186337015887887 0.09854189953165608
Ni 3.198641595810976 4.369273297784363 0.5097348451174046 0.7796461531196831 -1.1104573984768487 0.30665238872277517
Ni 6.083080784459382 5.5362268940365365 4.843483244646013 0.1867713613937106 0.6320563470214405 0.05405512997319077
Ni 5.177326917102162 3.102116172694794 9.169418154723612 1.1365792923748812 -1.5225646118010294 -0.09457031647841777
P 0.1972133413065437 5.842603159787384 12.454713029449653 -0.7656994611316039 -1.8659513798303606 0.4301157340864592
P 3.9681428834169847 6.134501967638023 12.838606051058695 0.35588515760665806 0.4859675509487566 -0.8789017908889122
P 2.3055577633951376 8.434122346613412 1.5041039490114971 0.8576919895805164 -0.4522369914655308 -0.5608630147060663
P 6.487075964216501 7.886220150874448 5.898024169973912 -0.972190412441429 -1.3051014777504168 -0.836246675222547
P 4.596086804887625 1.1056096610295685 12.473812971567064 -0.09986627477003447 -0.17321907663057265 -0.2908737857322797
P 4.007761594674483 6.27970129103543 8.242912360664615 -0.5312840154973689 -0.09531285107139714 -0.49298666257906715
P 4.829009401591723 0.9646397073558186 3.620182333940914 -0.2580739655934394 0.05870522715069244 0.6033072999132061
P 0.12836227482444879 5.3258699729734 3.8013096109138926 0.1247131586103852 0.7835480592772506 -1.1942717619903434
Ni 1.3568414523065893 0.9615038285222529 2.596843854862734 0.4289847058058096 0.7835534585938893 0.5384831043489694
Ni 1.7667649793686635 6.439676297121251 4.849144093353061 1.023508860209747 -0.2655797870521813 -0.19285022059793885
Ni 5.848215208074543 5.491140728328585 9.272533441947678 0.42360801487492855 1.6020878041383377 -0.6483712821313802
Ni 8.727864725882055 2.2768829981533396 10.094759968397124 -0.6611404088715904 0.304130907852502 1.2707057738793663
Ni 2.483606999069233 5.100692183647877 7.054450431202395 -0.5889294339249793 0.2897710395864042 -0.13547039712688924
Ni 0.7467331805936589 -0.10235436215840063 9.185303595108746 -0.06387263028424484 0.9293648326354703 -0.6199431086976743
Ni 1.3544556540009371 1.0151933275142235 11.568244365063123 0.12490419157526876 0.32430892546227374 -0.7589346316039446
Ni 4.119478407759611 6.886877922709142 1.8245482913623783 0.017818773348975765 -0.5254270424959596 -0.7589215189778221
Ni 5.515206565025373 8.013697692160552 7.83494627266695 0.08392106429468772 -0.21008483930867042 1.474988661794279
Ni 5.368769156901171 2.643708524762172 4.959904779692969 0.022670187904006118 0.6864246373596758 -0.33675589297637487
Ni 0.8712971560701318 7.2966568559345095 6.960316228660742 -0.28164172561105044 0.16852167115490332 0.35644694364739904
Ni 5.191162739851987 4.794767773636736 7.002482502578707 -0.035581753759351624 -0.16172573127899245 0.0701090981122599
Ni 8.407661674496177 7.140278621536756 9.312584127292336 -1.8890936222747787 0.4928982166303189 -0.45827419879854625
Ni 4.49503378725958 0.30751946077230585 10.166528215534766 0.19648113248230678 -0.3068665616161102 1.0612793940903011
Ni 8.178245478332206 7.2260318038183255 4.589186064030821 -0.639539285662047 -0.6230775405615979 0.7018913655367074
Ni 7.238349391282735 6.202623738956231 7.28771734198015 0.5227914046453255 -0.283566196327273 -1.0962404835465185
Ni 2.3209931554635244 5.2132132999496825 2.6602527708158 -0.6199479937936807 -0.10304441538769994 0.00736029701981313
Ni 2.239243415035757 5.204628040895252 11.574209764538734 0.6925148094178137 0.8738323467858047 -0.5269866736735956
Ni 1.3060257558191546 3.2872053207935226 3.703087921350851 -1.6917156890098157 -0.1677318282637563 0.5301355037152226
Ni 3.669294534289654 2.562510048336847 2.4924715049708026 -0.4161800978419735 0.2892933286190372 -0.2318420284801039
Ni 1.028450774917223 3.3242755656790743 8.263161823783838 0.13558918209294069 0.8968720022140877 -0.7684299726888896
Ni 3.767961753612046 3.0415313551148966 7.054490194507488 -0.5325495124733538 -2.102111318959528 0.4347637743814319
Ni 4.286258361285417 6.86153785282638 5.929067563003254 -0.4540254508245212 0.08792144370333245 -0.1659593097443658
Ni 0.6242676231723849 7.498419480828423 11.288711041385302 0.9240958709270473 0.4644530739157485 0.43215050512830094
P 0.19284570372653703 5.614416011235414 8.09678311815489 0.7732839583470811 -1.465283518691373 -0.33738349925804473
P 8.683076784962312 1.5321705164276498 8.05875584281264 -0.9627174399539872 0.09949655013544155 -0.22360961326798262
P 1.636937788236085 3.2343291621330246 10.451842581546398 1.066207170409222 0.5374335800385325 -0.17217495163677446
P 3.9650160416982136 5.951211205383327 3.8785010306394976 0.1938588643681113 0.9340612096698752 0.5090095203698847
P 6.9569878592820595 4.010282949702048 10.381832956947694 0.3588290707263304 0.19409206342483992 0.053701089067881715
P 6.259575636388886 7.797285904185341 10.133739755638675 -0.1363260602589652 -0.27300539009229113 -0.5632086321201075
P 2.509010328755554 8.306834584737986 5.925165336835144 0.41760397477269373 0.6000499693181731 -1.0431202066827712
P 6.924101798546194 3.9402904956214533 1.458551468180168 -0.7320768879811521 0.383393647439572 0.7029488602669441
Ni 5.2671377639263 2.9378937226557285 0.31197746950025385 -0.3046716108473205 0.2772289412553355 0.12841503294200465
Ni 1.4320663958529893 0.9785116785648195 6.918638862653138 0.9040770046029591 0.6016435390575381 0.25761913744420795
Ni 6.851615100782417 0.675571323858703 9.161190765415029 -0.35495776069638224 0.5588899501400956 -1.100625757098408
Ni 2.6737659685674733 1.730517111929378 9.233435268502323 0.19624587654304912 -0.22610692576853963 0.042174319375204786
Ni 6.317548727793278 2.0435266199391227 2.4492596368711554 0.5567042553426864 -0.4056755987662239 0.09937390851464821
Ni 4.050968040505254 6.775576816904545 10.527869117175035 0.2408051512106627 0.6820509337720124 0.18665951840619463
Ni 8.025003122768018 7.427216053365413 0.13971650585180304 -0.9520175370379798 -0.7329315226719636 -0.03232673715716368
Ni 7.523840884744331 3.5248181800757785 8.273836463778673 0.5268640320528023 1.285217080121664 0.2017611499343235
Ni 2.9512957638954345 8.122965447136467 12.476974154322052 0.8057027409974188 0.7599358191749493 0.5131947620958258
Ni 0.15949603900173168 5.101668192045644 10.324112001046057 -0.4611373792789542 -1.928651072852427 -0.24943017387551233
Ni 8.787121087587215 2.3123175252611525 5.893646591567631 -0.7538037381352823 -0.10897620749110264 -0.6716677907654756
Ni 3.5554178507687277 2.9248712402373767 11.526487472445332 -0.021380522558305113 -0.9322390688594718 0.21152157175519704
Ni 1.1150444088746478 3.407923100213611 12.590075453393641 -1.2113276890313656 -0.6383367807135135 0.4147780752881243
Ni 3.0856415124250813 8.589325756087929 8.039497751186333 0.43343631381926 -0.6431190325935053 0.41363727681546186
Ni 5.690210293013845 7.847568410899922 3.6930223828931408 -0.35114764292167266 -0.15519847168343592 0.4638480933418979
Ni 3.20258177786122 8.371983145288924 3.586613067326611 -0.2481027133133404 -0.4842140585927596 0.5220696959879525
Ni 3.4767136180265847 4.4280597295202275 9.473500800739707 -1.5807188515442583 0.5943973990180861 -0.11695665459341793
Ni 7.187072801940799 6.1995330456966355 11.26223048761552 0.07835231195765861 0.016907831498932168 0.48481338273965535
Ni 0.461022988954045 9.085372987138133 0.46773304668869203 0.7387018494968375 0.24766819687908317 -0.78053164104843
Ni 4.547837649001725 0.376991377040758 1.3856852115950375 0.10228696839638514 -0.8652453764477421 0.6008647519099845
Ni 6.104742748620929 5.75919962735229 0.304238988102034 -0.9454949054281134 0.5551096571620568 0.9991255462693761
Ni 7.880192395306758 8.996438740449026 11.08314108002862 0.12572154527024154 0.09444613219572766 1.4484811024220536
Ni 0.1256872888453841 4.700366072497176 5.918155246889332 0.3178780822352654 0.44221071757778035 0.6243898316151183
Ni 8.05043356379872 8.626377926743892 2.298224144739695 -1.4279588140989858 1.594640860941989 0.8093207973659805
P 8.493360634088983 1.5666471093672842 3.359775160013405 -0.771124231691601 -0.3640784920507278 1.8406218999266364
P 1.6206438702622552 3.1832062037425892 1.577816983252838 1.0287060881399703 -0.2584143796519937 -0.616235320828784
P 4.653445372486015 1.2046383649437264 8.176474203832553 0.44368575946141003 0.17552484194561382 -1.051453923359447
P 8.377595193576083 1.6814998012859768 12.418008787713266 -0.05084536478664147 -0.13242878208708805 -0.9012333645065769
P 6.220634708740947 7.709237294746061 1.580528117691079 0.19803767833614924 0.18111493443888163 -1.6780091380570001
P 1.8601997092252505 3.041187944752719 5.903156347465502 -0.5593841161676947 -0.06749865707260633 1.418907502529995
P 7.05086540776356 4.05148315604852 6.11762786689441 -0.4337353331169175 -0.9291982251506191 -0.18612909982402137
P 2.420862311053537 8.409469097455005 10.379889073555475 0.5955741929350066 0.39039116180332767 -0.6327875687605102
