# total energy = -340865.9425622068 ev
CRYSTAL
PRIMVEC
9.30371179269383 0.00000000000000 0.00000000000000

0.00000000000000 9.30371179269383 0.00000000000000

0.00000000000000 0.00000000000000 13.61692264220964

PRIMCOORD
 96 1
Ni 3.9419547047250187 0.29786111881411215 8.992056824149358 1.9789210247515727 -0.06826690269719855 1.6437373613583242
Ni 7.448635261036054 9.105561175613198 4.954299009699784 3.2498813378439064 -2.2046343146261194 1.5309649200495827
Ni 2.2237638490918497 1.2299692843566439 1.6046995293656054 0.04736666220942165 -0.5542416527348067 -0.18163326883619685
Ni 8.31614124416238 1.0311582706244982 10.262189301223504 -0.921802189796864 -0.1524327360128407 0.3293536869750328
Ni 2.383573703688558 7.9907904486074575 9.922079097545382 1.112595013645142 0.9834215052705579 -1.1109111981848159
Ni 7.873749756354642 6.017361568231544 12.65958459890338 0.30397895565567 1.9653111472776217 -1.7095123508716044
Ni 8.115274110160927 7.4497330990079 10.50707601641136 -0.38056491974152523 0.11467685742030573 0.44441929519332496
Ni -0.08097206302183585 6.548389516698467 3.1295359981351725 1.3808045250106864 0.2843506399017812 0.8051363269709876
Ni 5.293058314449838 5.044658517752072 2.718182622682334 0.1444116654805771 0.23394519086603577 0.12645893765689836
Ni 0.4963930211974833 7.202682340495878 8.516894872881997 -1.4044509607850328 -1.1449670022179443 1.9364147759582455
Ni 8.42940462949511 4.9043771538579595 10.398372380146444 -1.4778168752716936 0.8981773512890725 -0.4504852988817467
Ni 4.659522071289632 5.642282434036614 5.537607304905677 0.48893717510004175 0.145621112407646 -1.0996559369859706
Ni 1.3014310933545667 2.5823847174207035 12.964004834413696 -0.008559716644553001 -1.2593957481831857 0.2339469906382487
Ni 7.229300259457349 3.4165275906568393 8.927798879063308 0.23622575937009638 -1.2354052988058595 -0.48283131931262013
Ni 5.272124963291743 9.050194787727945 6.764886886231297 0.05412609242044227 -0.49612855064215844 0.2106851918968307
Ni 7.5984343219233805 5.288238991827664 4.574863877721645 0.21733277912033536 -3.173133908479522 1.4889348395617261
Ni 2.332273037783787 6.678687998018075 5.439293123413313 -1.2167534880326272 -1.3737139367124922 -1.5119171593895122
Ni 9.113981034634566 4.7086642760972115 7.689176212523489 -1.2107417346209084 -0.0843892621803579 0.4565569589971234
Ni 6.918695846829351 -0.10591996574647194 0.425531301599426 1.7634931759634338 -0.10962129727426928 -0.7164556365041274
Ni 0.9451175455089157 0.9372931240316011 4.5048180936331725 2.3314012704417393 1.2111058028285464 1.2098410771835097
Ni 4.380382811380156 2.7633233011196494 2.1199093073263096 -0.5860569974731907 -0.10203500028657911 0.776400906709508
Ni 7.738436574468718 8.653819457621513 7.364834869679968 -0.21791513398636664 0.9292763866867221 1.4217850811881063
Ni 9.027893790960855 2.243711006817607 1.9494662407124514 -1.771681111090865 -2.541438544341926 -2.9773989101346205
Ni 0.600172202898854 7.096257183208125 12.121457918465957 1.1747182653384478 -0.835199207794639 -0.5033808613291976
P 3.5075551052038616 1.7307508663280264 10.685403048256939 0.5434036815790383 -1.0744005048532916 0.2672088380151721
P 8.449165712988352 2.595335484003845 6.938761161692757 3.0445288710138985 2.145277055713725 1.855135005941147
P 7.196411638860076 2.9747873626629104 11.50243267432854 -0.9365428384411484 0.690511662944856 -0.7183199434063758
P 5.722117583497775 3.766272718094662 5.12826911339099 -0.5661399468342895 -0.41559722875531 0.39634018029791096
P 3.5554971312117116 8.547478033738392 0.4462143829147862 2.4722990092317874 1.5571153531927053 -0.7689956153843724
P 3.9171696169538346 4.6942063082306875 8.93944154379186 -1.919108166358998 -0.9356205837371951 -0.8894145174947778
P 3.215176663650845 1.1016524936133356 3.6749623707142147 -0.4073660990947694 -0.31655139300404195 -1.2012173400702408
P 6.953715017388937 5.081501215790319 0.6495451397547551 -1.0123942383538242 -1.132261638836134 0.7129856756776559
Ni 6.601439280388892 4.664964742590736 6.8935534965317355 2.026440924709407 0.09468627323099177 -0.48581585586224074
Ni 2.641835434709693 3.0624190224665075 4.61610909210123 -1.569445335512968 -1.227724899442466 -3.7267852359284976
Ni 1.1672715717102435 0.5168109467315076 8.547110537129171 0.16403792435193684 0.28566473072751447 -0.11255466887098035
Ni 3.0237714043728516 4.147175975767355 6.333108142275132 0.22997077959932008 1.3071023102305295 2.9542695232060088
Ni 4.956282561018409 0.9970880786507458 0.593074401299516 -2.264884260556112 0.3592713004700716 -1.5850501319297603
Ni 4.061367843442417 1.4951529768273888 5.551211192044951 0.30219178184826023 1.0200527833403463 2.05210053425904
Ni 5.7241737037670815 5.166602266031694 9.65671305232677 1.950223913927196 1.1836268806819874 -0.3639658777322635
Ni 8.42054749602733 7.424240929153154 0.9101318683111824 2.245450834421849 0.40344799498728584 0.535857236690348
Ni 2.872158119718491 2.3346361805367453 8.262517441464642 0.656067108113741 0.6970944583686963 1.583075267591577
Ni 3.107672275814496 4.307851075545265 11.205283289453805 0.22745186983220828 0.17083617822069289 -1.5147376595574429
Ni 4.991562235503518 3.2472837724715493 7.521593106863408 -0.6574876426103515 -0.00965860613568659 -1.2041903066556356
Ni 4.623656262972095 2.9061166671527334 12.19345003902655 0.46031359782607817 -1.048458845286865 1.363274229436407
Ni 1.4113079276554998 2.2609414807486257 6.593940488818482 -1.8147846271485584 -0.24870692255624266 -0.4057311345945077
Ni 1.424007494024744 1.8794613929551318 10.750710452014381 -0.04068256532102671 -0.863635608758461 0.08017393854742966
Ni 6.17072395067156 7.00236412548035 0.6404870461158569 -0.8251287109325144 0.11656764668511538 -0.15953463716494462
Ni 5.556930183581342 6.595894268259904 7.38990372065574 0.7637971019025684 0.7772159464116357 -0.19124071001897386
Ni 4.501414795920447 4.8110702299626125 0.3037540897579066 1.154212174965296 -1.7997390456693458 -0.391999386830712
Ni 6.615255292153235 3.1898426568937377 3.2972149320249997 -0.059822885694903426 -1.5778212182814892 -0.06042580938622496
Ni 3.9392380209302793 6.643110604760939 1.4352100931933938 -0.3268383767523468 0.75165943809877 1.7147646004094792
Ni 5.488324614052546 7.572765381547742 9.403506027831943 0.12281337048451108 1.2831933648234157 1.501405718335227
Ni 2.1020526936028734 4.763025863126877 13.21488313988858 -0.6822890179247475 3.086486189282291 -0.7618111818207913
Ni 2.294341805485319 8.157652516616537 3.4058506511950486 -2.8373460358433715 -0.08931806694054295 -2.9411412133541672
Ni 5.790202145175525 0.6995097926700585 4.161018037924249 -2.113917567565837 2.3827114906799416 -1.1514389830955332
Ni 3.339902221706587 7.574281886542751 7.2948169967263725 0.07244571666523651 -0.9409764487324697 1.4426063888088316
P 0.7223131898649431 3.974192065508485 11.187867671661433 2.099409603757649 -1.2000297475200428 1.0756541747547346
P 3.1435939064017866 3.0383689279137633 0.35292234495803965 2.116099405708504 -1.2821271283424307 -0.44027956199333856
P 7.4586274473221845 6.762309758110945 8.606112815517797 -0.23111800582988581 -0.9670050115857475 -1.4434283704894946
P 0.8982035796357188 5.721084871507309 1.3252578988282913 -1.1119617509365172 0.424854742797836 -0.10468580764586485
P 5.802120199768201 7.679032375737858 5.022873876980215 1.2296452563936309 -0.4616544281246888 0.3837708282733326
P 0.4013928217862362 8.005741513190149 4.708786154719511 -0.36804364734606293 -0.25652487593876466 -0.041542342218160715
P 0.4181246167741107 3.1676719120894083 3.510006633217265 1.7990062812683794 1.4826960577408659 3.633426423259678
P 6.551915623404653 1.3066225644417742 2.053962738580173 -0.1293218610269902 0.6581327323935182 1.1166403873591093
Ni 1.6554094095821368 5.235728843411535 9.514797026300002 0.43310309884955733 -0.16803984642247832 -0.5597265871087779
Ni 4.427254910551037 8.742995533554996 11.486050698897797 -0.32322006327346914 0.9674076463408049 -0.5475706684725344
Ni 3.8014686591751383 8.416974870763015 4.803056012768131 2.604609777683772 0.864007647385899 1.8286007070960442
Ni 0.17174744698379815 2.6983089642784197 9.09866433418498 0.2922853213678257 1.4438353761199263 -1.7940016289649363
Ni 5.362017425020416 8.696644442235161 2.291482774902705 -0.690479781265656 -1.3075684512336707 0.16592845650643037
Ni 8.23349637379022 4.457938551492991 2.2750068319845402 0.5927603776352952 1.2965846985286573 -0.23614631228241265
Ni 6.479737428611542 2.9556031092904695 0.36236840337173454 -0.21551269519246108 0.16272948995315845 0.6256345026554968
Ni 8.171217328166982 2.123097689300478 4.9248732305696405 0.33475917426132024 0.6515843897520391 -1.0937493416935484
Ni 0.9391352589335136 8.261221434435164 6.731402828089971 0.8316788533462064 1.7325926297298355 -2.028970633109796
Ni 6.956040945295392 6.767045347328487 3.28113346647977 -1.8000882014786483 2.8924715160626056 -1.7129979954273593
Ni 4.292909314674198 6.7751302727313245 12.630553297146172 -0.07381765731209868 -0.4392950865928822 -0.24301835681189765
Ni 6.7231783470127455 1.5841894970864854 6.948062082205089 -1.40271778014401 0.380960355407731 -2.8619530357587744
Ni 6.230565423848833 0.9794947599663203 11.90773956759576 -0.13578407171256615 0.14188735639682662 -0.42145625863924835
Ni 1.1851998240131985 0.020887762971128283 12.463773101799399 0.1976496988691112 0.7761893049193341 0.4220522403520344
Ni 5.13280188169509 2.8322731079786005 9.743766021267243 -0.3460018370546751 -1.0518205626702464 1.201011908927654
Ni 6.055311407953264 4.9153555335764265 11.937302111286801 -0.5082279050088537 -1.0589705434514665 0.05896130902555652
Ni 8.240762572569986 6.730816694257544 6.302701751939628 0.4404099169236157 -0.7248690573788032 -0.3015703462141774
Ni 9.066122742031348 9.25416936141242 3.039092756678252 -1.5734194896693676 -1.331988789059564 -2.7396343455224947
Ni 0.699760062512793 4.590786249798073 5.351123709077743 -0.34861356364590934 -0.33121079478842963 -0.7720922520318252
Ni 8.278256530422041 1.744985545115531 12.932630858069105 1.1606293913455497 -1.144242979567726 -0.025918776748290847
Ni 2.258941182749074 5.177692290289671 3.2485890832126523 -0.583766401666801 0.6996596479927112 1.079673837437089
Ni 1.8746792851794605 7.4646283413208385 0.7109245164637769 -3.037546011938162 0.7753074165350131 -0.5837381195320269
Ni 1.6290799056810665 3.8225322622959945 1.5984492958953795 -1.0121034465862826 -2.6451463043452383 1.3051948087951712
Ni 8.81002877581903 4.040080951242541 13.45413180583119 0.4368232280136219 0.5907454040877955 0.09645647775753712
P 6.6792927392737536 8.074663408914224 12.001805674359774 -1.399444765819693 0.07776095823056285 0.9493603019207908
P 0.5090162971313957 8.796724468194107 10.313933754172826 -0.5047430317840469 0.15053294788696658 1.2764339346123954
P 6.563182418183521 1.0122996471589614 8.830165729261953 -0.897334800783119 -0.8530146387095052 2.3582708411390736
P 3.8878164067743732 6.418323628169505 3.6083487258445066 -0.21705098621385846 1.0419356994563669 0.28827105800211
P 1.6489898485603212 5.616129700656434 7.203883449666772 0.2340259235053002 0.7485291199999045 0.26388157341415197
P 3.0144863001702835 0.3081147393969283 7.160907744924784 -1.3855461534607298 1.3920613288714283 -1.5664088626794894
P 0.08667430787730088 0.2769426535946187 0.7767678140108669 -0.11685818134234069 -0.5812876011090053 -0.304774712084088
P 2.7268620552580614 6.500177683053468 11.185076558173687 -0.07949233909937277 -1.610604326249781 1.9991594632856344
