# total energy = -340861.3521390301 ev
CRYSTAL
PRIMVEC
9.38920966859170 0.00000000000000 0.00000000000000
0.00000000000000 9.38920966859170 0.00000000000000
0.00000000000000 0.00000000000000 13.74205742584371
PRIMCOORD
 96 1
Ni 5.183829637440131 6.838086331966833 2.178473174275354 0.5828467180660091 -0.11896391483143383 -0.5454811329333573
Ni 4.797426100252077 3.6962783616521655 13.383472500920249 1.852751593310635 0.695568251532157 -0.5170658150154579
Ni 5.026532206849874 8.22636549328988 7.992256815748461 0.2566745141427515 -1.1848360704987402 -0.2584694012596452
Ni 8.180762101636033 6.054876013210969 5.293056192059757 -0.6298670526796055 -1.354522708496022 -0.995480493317621
Ni 7.565618637029613 7.31779983544188 0.7650619152706424 -0.6488063127862698 1.074301517381582 0.037499796717670904
Ni 3.4668248542943947 1.9324120327488943 -0.06472357834602079 -0.6477645017853166 -0.868910226893839 1.0015583240805848
Ni 3.815173924450735 8.656137790216274 3.4170995995695095 0.1523304061070215 -1.037387160853736 1.3962002907404665
Ni 6.032858316396419 1.4262866823061158 12.427423731630654 -0.24905607836554527 -0.44795456204009304 0.7888725568139575
Ni 2.3755076182807673 6.4964505467667415 6.450837765903166 0.3616678257267062 0.7727167729897015 -0.6187503739411537
Ni 0.7908399905816644 2.6987593308314395 4.281516254350687 0.34274193535648073 -0.19678040889028045 0.09937313718369983
Ni 7.654834907874753 5.618371652908868 2.500023562023128 0.9510083790471751 1.6633445940662903 2.676559271438881
Ni 0.14505953462945465 5.787199033046361 7.2171916364325215 0.44967000206930297 0.8768981301953221 1.1677675450522278
Ni 3.7843679273298236 3.190575525647193 9.091195273299133 -0.006820365355943093 -0.02001783788282359 2.114119399163998
Ni 6.6439925884485485 4.929522891929648 11.59642796887992 -0.9700168018288777 0.3527594674934828 0.4712749819335884
Ni 3.1895051557380842 3.8137655429913826 11.771927321450857 -1.279852473375641 -0.8019746414135543 -1.4601433692513306
Ni 6.249936845331343 4.633133708413698 5.222201459760687 0.8329602911617914 0.22267707415138424 -0.11640952384069628
Ni 2.1209098072686836 7.032367859679698 0.05012241829642306 -0.7790663693568132 -0.20000020137915878 0.5625216333554118
Ni 5.791104944293633 2.5586253756258284 6.040624131763292 1.0108875719013106 -1.029621657975704 0.7850657814733576
Ni 8.981013836050066 3.3265594501525775 13.59266784936669 0.5971392234292813 0.23251360062583182 0.12295375271711727
Ni 0.9775857385660185 5.0078852363280415 12.615181636423797 -0.12162552082399697 0.16670544388177094 -0.6477932981407231
Ni 5.402992570934898 4.381437163207882 7.695689237247661 -0.044142241734853004 -0.47619787315650247 -0.5660365884872058
Ni 6.796745641529961 6.780708871312797 8.299282096045442 1.5105663017885727 -0.35056374539374463 0.05924310193203344
Ni 3.7651669934339793 7.461379630618042 10.19976706003178 0.7850446984274351 -0.24646389215833683 -1.7332675443096728
Ni 3.403607305188909 9.068727833338563 1.1123124478886877 1.5970073042916368 -0.40749131181872406 -1.919627529197578
P 4.754658249936393 4.678577483502152 2.1958845247968473 -0.5140074878051083 1.18591927626059 -1.0407429646998463
P 0.06754034126472654 8.41265680352335 11.770814700097967 -0.8264906242770476 0.8992330462470965 -0.2673098823694106
P 8.629913727443123 4.212506501763369 4.127578283001472 -1.466374694873023 0.26085152833857655 -0.056512076154115576
P 2.7889239118592104 3.902859754110046 4.827392702023214 2.0847774556667704 -1.4469286703332693 0.2983451544086604
P 2.8215889725064685 9.263741719410291 11.147227519182241 0.02840117685051238 0.5333408980263976 -0.4024768893232681
P 5.592579493783252 1.935144292780039 8.304434894344727 -0.8846942292009733 0.26857640778666003 -0.6579393854357894
P 8.364339930257817 2.0451013279165826 8.684732628446001 0.7621102011184488 0.2633694096644238 -0.13822122039914905
P 8.447838172377983 3.8710115547092125 11.618772410193042 0.9509191617674786 0.3584691162837504 -1.4478205860199194
Ni 4.9748821641305385 5.398945821541689 9.888207730356656 -0.5958405592225158 -0.08520584454438228 -0.2278269937834399
Ni 8.688079881714398 4.405135528563926 9.291651145329801 1.66315201843951 -0.3499471948556683 0.12978980180234423
Ni 7.397533004460712 2.171996497404277 4.266730126869427 -0.04555711980450863 0.6388445735878675 -0.9651877558713507
Ni 0.1219799181945526 0.013996494943048884 9.31439368913543 -0.8478433789212109 -0.1947628642396194 0.7801588310900436
Ni 1.6804525896706648 1.5642329516448654 8.780775793685113 0.329172167091846 1.7020612939101978 -0.20704733803392728
Ni 9.275497009991025 1.5156062344582752 11.245538178570907 -1.4239507213808573 0.5951198790064074 -1.3877999824919132
Ni 2.7346918364643957 3.445154558239819 2.4527507688794623 1.1537846005095742 -0.42419448350601785 2.86269248502796
Ni 3.780621632647945 2.200126569752418 6.974300292110578 -0.8877805814357808 -0.4377979332220653 -1.1018043507875412
Ni 8.863470319452475 7.943506160993448 2.787452622694673 0.31357225577105996 0.7264703404276521 0.5565759572949383
Ni 4.993773254105325 0.09591453306582247 10.75740630965282 0.29728071769988806 0.06928454532843552 -0.8620852335522057
Ni 6.632274854706733 3.6203478225735872 9.534377239560513 -1.1850319885596299 -1.7951172306266183 0.722802918878394
Ni 1.2035558491143228 5.142836347763233 4.728531834944425 -1.066841461559111 1.5083482110913313 1.5299189952835717
Ni 0.7562820652530364 9.305448589026595 13.701270960460308 1.6947084530895522 0.0016380498240552435 0.171706239530472
Ni 6.506243492514109 -0.06313586298084364 2.4965054251376646 0.5434684733787027 -0.43861631535830264 -0.38365641418265545
Ni -0.14917951985854827 7.909629892291146 5.730259109565698 1.5408778082879206 1.3088038663026684 0.07371764139912466
Ni 2.2370543316166507 1.2806882070382155 2.5704933367233083 -0.6936664065237538 -1.8070420070886621 -1.8723279727806659
Ni 6.517688939173783 4.9504889972545465 0.751453194689402 -0.23376418520348127 -1.3876074068651327 -0.7771892069387583
Ni 5.143887939252884 6.358100541409644 6.503896190081853 -0.34998061919676504 -1.0647807223753403 0.3466523261544804
Ni 0.8045595038377072 4.788722302833276 2.4998451670382766 -2.2724764710810734 -0.4573663422722962 -1.6071575053517613
Ni 8.019230137457987 0.4774056357236548 0.03718502621080754 -1.9579462222721182 0.29239150792838675 -0.352467904394993
Ni 0.007578031172291376 3.334174099242812 6.8377595874682635 -2.0259624424110916 0.9725357115959896 0.6279718925394218
Ni 1.5700730400963154 2.094300786896643 12.33618971961475 1.507219753913843 0.651492087148549 1.52240186097092
Ni 9.041132945944977 6.71864619500398 9.823399649123074 -0.9180622631384576 1.3718066923874503 -0.25707637756686047
Ni 1.688320747423583 7.791767142562769 8.579097446547726 0.27326352884968425 -0.23043872037467406 -0.2315556075879367
P 7.500100731540517 4.969624206682288 7.222069330886747 -0.08900182125170478 -0.6855481482919935 -0.5377289997917641
P 5.90859212563285 8.701318667432314 0.03855866759416304 -0.23663559321400537 0.14972279328084537 0.04770296250291784
P 3.484448400955764 5.659956462798694 8.095336254758498 0.9200805791200671 0.28817078497881987 0.6196078368454426
P 1.4869221987361216 3.57351444444524 10.184390351258566 0.40378300972920134 -2.2150074303303273 0.512545301437285
P 5.096200143039196 2.9214995532329615 11.164885805919607 0.2719936609983251 0.47077875902346017 -0.20708821857419174
P 1.6257886106283153 8.382010422967829 1.9005816728465463 -1.2724371547481763 -0.7773200760896678 0.9694807268197495
P 8.712444880961202 8.077537129875196 7.829303325217442 0.03598747383820254 -0.9101651197785681 0.09439316747060517
P 4.527392428445485 1.0113117799126554 2.4740511300707153 -1.5477745354077537 -2.000228785090413 1.5778261033774956
Ni 8.99418689729988 1.177726133149791 2.372648603918281 0.2778213234236957 -0.6203241461861768 -0.10862396635800646
Ni 8.51230448637743 1.2180997349845735 6.0684105590353505 0.9073855001509017 -0.3878156877666676 1.0027518301680538
Ni 2.6376355754955245 4.4752259791910545 0.6440340629426122 0.04213858104126291 1.0167661421692746 -3.53566099688273
Ni 1.2377513509474107 0.29709525208757054 4.405497952059466 -1.7551286060488225 -1.086659524726303 0.5565962690099123
Ni 2.6380956467722467 6.075259987532671 2.394677567784506 1.4105524456970806 0.5483772235342297 -1.7430655042367014
Ni 1.8677861021840554 7.396246682727836 3.9338291234802423 -1.284531109798233 0.6001016484917149 1.511412708949268
Ni 4.971755557290776 3.26507890484696 3.8157983068977153 -0.9109017408342763 -0.5363269772379151 2.2274340861294544
Ni 4.058654911143661 5.623131982241481 4.126863764141094 -0.03926485903789367 0.13347882061815722 1.1878558311616703
Ni 5.520526698322759 6.571601781437811 13.25086118054953 0.794380116895748 -0.8216415237148624 -0.35513876635893676
Ni 2.183254159869371 9.184017939601189 6.679478167698404 0.08894834230595004 0.5210181147949866 -0.4868934051971357
Ni 6.875859122706678 8.85011886321781 6.508375782043569 -0.01164015534208963 -1.3958061406258413 -1.5723727935724081
Ni 3.160492497675415 1.5417457943438646 4.611477496173716 0.831092384715117 1.4262626573434856 1.3398519938577247
Ni 5.431836223222444 2.5680333637743056 1.7936273069813433 2.4991595810680574 2.2008697053773645 -3.279335381438965
Ni 5.469026882959089 0.569455570065013 4.743056942395218 0.35062519475929943 -0.08740439485759785 -0.2263830622480617
Ni 2.297595955949366 3.925666144541833 7.3167933121589295 -0.3689502183207323 1.285507100558257 -0.4870461287249161
Ni 1.6421446139762665 5.467036370496537 9.360828025850296 0.5637909869861387 -0.12487693788175912 -0.8906797573604467
Ni 7.550840020916137 9.59258001174973 10.770722086890517 -0.6318771411310989 -1.5117870615695512 1.8111701703244225
Ni 7.930614776035504 3.388941359592181 2.1399267126538386 0.4482222138791829 -1.2018524025510784 -0.0179144183865756
Ni 8.392235272362731 6.5832256230823365 12.211040943136652 -0.1977278604052143 -0.42126933943942285 0.39810241440465627
Ni 7.016143305267953 0.3187721205889571 8.59417276168864 -0.2575723433666725 0.281922747186579 0.13831455144390373
Ni 3.7712605905481125 0.43840191958833624 8.402223513672462 -0.948798772990366 1.1398857310402948 2.0091309726760493
Ni 6.155866353056299 6.931077065123039 4.424049152642063 0.07738711983091189 1.4777867933647064 -0.6822980167858119
Ni 3.9522376080749573 7.939534525278072 12.536040926538867 -0.8056022108638126 1.9536679066117388 0.050541203282661346
Ni 1.7014562518344807 7.030349179587959 11.115318289918168 -0.5746094177578814 0.8391167976814903 1.3391089450441132
P 1.0563612081924894 2.485840221806472 1.1298843538965468 1.3215444537977883 -0.333949019655199 0.31521570491175394
P 6.344486187302566 7.059765573668975 10.405994479282874 -0.11618146699029024 0.5505150958128391 0.9520458191727539
P 9.104162710855881 5.83929036862296 0.8372001525396696 0.7167037479591915 -0.5241160369940199 -0.8155626645106341
P 7.125058138124575 2.5381099523679214 0.2503407433209467 -2.1621967142871985 -0.5553587970583855 0.521906688047527
P 1.4796080043572157 2.0078167760826475 6.405626843215993 1.3343385202386633 -2.7980518662294394 -0.5326472143934827
P 7.9358633442740265 9.220607689915177 4.488540817507777 -0.46999534389021635 0.1430474381431988 -1.1699488689742625
P 4.600853605365331 8.145721570927334 5.707282774437815 -0.676673471510183 1.6990585025281317 -0.7609341785324766
P 3.3097245971084464 5.789452443381326 12.337880716286945 0.20884916712935644 1.464904795195716 0.9433146099473432
