# total energy = -340873.13761972665 ev
CRYSTAL
PRIMVEC
9.17478628524514 0.00000000000000 0.00000000000000
0.00000000000000 9.17478628524514 0.00000000000000
0.00000000000000 0.00000000000000 13.42822713006634
PRIMCOORD
 96 1
Ni 7.795632224422849 0.3420286847056589 12.316772292204158 2.1239284148346194 0.8824771669449964 -0.12217882222430572
Ni 4.907877484985806 2.6896986326337577 1.1344081658033156 0.34456459038751625 0.39731308573414154 1.649452152354914
Ni 8.820611799340286 2.8961588434733527 4.093648250872351 1.0816379031419951 -0.5300953945059064 0.9801153237154606
Ni 6.601974207684947 8.077628448942503 0.7295514635973916 0.6315452117129768 0.449010256998117 -1.4351805286584056
Ni 1.5744116384702591 2.156836232715842 10.09287020830424 0.17945245913479418 -0.2740425731075538 -2.314102374151976
Ni 7.939199276781112 8.258637803235459 6.956439314902851 0.1415384576978401 0.8126822576390456 0.5580065190938777
Ni 5.340431948845893 0.1405246932988303 4.684504473512441 -1.100688749125859 0.05794906571095826 0.17987154895008378
Ni 4.9944966402333995 6.433194843217755 0.4425687428509524 1.0594783363258204 0.8243656075142448 -0.007244597377555265
Ni 4.582998310394414 3.693319305589919 9.934028054624958 -0.5381208359135443 -0.6158414278244748 1.8410844413853518
Ni 5.588674135429323 3.4369023846218254 8.048557221814285 0.9648753668372545 0.16846330711314214 -1.0068311424437497
Ni 7.364527376761163 6.2364507308218835 5.9655706770996 0.8488720772960414 -1.1786991043630666 0.6886404140640721
Ni 7.828138491454119 5.629887274437077 1.1201560531286399 -0.3293323468187941 0.3745827340161614 -0.022444445046445216
Ni 4.424623153325886 7.325360215046093 2.9321203349370193 -0.2704162892088762 -0.5487592894639968 0.4965396700376481
Ni 3.2638292202758215 6.975819215509725 5.17800520625069 0.31785751340997515 0.48640978069249785 -0.45615381002143374
Ni 7.549692909141944 1.0383472382153651 5.452880879304646 0.2611397490029567 0.36878052551208745 -0.7732168525545715
Ni 1.3390692010953997 5.62855693045753 0.5034471183122264 0.9455013331860168 -0.15669691060583335 -0.1289066278664425
Ni 6.191870445327968 1.448405126642014 8.931490006424568 -0.08481323709165393 -1.0332420283371109 -0.011836330513295744
Ni 6.5225113855687065 8.35995496576053 2.9943336417708726 0.8699461243575212 -0.8639657384043702 0.6293872848297096
Ni 3.077140673408111 3.1113718002197595 7.756399004248105 1.0278990188576425 -0.10726308145473785 -1.4830367289097364
Ni 7.54670192888448 3.5337055524025023 2.4049958462246797 -0.9316657128545052 1.899610976866335 -0.549355271176783
Ni 3.5075941112591216 0.6050037427536149 2.995192401746636 0.9240606468137376 0.3801088060407131 1.6984144411862296
Ni 7.328809934606849 8.720487359003775 9.427635829985599 0.9654325248923051 -0.9417364668269459 -0.3010841506063782
Ni 2.8213568126785606 8.218332968048225 10.348704530357153 -0.6030046810711227 -0.005160461155016919 -0.3759258783076171
Ni 8.545322343434758 1.6340569226842845 7.70202830454333 0.7698373945593774 -1.1229668437977691 -0.4861590981342725
P 3.5229802274915354 3.8356569366153592 5.677749380906743 0.1927419771548487 -0.1456015720236202 -1.0430191623285325
P 7.733665719334166 3.077241596054835 8.934511263476049 -1.4150436486992146 1.6692537604618736 -0.7886457855151321
P -0.02076621078142204 3.8780352734534738 0.8100739735042355 -0.14577100772194895 -0.8314708511004583 1.1663660367190105
P 0.7995165471782736 0.6351493373301451 11.461904260690671 -0.09909365827006804 0.17583363143528427 -0.2547590422875935
P 8.505540471053278 6.699612280997614 8.488465276706144 0.7103173848168735 1.0567750784620447 -0.9962286843375552
P 6.941120174608717 6.2496991219009566 12.512757649792384 0.5814634645652373 -0.5493398445578151 0.6093326801716797
P 2.7008551724898187 4.269477520952534 9.402202405532483 -3.5168292088882076 0.13552259052106336 2.4858500084433444
P 1.7536319094803758 1.7029687408248078 3.8005505352130293 -3.004000057661917 -1.041954211399128 1.0578096903741459
Ni 0.8302300610122791 2.1772134325680725 13.033544196290443 -0.03865370781645601 -0.12838237993185633 0.6806311706063504
Ni 0.14423589426246253 4.325792357824659 9.781093545693475 0.9481305432787477 0.03645875704766625 0.1437658043664621
Ni 8.505274402257369 2.3748658487844616 10.80146462557004 -0.0004463435087992313 -1.648495959089232 0.595169244187104
Ni 3.68819977496518 5.536643923649946 12.229986155850165 0.19441525109221355 -0.7395773101232553 -0.811255552494848
Ni 4.280845080888109 3.242277647807163 3.5807712874416544 -0.7505944871693654 -0.8813854765427144 -0.03307904194215593
Ni 2.163524651757839 3.8088482117309748 11.570029114476595 -0.007202945506342434 0.4488976426796527 0.6419219269616105
Ni 3.5849100334359547 5.324889861250361 1.7912311002567942 -0.39240356424766615 -1.7582201004899523 0.7763988498269789
Ni 2.110714583162865 4.555703321848541 4.078595179374127 0.45835004634180415 0.2598724522547589 1.3390238415294746
Ni 3.7693966316478638 1.166445601266622 9.125325711637567 -1.4298866272493183 1.1088864544453032 -0.6389199069104932
Ni 3.9641131163231837 5.6917987308093645 8.651671876116943 0.8767968287307674 1.0258117973113108 -1.7971471165724533
Ni 6.5178781186054575 5.671375657026805 8.208218683889244 0.6372648878055734 0.4247696392831975 1.2420094343859385
Ni 0.16066610114916866 5.1635420734965 2.9388482055590996 2.9981518264112563 -1.5640033385617902 -1.1331928924011516
Ni 8.090876840021577 0.8429876010368296 2.9798310574366 -0.06082844414128234 0.45036085748874055 0.2730521841698265
Ni 1.1654455495854454 6.292325177962849 11.232295147128356 0.018065085031826956 -3.4024230886307856 4.669158565008495
Ni 3.806343495135001 0.1520381323328528 6.887256840573385 -0.30119136560820386 -0.6808214322402856 0.4391490479333211
Ni 2.291925782749269 5.4282530010681125 6.641856085234545 1.108842231470929 -1.5819228991546885 0.5715906855362156
Ni 9.16994177879714 7.452660371709621 2.23546414930009 0.2688404600813241 0.6956507839436342 0.5038480307736033
Ni 6.345061848269297 7.997349070866406 11.411307150494778 -0.8915248789695613 -0.901285300790435 -0.4132750083800366
Ni 3.0245507996787167 1.2465781827656677 0.8993703313258421 0.9695033525275689 0.4130027285552565 -2.6816922217900716
Ni 6.197742308410105 4.332893642239618 4.297355108413588 -0.003836600137270812 -0.4812341500288292 0.6453690049699465
Ni 2.993310653124532 1.6080922781179574 5.343802765246483 2.178947708493293 -0.4439834932074869 0.6793093664711333
Ni 0.33700732429182473 8.017689571574373 10.430925293164783 -2.5881436617079494 2.0362453123943385 0.30102398679240416
Ni 4.600870793650671 2.9764932702658475 12.316503470972428 -1.0700658820336797 0.5600598020784807 -1.5287974800846187
Ni 7.411254562194486 3.51642025545446 6.488075661027789 0.6591002385131101 0.06385154723832229 -0.3949564125765069
P 6.070891716263803 0.12443762341098662 6.786169047699961 -0.41171589142303283 2.3992290287189904 0.9537941693224283
P 6.318913707981653 2.15763443910357 3.563784171040752 -0.6261335537791024 -0.8104281714975462 0.9013871164756219
P 4.803119777686045 0.43221866669007836 10.71204532561515 0.6934722882350767 0.062321740857357186 -0.04923868242115391
P 6.8039020742080165 2.3963440229645925 12.1176051188083 -0.09760061866430933 -1.1009319754849167 1.8562418658520803
P 2.1812411636509763 6.448131394932943 3.0070232883785364 -0.7257342335925759 0.25492796376529 0.9139821795318132
P 5.562498470783482 6.5442005798283525 4.654961662380437 -0.39841737454191384 0.5784218495254362 0.2007478781784607
P 8.643749448349089 8.244426059619473 4.38244941421704 -0.49780825233742654 0.040999582340813266 0.6066222232190521
P 2.48119244450148 7.26361390482299 12.52870985032506 -2.070448954859241 -0.963222918835496 1.116567882249961
Ni 1.2282653097782512 2.9143065703115845 5.888102453474074 -1.0061480003337964 0.9798499858692158 1.3937528576412381
Ni 5.284777696570509 2.340432876679364 5.796831681691099 0.5188391048657968 0.16296371745115162 0.4079034596554782
Ni 5.157229820683202 5.075188883682461 6.4716537114485435 -1.0066442232439243 -0.7334621983644529 -1.5558997356180495
Ni 0.9889777143950808 8.828052550839681 8.455552566652155 0.7563750984068844 0.20276310883627657 -0.9756912265058356
Ni 1.0741013795139434 0.7376161005492649 1.9445014063582895 -0.664120831656153 -0.033244878096058875 -0.2647341512224344
Ni 0.811047418305821 7.172343133040015 6.590842439751262 -0.0015179793064231922 0.004748570428578919 -0.454264820528837
Ni 0.07849855210071963 4.906886608090695 7.444353520405611 -0.5789162726633514 0.039190554156532505 -0.426790012147336
Ni 6.660105652198107 4.042979577345143 10.968631980125462 -0.2914024045422401 1.1257744884498933 -1.9716792555874947
Ni 7.38967546536763 2.063363512277065 0.8304952123295819 0.3184200707816645 -1.7631784729364925 -2.0309388125797607
Ni 6.246487946777913 4.299534120104225 13.261125682132205 0.40158780185009546 0.40312994952623477 1.2935700800720495
Ni 8.853466708242058 4.357821535980506 12.178260546968174 0.020982515788938057 1.1432559330641083 0.4593090678209638
Ni 5.30925602579417 7.376720667442664 6.706781458829462 -0.3763413685784809 -0.6680911291578108 -0.8715841741815764
Ni 4.8939501597378605 8.133429497794943 8.841789040537458 -0.21218568770175716 0.9524168293589274 0.5065055230011083
Ni 2.076327484988097 2.9837872251881903 2.313536073848748 -0.14705193131690159 1.9832083392730169 -2.4087511092768126
Ni 2.9053795034695225 1.2496884352419875 11.854640153025015 -0.04154594176258652 -0.0369485521998912 -0.13199786519725654
Ni 7.785512435392228 6.0153934353515375 10.34502544114475 -0.35796955093951255 1.4487281854358534 1.357357863951972
Ni 1.672068061355059 8.505393674476224 3.978998289236402 0.10936470117877292 -0.5913061616872719 -0.3652881960881128
Ni 1.6781509445167109 6.2580573520069365 9.262630055027287 -0.1472841019323657 -0.1773976334882945 -4.031725012835541
Ni 7.572455553371293 6.036385345870179 3.726239355472759 -1.542350536178705 2.5009035603423575 -0.7977773155027551
Ni 4.119093602547352 8.388305054703975 12.33892940055316 -0.01522401603860604 -1.3555951156245944 1.9274534529999
Ni 8.910203585273212 7.217070215110985 13.185309837477137 -0.007993816838753975 1.0781980242225109 -1.2977658633209521
Ni 5.46213548600926 0.8197322707957452 12.805881972331296 1.075839037072031 1.13598896708905 1.3245726991011513
Ni 0.7984073155429134 0.3308070038685301 5.916248862166858 -0.010882965461090934 0.8538805862542261 0.5376382398501708
Ni 2.5227267010215373 8.012239748651263 1.5663488364755989 -0.15059388303188906 -0.846298403031594 -1.9643932634490426
P 1.6445804023018027 1.6071564499392417 7.843346616836856 -0.7769277257472555 -1.0441154807165052 -0.9188780741715336
P 4.627725392465384 8.87461459012382 1.372015857857831 0.5756386303533441 0.10769476967551776 -0.9227385855682044
P 3.0078893881831514 3.750432348849772 0.33689814433764126 0.31896488754154095 -0.4865293369894975 -0.9666432573709546
P 5.916204823193742 5.243252614836518 2.1376526725307774 -0.7524839908825944 -0.6432974671528986 0.22683094841875773
P 9.13994940314791 4.811661503513342 5.1646568100035 -0.12761773385168987 0.08353848414428838 0.6251009987495298
P 5.3099257851769766 6.468361798208119 10.048167898155647 1.7096977274095329 -1.2254325038638638 1.2584009883700844
P 2.8310912606944165 7.428237091202356 7.715187700197565 0.2124641381741244 0.6642714983014043 -0.5882740597291675
P 8.524734123503015 9.104186087063265 0.9598376763713666 -0.35352437068396536 0.7686379749346375 -0.4263526674996012
