# total energy = -340861.5711363835 ev
CRYSTAL
PRIMVEC
9.34133805734688 0.00000000000000 0.00000000000000
0.00000000000000 9.34133805734688 0.00000000000000
0.00000000000000 0.00000000000000 13.67199248384778
PRIMCOORD
 96 1
Ni 2.7350691065641604 5.273960768707182 1.7814604603928816 -1.7867009815384647 0.06915727572195186 0.41567744717394217
Ni 4.6711642119481676 7.864715540770025 10.135977862278525 -0.4174664207535649 0.8273300894592074 -0.24426534184512128
Ni 1.8206641887270865 8.088477957019915 10.824485868077401 0.35502795181268537 1.5252079629611475 2.1922526531323148
Ni 1.4249744421324004 6.077969751199796 9.881624431553591 -0.7056839998099201 -0.8415251500126669 -0.8486183094140224
Ni 7.287383472058819 5.553986065188895 10.150347642896259 1.0656440988169003 0.5460035810957307 -0.3505796862333446
Ni 5.766520192871851 5.388765815701887 12.063099678147225 0.5280634516775422 0.659737872097109 1.0841514135924684
Ni 6.544401452301471 3.682981404675441 1.5501166140257494 0.12507774103865557 2.1226706311681185 1.029051387294531
Ni 1.5753793291675298 4.591678764846627 11.66547720867026 -0.6213818980267298 -0.45324075013969684 -0.32807173493881564
Ni 3.4250577144744008 1.0617925526200231 2.9965723975795515 -1.5869077539637897 -0.8506304547480446 1.1107831572473839
Ni 5.417658574884524 5.609921998582247 7.105184406183073 -0.6143836123320258 1.1714341952705374 -0.6308332732476167
Ni 4.264563782286777 3.2251997827858974 1.548298789603848 -1.7257246989654085 -0.437869152779633 -0.5812557194298054
Ni 4.716843355951757 9.526109912470282 7.623297995242674 -0.6127648457816801 -0.6640488407676369 -0.33144425095547436
Ni 8.222498136778501 6.347906402380103 7.8040286027467705 -1.508943678583485 -0.15412477900328295 1.367012870543233
Ni 7.639458510401408 3.519003553174624 3.640071967460618 0.4702563108610869 -0.35514519411684 0.8934742893864485
Ni 0.580867765235819 4.054010018311134 2.599073233767382 0.8292522461825849 0.9367606108789092 1.9489131655355727
Ni 6.737122601573053 1.3840220152792853 3.9326940585617263 1.0057008854940486 -1.0251937041113377 -0.2689060232119369
Ni 1.8850820572442128 8.15623068328945 8.513618140690289 1.0515066309742536 -1.0059677660021902 -1.402679470706907
Ni 8.547268443439599 2.710903064531996 1.3825937246620772 -0.4701740355599257 -1.3463301453829006 -0.933226886694038
Ni 3.498433926365646 6.314501776826558 11.35942974624769 -0.7393273988959783 0.011364533083199782 0.27705513468163256
Ni 9.652404805502702 6.325421801231506 6.147557116300068 -0.03295125811504002 0.7297677802320013 -3.066732660804447
Ni 5.131010269589203 7.757869313957541 12.98423689845534 -0.3129891295740803 0.05802748435737748 -0.5370355732691655
Ni 5.318210687959739 0.19183091973711586 2.585319047339798 2.184483807820173 -0.6653079099857188 -0.9294653627690768
Ni 8.253511379742083 4.69655396929004 13.295507103089037 -1.9435984381908782 -0.19221901477184314 -0.4417579463110779
Ni 5.155503258459839 5.693498951833803 9.491589931130639 1.5049669533239243 -0.6706272653161031 1.5100088866232058
P 2.7810751974062207 2.949761083381027 3.412570213512438 -1.6681723544722367 2.578455744996224 -0.3906130480061466
P 8.52997762635358 9.045367281181798 1.312012441172851 1.1479703078206422 -0.3936379508753995 1.3277693516615778
P 8.76201646828592 1.9807373608427299 4.772359863258041 -0.35406738767162893 0.9515706793085483 -0.19698738269476396
P 4.637189764761859 6.74940646136134 4.646932780548309 -1.3222623058004195 0.7229582135093355 0.13186493916381806
P 5.199230062770841 3.772452742357726 5.949873848154312 -0.45385215847145066 -0.339819362393047 -0.21994527704251796
P 9.024797654372822 4.236922762428572 7.712275176131955 -0.9043773094521973 0.7641732542950646 0.3059437926915247
P 3.6699502378277917 0.8887377227494131 5.47928338326728 0.08869380309298273 0.013619390555647511 0.14956492754674242
P 7.178482150833086 7.057502479260391 12.421552048107657 -0.006666356276582068 0.6142941379420129 -0.3676266144133023
Ni 0.9356471209994789 3.9462389990126883 0.28219809175681254 2.2023203217809617 0.3854505299686007 1.1253615692821908
Ni 0.5681747548325313 1.1095267910368614 11.202667144405025 0.9908370810083387 -0.33802473238646946 -2.5296554356640693
Ni 7.058866314643729 3.2817429031649823 11.037728069199103 -1.3962828231519437 0.4593278368740412 -0.4110993408849564
Ni 2.4817787201311727 7.98487317457742 4.203945970166513 0.13153403818696058 0.18778103360514756 -0.4627831424124933
Ni 1.295709003539014 1.0157397550867528 13.419129439250407 0.21395794911083152 0.8783348626418486 0.5365154390996373
Ni 6.602878229696658 -0.3467635534181631 11.099224901247942 -0.27675225872923304 0.9045133208094293 2.2491552798566294
Ni 9.049085133802132 8.652115623868287 7.919474465544879 -0.4049556898810639 0.6676010768952696 0.6647474094965583
Ni 5.9237909635148815 3.155307890058934 13.101241830606044 -0.31065945299963915 -0.2228359683267517 -0.8164188418633422
Ni 6.499787220857475 5.634078699276169 4.527466405770825 -0.2861673813955459 0.9714864443958688 1.184098421001767
Ni 0.9677533005373795 8.202703841043613 2.2630428779893257 1.1721417628605233 -0.3526584231392443 -1.041673961154548
Ni 9.066067686726166 3.775292509183307 10.108264914115857 0.7316236024938174 0.24371101200354803 -0.40012895791638187
Ni 4.910601393768205 1.7808140397865324 11.372828027688252 1.1213313650768755 -0.5973402836964938 -0.7355661320813331
Ni 0.02546729044928096 6.140444621362577 1.2888916948899711 2.49354557731539 -0.7244484249016169 0.47864402070414985
Ni 5.49506090355809 7.2287292092370325 1.757671808425696 -2.9815540699535745 0.1600560568860534 1.4011614914004837
Ni 9.199901039719911 0.2198549344632439 3.7095257514240294 0.3084413623023978 0.6474701104733495 -0.9120777634202486
Ni 8.102957031295082 1.5587517470966936 9.308740708113248 -0.011541424980696253 -0.22717419069078942 0.2902274103975324
Ni 1.4219198245272526 3.217997611001283 8.298900008126344 0.0009621068029531816 -1.1672417544557447 -0.028480109717563856
Ni 6.365150512774914 3.8191781162444234 8.468733010437274 0.6525968901769534 -1.1392175013286767 0.447948648502822
Ni 7.298471640552124 4.535938999556358 6.331801001116997 2.4186719679349507 0.7707606777045951 0.6662761874362589
Ni 3.149170630833912 4.514622065688017 9.026071812909036 -0.1281779772305341 -0.37363014029490493 2.2909537039496546
Ni 2.425291647781541 1.1421560855163164 7.451331431277262 0.7806349993955136 -0.34072516203676806 -2.9565256662300374
Ni 6.828060529359339 8.147319046606542 9.158539462251793 0.7981295566358513 -1.353866820079578 -2.484791485271843
Ni 4.01758814050541 2.6423189591589185 8.467639139729132 1.5055961022674909 -1.9400253761276394 -0.6006289817500946
Ni 2.9933944743096084 3.449373217918438 6.164715286383052 1.3002048117797478 -1.5790921145741128 1.0167360602622877
P 4.728865658269266 5.364665163037417 0.9449333453458935 1.3720612316004175 0.20189459018839423 -0.3021804689943505
P 1.1347203802756505 6.013467810638491 3.778132276008888 -0.20922994750754287 0.7173565510518419 -0.9617777017485372
P 3.8946748119166124 9.229513081947188 11.723679350721133 -0.42479972119018455 -1.0065622050530796 -0.20167964596411073
P 4.609586110256623 4.094103042045981 10.920285028284844 -0.4249704424400939 -1.1211719566808753 -0.2853312586474957
P 7.8169345956619765 5.481983030019231 2.9583186833445625 0.9062287608386391 1.0247172786955514 -2.460147461470918
P 6.310839972235677 7.584148446670273 6.79101558429287 1.375040883054032 1.431344185631451 0.42613360951025964
P 2.798692961330713 2.664121642615846 13.644976842195922 -0.5992464995802712 -0.47828972268852465 -0.0718942150371407
P 5.872030608315723 1.3257694300019072 9.119410464623526 0.13031045019250462 0.37913435794258576 0.40823744595612915
Ni 4.934823483829823 2.909705424999148 3.8170426863222926 0.5351296144957042 -0.11838875905425417 1.5604742423626092
Ni 3.261051838958857 0.3888219947191361 9.555916254532994 -0.02736322250430126 1.1297411864071252 1.6519875171822582
Ni 7.013953160375989 9.353481981757335 -0.05678225863808063 -1.5297842694779202 -0.590248666957035 0.6861708694776569
Ni 9.017446021176335 6.231102309001601 11.58112118780932 0.7554762407416988 0.05557670882403977 0.4267745855283683
Ni 8.972075141334733 1.7925561019567802 6.888592401167775 0.9982678262547711 0.09298446004853662 1.0265193649012967
Ni 5.511342856113971 9.095250027394307 5.229085913926233 -0.05420399684622924 -0.9600046690085144 -0.06555078931761614
Ni 9.338078114996206 8.558225833197515 12.658979908071831 -0.8376080743464477 -0.9291110647534515 0.3639581644227796
Ni 1.214075048641803 1.7122953237811493 2.008798740921826 0.6083150375404427 -0.0565850954838961 0.7411138013724399
Ni 8.380320046377813 8.67829005362249 5.640654067264744 -1.3802167708280164 -0.6683991473165327 -0.047869312877453045
Ni 4.1319448032644965 0.8207411875517603 0.13724387558591525 -1.1527772422909823 -0.4842613668909273 -0.2360424397146967
Ni 1.7833268597736418 5.553873969129991 7.549237063258287 -0.20266155026140584 -0.1838091934415931 -0.4015597768256375
Ni 3.2833589546808555 7.408232364896125 6.433232988284393 0.4096986038826879 0.24649423117563998 0.10734664230747964
Ni 1.6445332561733719 1.8067175707317167 4.956985808809069 0.22510522397690264 -1.1466040236007349 -0.3919939875140733
Ni 6.844136972473894 2.4140540178763636 6.048134450988535 -0.6404129465162518 -1.4923870597763844 -0.2308917487516927
Ni 0.6562710475255874 3.821018359878106 5.742237384111661 -1.0582048689300356 0.46735816337768543 -0.13315023363414488
Ni 2.9044742755836044 2.7866052696455097 10.636469016744512 -1.1180308399487326 -0.27724899585999346 0.5029633141758048
Ni 4.735638128494747 5.154447687238488 3.1251577867489173 -0.41798681203340915 0.3264480832924636 -0.04282326581311335
Ni 2.412185750227955 8.10056564870512 13.541329089597513 1.5529882183982093 2.045174496563168 0.5145692738458493
Ni 7.2728483497542005 8.259433788187538 3.2720904983594794 0.10524399414218004 -0.6179510179683099 -0.49073874708515486
Ni 7.877625270220528 1.4464034720596466 12.163247231306341 -0.11040265552498406 1.0001938396328902 0.14220128809281962
Ni 3.4699428447274157 4.700729547484234 13.03098095501852 0.32672370555135344 -1.1765519761130767 0.444121561447248
Ni 7.3900074139859 6.8775322566891965 0.9051831487245292 0.5886697525056894 0.5662085952886958 -1.0008422718501666
Ni 2.5828052932188648 5.35571616100154 5.1750135775121695 0.5516222128340886 1.5019883303115744 -1.0988596663369206
Ni 7.009796264858279 0.4580562572338596 7.32749050780103 -0.2037586399803265 -0.2726102115364015 0.13354541219003452
P 9.12571213140161 7.7295930830988775 10.00483574883231 -0.40202720338035924 -0.09014467660689637 -1.0700268012656282
P 5.8158798241428045 1.7046914744521267 1.016531900569678 2.0973218679906847 -0.25498709913799955 0.8115579142266153
P 9.565250119704443 2.881475900831695 12.347217414912778 -1.208575323097209 0.006883100273078468 -1.2551721970201415
P 1.096757181659989 8.467979164441141 6.124204704828785 1.0894306597135366 -0.5900290947470613 0.28117404194601253
P 3.6678858020763 6.304637323642962 8.305940574759372 -1.6037795900184637 3.792836619031616 -1.3037951002341674
P 1.529475993046132 6.4284661033794785 12.930232753810444 -0.9425311948140993 -2.264321703184423 -0.4859426112480921
P 3.4793308896606687 8.514685855651354 1.9071883341940068 -0.9626223091370196 -1.2811668213116905 -0.7953522510010302
P 1.0336284178202646 0.9916577850987668 8.884881221915858 -1.7111262323259433 0.24744193980089002 2.459297197655481
