# total energy = -340871.1828611226 ev
CRYSTAL
PRIMVEC
9.23644647210182 0.00000000000000 0.00000000000000
0.00000000000000 9.23644647210182 0.00000000000000
0.00000000000000 0.00000000000000 13.51847304623847
PRIMCOORD
 96 1
Ni 2.1047182601445478 4.9512062880697645 8.019077156051189 -1.0593145570544467 -0.6551479387335813 -0.15512133858859736
Ni 3.6415890367768164 6.98783346591869 3.7722487301113383 1.2832152192002868 0.027923722993461585 -0.4214881403184483
Ni 7.728467150801588 4.088910132215904 10.365978733372097 0.1559561757850669 0.4226960445836205 -0.8686364044071622
Ni 4.977631761000823 8.93391576045997 2.4897108921491427 -1.0343725423971284 -0.676983289441118 0.5870324740125825
Ni 1.8828403465654076 3.117374525695969 4.669212963595201 0.3397016058682601 0.014659144674071527 -0.26893070580228523
Ni 6.582519728358127 5.4143586525070475 8.913864359136642 -0.4934615453329566 1.6677506935537858 -0.029070435003395092
Ni 2.5369377658449848 7.591915528357411 11.500962494029759 -1.0318562037331778 -1.1890274828722682 0.11678361935066339
Ni 1.0429333365993112 4.031136160463448 2.4762866410628086 0.3794068948776821 0.8342748962081568 -0.37388750772134965
Ni 4.367093422582092 8.022795749340963 8.088494592038842 -0.22552328535092772 -0.6361667696453883 -2.825644174025411
Ni 8.59384827972744 5.750823919173476 1.85622183190619 -0.8469311515195865 -0.3158949903669656 -1.0776791756045634
Ni 9.141606492486467 6.938714044371197 11.415052459487159 1.024904712116009 -0.34963814825568174 0.08477467054423465
Ni 8.282487674167836 6.020029383713382 5.512089491054249 -2.3917718011099973 1.0483991956935235 1.4048875341018192
Ni 3.20773468007715 2.7014758206488647 8.940157750885279 -0.13761161183960816 0.9732818457333947 -1.5124195529472275
Ni 4.930562830537111 6.364364102647291 1.7199556156534042 0.07789516981558198 0.3264665952352248 0.5591727714878371
Ni 3.0874946218399817 6.358720633943733 6.469130342358976 0.5729978502963874 0.9084391382263969 -0.2860061732273332
Ni 6.015032466252458 3.643251597115017 5.090029152664848 0.12325225779414258 -0.7210067462099196 -0.7281685540656814
Ni 1.7090658454381928 7.7066506645858714 4.704050068192921 -0.7758100672030446 -0.057661616377526495 0.2733018382867874
Ni 1.336587674557084 6.3629786356987905 13.109363081923828 0.4452919276062654 -1.3517952822625299 0.5897460162890037
Ni 3.108747684829974 9.055753723911074 9.70789948208253 0.12806022070574719 1.088937522127202 0.24478856133844293
Ni 8.153759321759523 3.6142214463207765 0.8324956854362527 0.6892114560761937 -1.8896320112767522 2.269496305406827
Ni 5.588751995537924 3.253981566818086 8.29528661783808 -1.6051654146223968 0.9507237579272206 0.46833081170359986
Ni 5.467486691758867 0.7721447451595853 8.64038611452756 -0.7935928451077623 0.7761301695466246 0.4331339520874927
Ni 5.108872426809083 2.674921037469278 12.458002421689853 -0.7686536586639214 0.4165079134950375 -1.388225500065106
Ni 7.142737907207333 2.5884494269902207 6.910629705680466 -0.6994184785161826 1.774722726130666 -0.4609327194673159
P 7.766161088247116 1.93043575446955 4.758556185236183 0.15435592117748256 -0.586733454714925 -0.04008067007096968
P 8.779177575205146 8.519171611203282 6.1719532237734835 -0.43782904357031693 1.2087283037353054 -0.7888108503380866
P 6.831792941732277 1.6093306980388273 12.722653394547724 1.560127657656468 -1.1676719000146276 0.14527298503960787
P 2.1390870769136754 7.916983020260844 7.743165107835909 0.45781937064931477 0.5244999026959999 -0.07234338675941734
P 1.2149067306934758 0.7974184332341255 11.425920985875827 -0.09483359744213345 -0.7373245095333366 -0.08703775554679849
P 3.3891661952064087 4.934063443693654 4.734263407761182 -0.9951043409251249 0.38190497870918744 -0.004591733135740479
P 6.20118380545294 7.786656762638595 4.066018523648153 -0.15574688798773823 -0.5064990952432051 0.013216755800590143
P 1.1544449530609282 4.319424123107363 11.984572663428596 -1.7273437226260704 0.04125977798073539 1.0618195828644874
Ni 4.5879645635119894 6.931214049956649 12.382150877193366 0.48028387030041797 1.1557730916945128 0.011241891462406445
Ni 3.4030023917987635 4.899953247421581 12.09892541077927 0.3487801711307606 -0.14153691503594334 1.9374103071022957
Ni 3.6877620319471656 3.552383438186052 6.4059179510113395 0.016212605204120465 0.15108856328012044 0.5189491480810998
Ni 7.779784846574034 0.058708700120378536 9.583935288687794 1.2925210699822451 -0.397781797840444 -0.4335265595402212
Ni 6.739151385109233 1.9528156639109895 10.411657578664148 -1.1340231016119309 0.7563028504080523 0.4492434560548456
Ni 2.483772780807871 2.8221315189705827 11.186225043694343 -0.2449430846384362 -1.0473535280378286 1.3160785455872108
Ni 7.041063106080067 7.718159276704746 2.0098322470649332 -0.24282783806764632 -0.7809468742089777 0.3164403213474744
Ni 3.72644426914929 4.348297254314106 2.6517163133711645 -0.16844993737670344 -0.7054927097347204 1.093374474852633
Ni 1.0449838276830914 8.006668914060421 9.657543300372343 -0.8624608717240695 0.06604546956584753 -0.4620881732279978
Ni 4.8877334289358085 1.8785915812566736 3.215922789742786 -0.3228791349942826 1.1456928246403753 0.8979989167296794
Ni 1.2106117831531251 1.3111135555973275 9.136906064952523 -0.23408403043674525 -0.5308680110058729 0.1605787621587428
Ni 5.309524986737202 9.183299811189999 11.116862102739997 2.330049384399535 -1.0680385671910058 -0.6054641983552088
Ni 5.0651101441291235 8.36764770926898 5.821189938198534 -2.1934255903944933 0.8398444198761342 -1.9221356403314118
Ni 4.299898275579834 6.974939386851315 9.997951605974203 0.8698769616824825 -2.237809258716191 1.305107391287688
Ni 5.630149747959111 8.993730986849883 0.25509494549174827 0.48649334154523954 0.6260438222787734 -1.1439583584477717
Ni 3.359406365152625 0.27302658238386984 12.131275140382117 -1.1234227003882653 2.074375029386524 1.3017754987009773
Ni 8.67531373629925 3.8675864054161644 4.387825549999449 -0.3984371720362558 -0.4665559791913643 -0.24255530113255003
Ni 7.018193664983491 6.956540385775233 10.984961954664254 -2.1407269744491972 -0.1392355205962763 -0.7185996794303237
Ni 2.5426828354580984 2.097310630193234 2.4913328121235203 -0.5059265105691868 -0.811369709475209 -0.15634698346558235
Ni 6.9368944644455 5.532215707592795 3.4190110005663676 -0.5369841512059397 0.880606946505477 0.5506341378892066
Ni 3.649255287225184 3.04646632727173 0.633447496234498 -0.6465897647509251 0.28049732759396206 0.09300194355003338
Ni 8.285988287324379 0.7057947329959122 0.7765025005349345 0.11620203581558051 -0.36692470325027127 -1.5594846247558305
Ni 3.2925529666643305 1.1647066449261527 5.2849929853024245 0.7372797723383303 0.49693819102764736 -2.1834185997804525
Ni 8.98242557655012 1.5470862862658765 6.913982535695837 2.754263665399895 -1.9496932382347063 -0.7741064542483765
P 4.235492535367222 1.699737034651625 10.461594425711255 1.5142180396085472 -0.03779238825742523 0.5225502351687968
P 6.871860645882903 4.947724147805866 6.858975803261851 -1.3847380557371376 -0.851826789048991 -1.1920253891583277
P 5.883607071517731 3.856327177348019 2.735449317515353 -0.3729611392523383 -1.2916425240320337 0.9495960720806806
P 2.85248248158906 0.1221076676837463 3.398990079515907 -0.14555786326987835 -1.125265924244591 0.8510336037237344
P 3.7235070792184697 0.815341757324556 0.6717852139887625 -0.15520747054450046 0.5367612365618563 0.6240967258547316
P -0.021330649139108617 6.069582918238071 9.276470616187371 -0.2863026214218295 -2.228757175816252 2.906012487971834
P 1.6898448006393338 2.459240779373095 6.7754182915978065 0.7762463834095148 0.05147117129609845 0.16156323755919916
P 4.0068535430794014 4.919830079909397 8.8529370646094 -0.053559421283694855 0.8165592240959485 -0.9063922829996971
Ni 0.09074623783749645 6.986189378473137 7.495168371343643 1.0477587338960472 0.21537102740827424 -1.448493700827544
Ni 1.1015201156282217 5.1062123302679625 5.656710073006491 1.8806133527179094 -0.03888973508666206 0.3458527130713205
Ni 6.867353260077115 0.2635906288199513 6.769240032652127 0.7878888527444496 -0.16074202720948447 -0.32379830437444235
Ni 0.7694430846100101 3.715609917612019 9.652297922505321 -0.9140009485848903 -0.61942271741783 0.02569149122883317
Ni 3.392971611091623 7.775268224321923 0.7065511979497933 -0.7253791642460024 0.32503680476723373 0.14699742392988233
Ni 7.930865399084816 4.6511049105783036 12.59276863905973 0.39085601725488817 2.3731649846420875 -2.29814250838861
Ni 8.23782021974819 -0.014664705827558131 11.972500628084 0.03966569402073814 -0.8328296791211979 0.03625641122887304
Ni 7.354751296113151 0.5399155461858839 2.801717125306749 -0.00303313039936897 1.5830603551932414 3.1874287278356395
Ni 1.0566586958357862 2.569782568970762 0.1793523910618763 1.067159249909846 -0.0367703747508141 -0.8962078862675276
Ni 5.0907505191227 4.2029894807554085 10.452577806810416 0.5307754512920665 -0.8986252374597686 1.2689440539932533
Ni 8.605883369286746 8.091302471721136 4.027477604074774 -0.8855540060981071 -0.643260443267376 -0.10972182740787555
Ni 8.790418330380644 4.490169069840524 7.57553561444761 0.607487656543141 -0.3945373227612173 0.43044072152604573
Ni 6.471820919172963 7.112821057566053 6.955538231349151 1.6304002779297855 -0.3877238993838097 1.768778078511457
Ni 1.9992657524710384 5.494531006593591 10.400302291554238 0.016582586949029504 1.4687966740509544 -0.8544832528352315
Ni 0.7730369858744194 0.26828366719683755 2.506324488150925 0.4786910718920014 -0.42605853329795007 -0.9165301427646474
Ni 6.020805245204541 4.56899290276386 0.7352045017340414 0.012115295206295264 -0.7767078964269656 0.46800273894021976
Ni 1.1208427613366374 7.117448517174043 1.78841246122343 1.159604035404829 0.407523193497924 1.3545867289647382
Ni 1.3313044272601364 8.873490928612714 0.08845744643857419 -0.6445087138521803 0.8682887912597562 -1.0594199722840592
Ni 3.0470851691753937 0.6588080069044775 7.360065023682966 -0.5902432676403964 -0.014279906957781857 1.911343691922231
Ni 8.753795820708623 2.3446072440541905 11.726599641262498 0.9497439105124547 0.48741533913887664 0.5529337325566607
Ni 5.27872143824888 5.861615092821872 5.331360869490196 0.24074730138953376 0.8649155039121492 -0.06840445671632736
Ni 6.682144038401613 6.849591573797343 13.458504447524398 -0.010946985929806953 -1.1144793751520483 -0.9422897682272545
Ni 6.3608819623833925 2.0839177830243987 1.4061104060328224 -0.7907204086559737 0.33551045060504797 -1.3701519303928467
Ni 0.7760748530701642 0.717785487612865 4.694978954258774 -0.2994085626761682 1.1975038957743958 1.5845449101585678
P 0.2430690923787668 6.0500940164958354 3.858617816036207 1.616476468759842 -0.49716779053995025 -2.241018509682108
P 9.230525761241209 2.2217070892759025 2.013698623495881 0.38528058004963966 -0.0807848326585512 1.3427748239314745
P 5.7501866043771654 5.1508982575802555 12.29468634873455 0.33110743644134594 -0.10909884911189599 -1.9269860264451781
P 8.526847098097972 7.661493678511089 0.4286450009733059 2.6755069189149663 0.6380112790532947 -0.49225646928126193
P 3.033396755724212 5.331008960885277 0.9284226460165075 -0.5508963904116577 1.199185911462509 -1.0782777284205107
P 6.259428835967887 7.948497775116062 9.043371343970012 0.12380864451824485 -1.2691561700040594 0.6030856708207033
P 8.467004162369088 2.2052477419277206 8.909146382354683 -1.3286381274197763 0.6168300169899893 0.7437023880352224
P 5.05795189822854 1.7730651820125773 6.627106825694759 0.08428461828169356 -0.525309800191805 -0.2744495787379854
