# total energy = -381169.15162002563 ev
CRYSTAL
PRIMVEC
9.24591472675911 0.00000000000000 0.00000000000000

0.00000000000000 9.24591472675911 0.00000000000000

0.00000000000000 0.00000000000000 13.53233079399245

PRIMCOORD
 96 1
Ni 3.1358075108138945 4.690221476394693 4.0587116204586176 0.48155656636525457 -0.6887052058637364 -0.07010884100194378
Ni 0.46398774698125245 1.715413081579932 1.757958158951437 -0.7197656747139668 1.1589517465328105 1.785046219543861
Ni 8.12091819674608 2.4758248599706048 0.10732935383062936 0.7460647176198119 0.04858330822534214 0.09852158781668194
Ni 0.14346886136556392 2.3251904145644207 11.01254294446838 -0.23344665396306247 0.24868815350316525 0.6467707704134797
Ni 8.538768828420626 9.243871543932599 0.91568952225518 0.13351353051083456 0.1409897842832217 -1.1146035594347385
Ni 2.6844311917441344 4.637223892238771 11.137947137319667 0.23702845777704984 0.011434724199502888 1.0087622980281916
Ni 3.921053816602125 4.6902492141393655 2.0488623791708567 2.3172913134029187 -1.7805321337235915 0.8222310776697452
Ni 7.601057386077769 2.6163627663156825 9.272637434341862 -2.2441215740874645 -0.01605448235970138 0.8722783720351236
Ni 2.0873300080753765 9.245212201591812 12.18800199313861 -1.578858401296752 0.262833848875928 0.9953321406652148
Ni 7.660101798572484 4.591576810421295 7.265873554853269 -0.2323253958744257 -1.8874018363946525 -0.32196305093791644
Ni 4.320828684664525 8.657985655026774 0.2669240153578018 -0.7880994260933589 0.6802267360790801 0.36292663783447177
Ni 3.1974037958185595 4.397726958813999 13.429566559505908 -0.7376479543110264 0.03560952167349351 -0.5154671030697703
Ni 7.8113372284465905 9.19524727752018 10.047484859652045 0.8351269597958069 0.10287497968937122 -0.9942491920136812
Ni 3.4873649327190845 4.880613355832708 6.270057084968634 -0.7846757451237905 -0.01802189049871735 0.37307761022554453
Ni 5.151897744653164 2.8301005808537854 7.985631970059162 0.6537109491767387 0.19906303427687005 -1.084080451145217
Ni 1.9571475264083569 6.917488406347223 6.789968748168847 -1.1082629619286912 -0.5990274415909297 0.2363067491196769
Ni 4.275357275229979 0.22863575720217016 11.681148335539133 1.7367609021749124 1.2639779682372296 -0.32169874153293626
Ni 2.728182861008931 2.2937543039346004 11.181778321452528 0.23726551348852037 -1.378994468385141 -0.2867268534434416
Ni 3.2929233425587565 4.51318994397435 8.892866103146408 3.9539866803127968 -1.28203019775325 -0.9860707699679468
Ni 2.9674394006465348 7.706876882006677 10.743696703404712 -0.5011368024900273 -0.8913130200690714 -1.3628263432657108
Ni 8.36508431719087 7.0418182238881615 1.608060612962075 0.1042770022432204 -0.5974323291896678 -0.005743844462312689
Ni 7.076240765027815 1.697439023031588 2.295313165185244 1.1660364212937337 -0.010589345480072085 -0.8664756493104175
Ni 5.214668260849001 5.71532530628845 4.529961108995359 -0.9028066225309677 -0.9708904626830828 -0.9672970889048697
Ni 5.7874896720136695 1.4964328332985621 0.3878578083592304 0.12639954517387264 -0.4714945541435621 -1.1666113199605974
P 2.816952889878608 8.646308064519284 7.7172720641187675 -0.565807246085219 0.2791174165273 -0.5607809965152213
Ni 5.981274802216727 3.0579291696859605 5.409941983349531 -2.37895330918909 3.2872209548346296 -0.36733633686639316
P 0.013040438362440636 3.0958466666544586 6.072836172792035 -0.34664795527910625 -1.3434250559209637 0.17425960207994504
Ni 7.849106790776831 8.829155277406144 5.810972446654144 1.676942644465699 -0.525107968593644 0.3104704769172847
P 4.415479115404956 2.7986737161388566 12.628898992270772 0.16091300556970997 -0.8529112803624216 -0.09658220470212399
P 2.261171699858281 5.746400826237516 1.6804579757425504 -2.2048865398462416 1.402412075978133 -0.3478520028895364
P 6.458992732811298 3.541851109172476 3.3207526217895493 -0.0871089751043661 0.7980398251355224 0.09352901969809697
Ni 1.9442679669650218 3.3082623153631308 2.6555034978242764 0.001448559521068473 -0.22394231401705303 -0.26675966629289544
Ni -0.029370573243143027 1.9784686061472878 7.927496430998244 2.2812896984973294 -0.1928103684989389 0.4582263762797463
Ni 3.7429497580544124 2.103972654879399 1.2161799070337165 -1.4180302421313644 0.3430476395223576 -1.7700340624057451
Ni 1.9596346775140692 0.2799376405670582 1.0256262240851062 1.3977226409222638 1.875649323844415 -0.6225322095810891
Ni 6.32437221199654 4.885097624554903 9.606358561830586 -1.203328729986289 0.13142682318513496 -1.580368153073059
Ni 6.368974505431319 6.128774882474821 2.4854424606403516 -0.024050870301616643 -0.35345366534703 -0.42345426290588356
Ni 1.1109429037429486 0.9195598622286042 5.819389927571024 0.3520642411986711 0.46856452498096074 1.5203380364633559
Ni 0.7089222029534952 8.37281390203985 4.435018507344368 -0.3547723841584535 -0.29819577331498964 0.24393572641984443
Ni 1.0950676678748894 5.965316353114647 12.418633943365773 0.03461604741197265 -0.6452854441172048 -0.6231191924328108
Ni 7.09900420748976 0.07284301587822768 12.377874252159744 -1.0971164583935686 0.029745092472916512 0.43110149503849626
Ni 0.023544722270246086 4.687863768097456 1.4397452045095946 0.7880351485143268 0.18274090007807883 -2.120852861233089
Ni 6.102581205588268 7.171695590363774 12.291497066063892 0.49126428057132177 0.2986284899770341 1.4167246359460632
Ni 3.656010420333178 0.48935206530207165 9.300134785228064 1.1291855710139713 -0.3293678280424198 0.8298181459883838
Ni 1.233340325071642 7.556399617153642 0.6339480036928635 -1.1290392752440943 -1.735131336991289 0.05184192437195588
Ni 2.348416152770923 2.9078679710030255 5.0908497424015415 0.19965104556985616 -1.7596545189436337 0.7816845237059504
Ni 1.4298252624229082 4.272944091443396 7.5990399274485245 -1.4777880789162874 -0.13638236741819737 -1.4891839794580546
Ni 3.1008117229509913 6.916221716007139 12.96490663451207 1.114536710752545 -0.41028532962409336 0.015978377706127322
Ni 4.24285788438768 7.44331283212031 6.07004852945236 0.8263080759525961 -1.465865359336772 1.072065943182844
Ni 8.721116761903364 6.654590062333016 7.775880069430621 0.9370133503196637 -1.4753853830120656 0.15729443498051618
Ni 6.739495298778204 2.3658169645960174 11.779948332882698 -0.06866825190067528 -0.007138925037626415 -0.4372441176011244
Ni 7.552867677665232 5.581916000324428 13.395018273923734 0.06575416357767384 -0.1040898259330788 0.77210587887858
Ni 2.751778435811078 2.121299499385364 7.908145655722611 -0.7289859077606542 0.14977704355754848 -0.5099947671012894
Ni 4.64963191002266 5.9704755736238955 11.17068229899169 -2.5941651853116805 1.6306126510509078 -2.415143643066718
Ni 8.673583513448099 3.6742063808389087 3.2886813168067093 -0.10370467467951816 -0.6917679039494602 0.4523616899688532
Ni 5.013671317030867 5.780018972781641 0.4866957139538518 1.3485646911403741 1.6557963494053871 -1.7936763844150334
P 0.5723591154201114 7.285577524077742 10.344912072827153 0.6706473199207612 1.4361984283999587 -0.5239057207554267
Ni 4.090411239662835 6.96025076271867 8.482606367597475 0.07087862928843278 -0.2234131809864604 0.49657206593748027
P 5.098021798582587 5.106925614622738 7.533232128210953 1.8433878927075478 0.11326197935065009 1.02370323560874
Ni 0.831570188575738 4.753250878207481 5.091864019265098 0.03357217952849057 0.7150309882424588 0.3668694245323037
P 4.900556794252862 9.272728044307794 2.467133699972949 -0.04881573595112238 0.820181137119252 0.3604061854054632
P 1.886055686810508 1.137099596969937 3.4793108162574264 -0.22352502397397636 0.008159138772024658 0.1358154391711338
P 4.171155814407017 1.9687973791711724 6.116695094669568 0.03346187920287141 -0.4770051995491463 -0.08828448346970601
Ni 1.7113726167725112 5.802403332733051 9.471643732683939 -1.0200227014333594 2.3596978033935874 -0.5520454164144364
Ni 1.1030191546812558 0.35036839725019175 9.757934241372688 0.3682405938482174 -0.24434787425659854 0.7152446469151618
Ni 7.324160726918401 1.9541148663240684 6.612180899910411 1.6767415841984865 -0.9175256739086973 0.9794218971928615
Ni 7.678473431461145 5.532071273146381 4.3083013945785416 0.40927874273645 0.35789344628593844 0.7220981795018854
Ni 1.715773672260686 2.44319602631983 13.342499628159175 -1.0334965675500782 0.3018845350204865 -0.14577743547985217
Ni 3.313698913319111 9.027609594629219 4.945038890794057 -0.6817619417766838 1.9807624488356852 -1.0390313813253782
Ni 7.878323881832781 8.696522628292977 3.3778184084975638 0.4199400791050381 -0.016560475461842448 -1.5475025126932898
Ni 6.869446632572946 7.884638841703419 7.949568279026333 -0.9514575507694517 0.8898804013876028 0.6760026706954035
Ni 8.888837658028345 4.708528387879117 9.276981165157713 0.20008093401842317 -0.6505348654416021 -0.24452065238903695
Ni 2.2511306362865207 8.147592661206973 2.7496074949946423 -0.34597381203021704 0.7136307654608226 0.16315217931287385
Ni 5.5283451694452586 7.959826621598035 10.1992768936026 0.3600583151477412 0.8157629534468983 -0.9741693905446707
Ni 5.741047441515556 0.187915823430173 6.326648556242734 -2.2021562853992718 0.1657615919112629 0.7565769300050454
Ni 0.24792088648207564 8.750888607852783 7.79578652419121 0.5145980702012557 0.9559844921055279 -0.515016645795913
Ni 6.484613162974601 6.292741937154005 6.2490411204211105 0.04724582036084121 1.003420316989988 1.1972910084326411
Ni 6.370888409813782 8.396871772586554 1.197106509204818 0.8604739232010278 -0.6990636662799251 0.31382782342529175
Ni 7.8740800068977554 4.533725120947535 11.259549409967724 0.45927281526638963 -0.3974537250770639 0.7184065895829111
Ni 0.6371628083005072 6.135875745111203 3.222251267496965 -0.29150730555122056 0.4505919996629401 -0.6981954047423589
Ni 4.2067063571633865 7.193839556528014 2.1428443302646603 0.35350354474835893 -0.4722543151277221 0.9456250032480747
Ni 4.325340691131393 2.0464908020012835 3.29731515213204 0.11435058442913854 0.04850823201303259 2.239010992333776
Ni 2.515794950044932 6.658436362927724 4.425248349078918 0.9117124096610298 1.3448957269292194 1.5724702383822209
Ni 8.76575603899771 1.531382391587009 4.21218178796191 0.4964201137406482 0.016321877088475118 0.2381934246194285
Ni 4.955181659429619 2.980023090813354 10.299145718707582 -0.7010737547314184 -0.31716485821832474 0.11847771922363465
Ni 6.434213680903087 1.1729552549177142 4.354473644361834 -0.4963926029368225 -1.6651929601289386 0.21086876866254653
Ni 8.593634087384553 7.460824594924097 12.046940768010696 0.4199855876309928 1.4213068560001072 2.7005170678060586
Ni 5.699228168463003 4.5034447496791055 12.107417372722045 1.1091947297143414 -1.9627367016822261 1.8229432516999509
P 9.185243197607985 0.5163501367841524 12.292566818416793 0.2638610045888617 0.2691788172573493 0.2818240168251856
Ni 6.119621426732609 7.902159850422097 4.462340185847638 -1.4291322655817966 -0.16828795787754242 -0.5851208588121665
P 5.960906051711582 0.9861322986276719 10.231457300381154 -0.46209691497874605 0.018707603711832294 -0.3339621322813216
Ni 6.106908293757314 3.8297873907118447 1.1910476611766647 0.3172671881241439 -0.2241598293444978 -0.07906347909207029
P 0.11860567163184361 4.111177564508298 12.706114401301011 0.18211303668609283 -1.077639066395247 0.9099720299311553
P 9.155009055914011 6.7381731329487735 5.65819202440173 -0.4281786649647465 0.31078877948865186 -0.19860794901732245
P 1.5421816201798415 3.3446172527150284 9.636021305984288 -0.4592401622562413 -0.0581346993592031 -0.8822401112335257
Ni 7.740735422337972 6.731053778482607 10.179682026173841 -1.2815833400238186 -0.4896599121986793 -1.7519988021705892
