# total energy = -340878.4384179843 ev
CRYSTAL
PRIMVEC
9.16382986746390 0.00000000000000 0.00000000000000
0.00000000000000 9.16382986746390 0.00000000000000
0.00000000000000 0.00000000000000 13.41219130514972
PRIMCOORD
 96 1
Ni 5.384959739346897 1.5349415218037907 3.935069556362003 0.3147691042926385 -0.9303055992821849 -1.4124782019648834
Ni 7.870465345071327 5.2150440038407115 0.022211291107749418 -0.6283143634805051 -0.08512819722891145 0.9358869500247045
Ni 8.157494827733645 8.881364085586332 9.339539089738274 -0.16447578322030385 0.9454802501400942 0.05712348448586937
Ni 3.5137972955432186 6.6612246684493295 9.0514319406702 -0.6778487227652068 -0.5159445569268211 0.031457704288649045
Ni 4.728902823353004 9.292490153850245 1.5520586398251477 0.19696372854568014 0.5826852527874803 -0.34049196298003936
Ni 2.2589299094462296 3.7171335189898116 8.46317362079013 0.20881420012636295 1.3659959992429442 2.6635641447307936
Ni 0.5450398649240633 8.464684736353984 7.434243212021673 1.302314659033899 1.107374645786467 -0.4186347300300532
Ni 1.4168105895197747 1.038005349598561 3.511070139740897 0.3911018147171071 0.7528783981075355 -0.2874470194389179
Ni 7.940541152935408 1.229584379179636 2.9346679830901397 0.7438556257836351 0.7575531778753857 0.6779960469763484
Ni 8.15524052555834 5.0880791394550915 8.724456406738062 0.9767320090655243 -3.238058634177365 0.5834509273089112
Ni 8.17441125787842 5.736172687195566 2.510949896049448 -0.8544667977749993 -0.07885367707410935 -1.831395496232362
Ni 6.948006727702163 3.4107408635778134 6.581094306330185 0.1055072751058957 0.4554930365089833 -0.4042470938498135
Ni 0.054048269227455266 8.309852664996392 2.6547423014290294 -0.6220688967914254 -0.08436098004558373 0.4519978788715312
Ni 1.760729128703633 7.853576406416495 4.378557690203528 0.2567488190241127 0.4173625481858489 1.118739435979983
Ni 2.726981689551605 8.772287017323464 8.764773593122108 -1.1610261125633359 -0.2876948737836658 0.8611292973968394
Ni 9.546328244321678 5.813552067554439 11.814947071206731 0.4169511716800432 0.33130849670855844 -0.1080027878342398
Ni 7.557612189522781 0.35548695815176934 12.766475190041364 -0.6290311870418716 -0.1925789692144232 -0.8383099855094788
Ni 3.6724506840028543 5.50226592693263 3.8555357595746167 0.01771772899473723 0.07035978067048526 0.05111558772889262
Ni 6.839699421157692 8.014951452380464 1.2435005713886582 0.44082052209847306 -0.10768499948350486 0.27863559179487496
Ni 7.905342881978702 2.383283082287289 9.588080486480736 -0.6867285417533399 0.6258227074069028 -1.1479731360341199
Ni 0.4380429860668629 7.036428523188042 0.7845283140283764 0.5141944070049338 -0.828313022197767 -1.0001406177974517
Ni 4.073148313748482 -0.03189287748258945 10.71485219157246 0.37464649737456124 -0.008542233143056256 0.7085430665252701
Ni 1.8775771247903204 3.785541509797366 4.2683360595760425 -2.046605829693056 0.47852934950315645 -1.6706832938195484
Ni 4.684888947954654 6.771465543119775 1.0900274960172354 -1.5794525832373252 0.026735359112315244 -2.1587208399234563
P 7.132996963526958 1.201158178578828 5.265049191280586 2.669287677478132 -0.5336489161851196 -1.6083821217874816
P 2.498005069818403 5.64229841287104 1.0901667862329454 0.1306917447913233 2.7295594777849956 -1.449255261583917
P 0.056831324392660115 3.2790382990920572 7.735508704559348 -0.4300810241937819 1.0144680901637173 0.3266080059090956
P 1.2270643259348835 0.8522096131184436 5.769737047266675 1.306431766526066 -1.2076970342573137 0.512579239999014
P 3.4298566129180084 2.226416640673932 3.2494657033606362 -0.17632496924940602 -0.7050196267530439 -0.26858154999298256
P 6.820464542027744 0.8468396087496255 10.675205797543015 -0.41771607487052576 -0.09249877866136974 0.38222842348687724
P 3.860968994370303 2.961007579604293 12.489459940782194 2.056993086464651 0.3974544964080123 0.5475989506073086
P 4.634286278800024 8.264519198080789 12.694853444059502 3.190981221073588 -1.646188651112294 0.520259125141775
Ni 4.450285736613169 6.773023394216531 11.258984837328411 -0.1172171073436562 -0.9593007009629544 -0.3893339241834069
Ni 0.8162672391672864 4.150399400487622 1.337735900614432 -1.1125070819170257 -0.29489190575273727 -0.744499430015221
Ni 3.8141051678478877 3.3038722783403456 5.078378309037292 2.615116076531735 -1.2188083136791268 1.7177907888303126
Ni 6.86453340040598 8.438576984738349 3.6122653978371786 -1.5340988376928741 -0.823822076305949 0.3303998688513601
Ni 3.386016850289296 1.1151281427179682 7.287943582759313 -0.7362420751024352 0.38465991574650527 -0.9387485878432155
Ni 1.1149082107984263 3.8218119488618396 10.526102036306495 -0.8246635983706379 -0.800968311636227 -0.13633428778908133
Ni 0.14049709211844286 4.614153344331947 5.9550260239488475 0.605960421265337 1.5372330124464815 0.6970088406334254
Ni 3.018748872314058 0.04591720288538659 13.092511431400458 -3.2767974455084596 2.4023202660498044 0.46729182891612425
Ni 5.050223357803919 2.6341062726949995 1.1756039222940395 -0.5417100959266994 0.09018658558842532 -0.5199014846920401
Ni 5.815934663349477 7.6926870434415155 9.349638546760243 0.6725995585511254 1.3844171820626092 1.405893092548198
Ni 3.4194190105697424 4.83166601275902 6.872178783759059 1.3266190401072184 0.5183984177839523 -0.6274422452881968
Ni 7.408470856583339 4.270729651967058 11.032399060837232 1.8389825645510005 -0.2397504846939032 -0.44094984858748576
Ni 0.9072109206639144 1.6380987558989863 8.933887493504963 0.7090482882964627 -1.01041808846406 0.32079679854395715
Ni 7.179246813440653 6.10451283327857 6.179010189108445 1.4797858260726062 -1.0900125003589358 -0.3665233540467946
Ni 0.850328278823361 7.363219864137565 9.854621478071719 0.5390952840116715 0.3638910586302701 -0.8013454924699878
Ni 3.686627128983335 9.279935706776387 5.039792170136639 -0.453914893388586 0.2693173997177426 -0.33268635089269155
Ni 5.428717027505781 2.5855013184762097 10.906163637318091 0.385455157954291 -0.7770591091187972 0.008386938512114589
Ni 7.739514214644006 6.963924300379017 10.87630787924026 -0.6552620957139424 -0.3433309750907313 -1.5876672578376336
Ni 2.0155294213230626 2.0720610884753468 12.26569020924415 0.16196947185868232 -0.09351153619660024 -0.41953075948176133
Ni 2.2328221578305936 4.481873458557393 12.63451237278415 0.5475791531129667 0.14163384562512382 0.2720103731688735
Ni 7.290981392397987 3.3887018524737047 1.88288389873227 1.1906778739914976 -0.1877445239402573 0.046466261882339335
Ni 2.567705160653267 6.981454707132515 12.67308568232283 -0.45341892758877395 -1.1532431261838074 0.46911576949874045
Ni 6.891905760558982 2.8467437835722245 12.8723504161089 0.6234516360715651 -1.1412545863633636 0.4824394831908401
Ni 8.694687705045048 8.657959074481528 5.044231129379396 0.5676173027107645 1.2384445998528157 0.48053583841022407
P 1.2653599714251407 9.16380248942821 1.0526464007590741 -1.1622227039745983 0.6021184218114276 -0.5956646957662838
P 6.7517816363207634 1.119187719399515 1.192295838604282 -0.6351252157547513 0.7165631086162692 -0.19778211068191745
P 4.468457611465329 2.910762299818918 7.963930912578704 -0.37483907300134156 0.5987389638162334 -0.1551560484812747
P 5.021430604003873 8.469074210914844 7.431105516636206 -0.29905555021212366 -0.016421635891133008 -0.6437440677720139
P 2.177912488584932 5.935540972260421 5.238707762000437 -1.576669364065233 -0.9066226538429484 1.6394315348941184
P 5.971930541114647 4.983556494692738 1.2367019259258152 -0.09191925200881589 -0.46799708251326494 0.029016956057640347
P 6.026427838011167 5.62403489971907 10.298658525329099 -1.0997286992054351 0.5049381785139884 -1.26392680328432
P 4.402166465383368 8.064307840657689 3.291217945519696 1.403701484213518 -0.4570878917999289 1.4720648032792647
Ni 1.9128670340468363 2.896732476118133 6.536109981336856 -0.7076573214862072 -1.3898316682099614 -2.0191449052686257
Ni 7.559243351259385 4.312177654970751 4.3412984738841125 0.303115064993478 0.3607440283608561 -0.15059414014220515
Ni 2.67592999272791 7.930854984645578 2.0932808531791607 -0.3966250585281815 -0.48204173353178925 -0.7290185607708025
Ni 5.6611025919918845 6.187179743536434 3.0347095149918233 2.242388907667074 0.7101890867691253 1.0895242478686074
Ni 3.285691239658204 7.325849765475381 6.655719955779792 -0.5203506564143168 0.8329762320013914 0.07054258610525271
Ni 9.156645538213114 1.8100671893208964 0.4893695977899855 0.09719181326166487 0.15085844954718536 1.0403087053759053
Ni 5.52991320198506 4.783106877690134 12.386615193289348 -1.016628588150146 -0.179844038146258 1.105223146661103
Ni 3.8981008334529834 4.320196006204054 10.529482573186455 -0.6866503802172368 0.5325996489849989 -0.2802350750715109
Ni 8.180129487786512 1.438290606995047 7.278903464483137 -0.08032203408951973 -0.7182836908518017 -0.32199364706553574
Ni 1.4523662498457373 6.148939081026062 7.637357670782727 -0.6538618729323061 -0.4824754786350981 0.2670995661308174
Ni 3.1459428324492023 3.896139773837067 1.8798799952645253 1.0383112153299021 0.3585585906737631 0.9410317274504373
Ni 3.2484677622757148 1.8775496333003778 9.632207076987852 0.2634653118123398 0.6145000833052321 0.4719028453255744
Ni 9.009657705319187 2.4637140180298074 5.095559573868515 -0.5079322281453059 -1.0660824719058997 0.1353593254703217
Ni 1.449607937021481 5.9966362267432025 2.882856604761027 -0.6860477136362314 -0.40560746453244984 0.8857249844583327
Ni 2.446724277245185 1.8483811624711153 1.2145263737549914 0.37463749851349676 -0.6531810448151977 0.29884703374574334
Ni 5.288602067097542 7.267063796147791 5.283800220187541 -0.30844624739840426 0.2766995511144267 0.029793686322664818
Ni 5.315213829362128 6.219500571879132 7.759797435923772 0.61157673901085 -1.609516749612557 -1.914357281937574
Ni 6.221131733615735 3.9602316007236085 8.808899267246225 -2.208778932922112 -0.46983207883947475 0.5594432515404043
Ni 9.118038322503505 1.7253200896573653 11.421728043108532 -1.1446911228487382 -0.9194192913869844 -0.48694688414289033
Ni 7.315632095046657 8.350796657351134 6.941399606285921 -1.839255615706729 -0.04646137678633289 0.5504274211950391
Ni 5.687201179777539 1.0231966003493973 8.716422476993792 0.030671203831611697 0.30082035542203034 0.5483941928150942
Ni 0.37673971264351475 8.404991547858284 11.96718852782872 0.7859636106972787 -0.036774231405556024 0.9431374609395305
Ni 5.490417094767302 3.855214109142286 3.48902104842381 -0.8493652148823759 -0.17436398886829324 -1.3253486580352272
Ni 5.479667922199686 1.390033878315532 6.29803001290061 -1.6624112836187435 0.1326128730734361 1.7185209821281178
P 8.451809555230794 6.915007775940877 8.258624106254064 0.37993577079795854 3.580712123585098 -1.2984199519651831
P 2.1290876024466 5.713904580341934 10.325349096531522 0.19964487492226907 -0.7050065141269213 0.7385900065093216
P 8.717661426807211 6.647588889437722 4.237582246160081 -0.32007688965879716 -0.03508090286353313 1.6638372174319924
P 1.712371597894328 0.39829120799263806 10.749629842733043 1.000060656489136 0.10903122909875416 -1.1155787788638143
P 7.82488445474624 7.3093731991696895 12.893636160388576 0.4283092770053398 0.1606759498582394 0.8403833230987398
P 9.059765527654847 3.6396625003311294 12.509255646306972 0.8224123404426159 -0.07972245283230786 0.16846330711314214
P 5.459919868590807 4.893402735340466 5.404348570820524 0.15333005101612948 0.5849617075264829 0.417512700610468
P 0.08433472731438976 3.057246122063895 3.051340950024192 -0.4055634986683918 0.460426983475491 -0.2840117685051238
