# total energy = -340861.1387638207 ev
CRYSTAL
PRIMVEC
9.37875546518629 0.00000000000000 0.00000000000000

0.00000000000000 9.37875546518629 0.00000000000000

0.00000000000000 0.00000000000000 13.72675664243154

PRIMCOORD
 96 1
Ni 0.990631028994606 0.4020297248651624 13.381501150066493 -1.967226362022464 1.673375753050047 1.172651098396774
Ni 8.742960103271315 3.536728625172695 9.533396910922447 -0.07792473750193675 -0.51575866616826 -3.0014621217314117
Ni 0.41508026287080496 4.068869822371511 5.330140779549678 0.9101993154506132 0.6741874718635357 -0.366224334749137
Ni 6.367762186244371 3.176284301325872 6.85282203181665 0.23959544717327771 0.6789715235157404 -1.1986107556853292
Ni 4.304783033290614 5.271685811365871 3.5564793459675803 0.0786706145290258 0.8385074462322656 0.2375395930855135
Ni 5.656505520248026 6.440569463670029 11.860398342317199 0.12757813886300612 0.10401294994855634 0.09002563453052884
Ni 4.7096920360341334 2.7838115281155784 4.557447639058355 0.3817088035379813 0.6173547791452078 -0.05465419700977039
Ni 9.298557567485663 1.8623206832227306 4.780988395980303 -1.893640618215513 -0.2780774052985598 0.28296018731215783
Ni 1.4435592588950699 6.125743405622305 6.469104326682726 -0.18084394016568212 -0.29665054031505683 0.2216620026233086
Ni 7.673378712126871 2.8411157230235737 2.7189818199515803 -2.1989048683415096 0.0486666119677678 0.45842846498822337
Ni 3.4306830389493386 4.627853017250636 1.5833261598142854 -0.7847161114434227 -0.1741259047155582 -2.200619022819139
Ni 1.2455174618938856 9.249365995915705 4.846176372596917 0.017940129418188455 -0.8087759806061038 -0.6719935495360104
Ni 1.5524841229967823 5.043538209838554 9.083516776495813 -1.0958476189834738 0.8817076357688234 0.03512666849980402
Ni 3.086904763277885 7.433432636427009 4.807110105253256 0.10971771364281749 -0.3405446705948457 -1.0327074959898797
Ni 7.016162434192698 3.3198261512549836 -0.07888752448930016 1.3319373669963384 -0.7710764091728011 -0.5721367878476727
Ni 8.246889598972032 8.923313567768984 6.677270490034676 -1.641199939648451 1.3094414998866675 -0.26949017785018103
Ni 3.5752471732065967 0.5500508683275082 4.091768053446449 0.07403722952207249 0.36748340396721874 0.40996676994241016
Ni 6.531102588620419 8.145289542762816 1.905781835301888 0.37803469712050375 -0.6765924817606025 -0.4872042515693351
Ni 7.487060359255801 8.924898577415375 3.9927011990448666 0.5790548551237447 0.2387197294365437 0.6476516303565362
Ni 5.398364659258227 9.002845412747675 7.554095012791791 -0.5184984336969264 0.6320928566863308 0.05522215369809845
Ni 7.078005946667875 8.159920401037198 8.945933249811391 0.24861821949717824 0.19747666362635666 -1.188401162142179
Ni 0.3168021617902968 6.260563013118611 1.2636794215402578 1.9909329616107843 2.6006055416203857 0.4800141615787992
Ni 4.9579289314228125 5.0560213331482995 5.679651350462993 0.5271944188090276 -0.9930916813704702 1.581280123364367
Ni 4.260477793234089 8.917508118235752 1.9759527446115661 -0.2075764710645199 -0.5557604033721782 0.11760791502417166
P 1.8368573625721236 2.97765164274053 0.9527811862138861 2.0148941004120715 -0.028656744504744196 1.2720450615160803
P 4.96904275645816 1.9643052683994155 9.294180502385244 -0.20517891736662083 0.022130770460768338 0.13605403754450118
P 7.337713059793456 4.34966037742069 11.08143175240297 -0.972868926565692 0.7813461665299254 -0.08830608073626083
P 9.063544717075752 0.11985955491075186 8.53113810110183 -0.28988751055961043 0.38471545157478904 1.911085810275154
P 4.149874131932944 5.222090953317838 12.792416840038888 0.08931523872706552 -0.17598918317654208 1.579144565078603
P 6.856038944885953 6.663249250855061 -0.07657659918237214 0.331507500093242 1.7171390141789264 0.8997873760886697
P 5.241861369498861 7.298509862622357 3.717672013378991 0.7387237038737083 0.9933714173944183 -0.0954203231835389
P 5.151112533176478 0.9449377331530748 0.518720198358662 1.1527219635730148 -0.21835350707536585 -0.05167840221089809
Ni 4.686376450348163 3.01561684421149 13.59566596531094 0.03739669548090334 1.5026259638955732 0.6664469086861684
Ni 0.6112753829526139 4.552935519881557 11.122090532397264 0.26072477295272517 1.2472341731199874 1.8321282606333285
Ni 4.23833455196113 1.8112533605919554 11.683130488314577 -2.552518970525804 -1.0569810238252635 -2.2232511583963586
Ni 3.3697117507174434 0.34248682106608025 8.924999867972659 1.6879037714628928 0.6742183251014711 -0.5935599907184551
Ni 3.024798645654195 1.392904601497675 0.19734589335762082 -1.0102481385450988 -0.6066247943222133 -0.6399599181392334
Ni 4.695586388056781 5.74457203255344 9.842386569544438 2.2925922679943422 0.9451074401817078 -4.268872512688958
Ni 3.761818752470878 2.260936541157204 2.32734375596335 -0.31458218509281305 -0.07957487151085005 -0.18981863286046666
Ni 4.616504723332685 7.1269349130893165 0.22378554243538362 0.40707993531291825 -2.1417420459772725 1.9290385380988324
Ni 6.253800930544362 1.5011260589515802 12.203635463807608 1.9906146590394167 -0.5001533555308355 1.4413221227797695
Ni 8.53890652412021 4.531814562936744 1.3572174996900783 -2.070877814866543 -1.7289624891764162 1.43830364766842
Ni 4.4083526281136916 1.945772847918532 6.719494584289224 -0.11008306740203623 -1.1807937821085666 1.1704234946178358
Ni 6.326833298097318 3.846705866728205 9.13398948604031 -0.9804354260590404 -0.6372502325175541 -0.3748341879053351
Ni 6.096650506669014 8.710153217217604 10.978096626462497 -2.122911029313699 0.938619518464519 0.39697729966127765
Ni 0.5346950322681201 3.1504458304631013 2.7747816625087998 1.805678551082232 0.9019028797697758 0.3175929468946788
Ni 8.353948090768231 5.246944654873679 12.989684889727485 -0.09802176536212795 1.2805659545028978 -2.62979887535489
Ni 9.024604125053166 0.9137205461234081 2.5316533751342583 0.5375022284929387 -0.1870528971898714 1.251999969939747
Ni 8.892204236425314 4.892690309527556 7.44705340275514 0.4841495239034113 -0.9207516370451627 -0.4506933011274947
Ni 7.533625879340613 6.546774488733555 6.453277677107073 -0.6510940803791819 -0.16675712305531282 0.2975062034471328
Ni 8.539956944714268 2.6228439508314656 11.502033288521293 0.8345947414414208 -0.9388450042117638 3.2663399976205616
Ni 2.484760536489334 3.907977275129831 12.357732164955943 0.09201926792178991 -1.0936783792462972 0.8000056906126416
Ni 2.7715534949331313 6.876156375013229 8.160309619382318 -0.013695495209221573 1.2212755442726966 2.1380311727845887
Ni 3.0046999730375283 5.833032452581626 11.000636589084817 -3.1272898535622145 1.0135985430745704 0.8730317052613802
Ni 1.8755259706908907 8.291888866921061 12.193697734687392 1.2533194600821187 -1.789490114247828 -2.4654205369443996
Ni 5.413830226754673 9.224512294359865 5.1722831975244015 -0.12292341369981409 -1.397731125562696 -0.03663667738642722
P 2.6328229464750184 4.77683454525612 5.252817631445101 1.4976336528873047 -0.3895432119807356 1.212040913048306
P 8.122499167373874 0.4115219631084329 12.195797637999977 0.760331254841155 -0.7494786283973672 1.356784250836689
P 5.714494364293221 5.706625588593088 7.72603667165722 0.7122140876189541 -0.7694756403445845 0.46035859213140073
P 0.07490530498718313 7.551492408194906 5.667956042598791 -0.3071871781803226 -0.7775769292954802 -1.340804330468665
P 0.3172054482683727 6.821393822792642 11.223078155885124 2.4939096455230274 -0.7178108649804412 -1.0393442845801069
P 8.743194572153918 5.247948181691216 3.410371468587269 2.3824854907120647 0.09589186350331873 0.3460103216951073
P 0.24690698788655904 3.5627171561203315 13.505508928448245 -1.3954855240616288 -0.07404468572124022 -2.2537184737472797
P 3.5301634964598314 8.050948643158964 10.397949332364158 0.5582854837868771 -0.540509904971011 0.676031724161126
Ni 2.0926066409593798 1.8090962468720146 6.048612522001461 -0.3246526819549376 0.8704068660440235 0.6817691408655355
Ni 5.030651800050733 3.920122763248629 11.186647318781914 0.782719135618052 -0.16421327358753654 0.854949908059005
Ni 6.689059585451919 5.613081883190086 3.1195156333457397 -0.8186446458700676 1.4237871992197995 -0.5793284205001055
Ni -0.08026432576794072 7.198748042452741 8.679798875675914 1.3503490367343065 0.10198923465030822 -0.22313910138946733
Ni 5.859696253911157 1.1529210107765957 3.034683853744707 0.27832937340836583 -0.13486773054588386 -0.5223913409934293
Ni 7.788362252155027 0.8705379430767823 10.17192414316216 1.2675268619307525 -0.5002759971516287 1.2642150239487002
Ni 7.395758176370475 1.0251073334924443 0.8974455920442193 -0.7340844053294842 -0.287645251492653 -0.9035291025192891
Ni 4.443926246982108 7.110869105253409 6.693015544439184 0.5695924241592641 0.41892346491506566 -0.2756669960848543
Ni 3.2375932247487142 4.507748676826447 7.604362327595127 0.7251215397092415 -0.2557221775318112 -1.5048327417389051
Ni 3.0704638052298137 3.1498737263895515 9.723334525465367 -0.18136124612173282 -0.2516189539967151 -0.11950127539214259
Ni 1.5209621264197326 8.709487325591015 9.66889366455171 -1.124890028962411 -0.5191777191521381 0.6182225264621416
Ni 1.9237140154433099 5.400231031563742 3.4209957225957432 -1.7062444787536097 1.1485248947725315 -1.4669310815971253
Ni 7.7125537730320595 5.758208742765589 9.21968598688038 -1.8625037876013926 -1.291961597934349 -0.5996355074885737
Ni 8.676492864431223 2.3348411329534406 7.263527105338097 1.3230516344709344 -0.38064976614584767 -0.7469918574197716
Ni 6.8825433073753155 1.2679045508047506 8.340651829373622 -1.619905806156365 0.7814366693612026 -2.082664523088826
Ni 7.411064305026752 4.38287992870778 4.872010154082035 -0.16734847678240855 -1.0132810118341515 1.6662345140195756
Ni 9.108393924939914 7.729266714983949 13.059567871249326 -1.8137093918065086 0.40594273638468154 0.747736706005596
Ni 1.2514260777354629 8.912406075350326 7.176307494636642 0.9606500159019973 -0.5465111168597685 0.5395863647154772
Ni 2.198877317310034 6.194817938436934 13.405537024159818 0.24369764226710935 0.2934860265441462 0.7271133733282896
Ni 7.6697772700901 7.135901003160028 10.893814441922283 0.6168621557795053 0.07267608750848774 1.7995053323919847
Ni 0.24388609080311133 7.597626505535729 3.3560684753765826 -0.17887318959255646 -0.9158117765413839 0.3449517985236059
Ni 4.046548384747775 8.835096995378704 12.868848068514048 0.28347440794441503 1.8963330774460114 -1.7713558665409623
Ni 5.885009514476899 5.019134688537309 0.9610579377697465 -0.6357412520721955 0.0959653970537315 -0.46201746789106235
Ni 1.97405917391567 -0.026342110022600236 2.430473487162665 -1.0838714204582043 -0.38973090251150944 -0.9874830769344413
P 1.2474401067312242 3.2237126668986598 8.063577137175923 0.0687528411946816 -0.23569662633950378 -0.6631602675150965
P 3.1958202486242935 9.173416835463177 6.189915663039486 1.2323189465710518 0.411062316999434 0.9317608436714726
P 2.1187077169706647 1.9696230226568352 11.41107999533328 -0.9538993274417249 -0.9455931215688748 0.25499044157210926
P 1.8787053687389774 1.769311566872061 3.8271708573053136 -0.6622249001850208 0.5931347302555784 -0.6178607722473488
P 5.520063388084111 3.6643359698401565 2.6385983839912774 -0.05882735455085352 -0.8342399292051632 0.3150133590929607
P 2.849528466531343 7.1183158369648565 1.8877718114914424 -0.6403741228585165 -1.1398327663151724 -0.49428095591045845
P 6.83998251580535 1.1345761654017938 5.996327836932215 0.25616260750333947 1.2522269983488885 0.14557071878568478
P -0.15157944322471784 8.566517579735452 1.390121924798951 0.10939915396113419 -0.26313029707042423 -0.5438551672941602
