# total energy = -381171.4749543751 ev
CRYSTAL
PRIMVEC
9.22138066117752 0.00000000000000 0.00000000000000
0.00000000000000 9.22138066117752 0.00000000000000
0.00000000000000 0.00000000000000 13.49642270907051
PRIMCOORD
 96 1
Ni 2.6971247402731233 5.835474101801925 11.95345810969475 1.5952167880501171 1.0723824459819984 -1.746456275085805
Ni 4.583284380819833 2.136335697532719 7.722977297509079 0.19996214905237175 0.6635197077370443 0.7507037590537201
Ni 0.5120614231191184 8.672671614121397 7.831272269703624 -0.852800722926486 0.5472611076519155 -0.012591977732397666
Ni 9.359516930322869 4.304743356959922 0.5454050134049905 -2.0097812046655386 0.8229381310390987 1.0694061369624939
Ni 3.821847316554971 5.557615460109981 6.087440028771752 -1.5960467401505802 -0.5826109479061192 1.0345427494264055
Ni 5.691390029173602 3.849612893686739 4.604884542850207 -0.37050290751983284 -0.8009158611317367 -0.0640495221817413
Ni 5.185781728232103 4.5194816481148505 11.745194149892933 0.34028370362397525 0.7621665082776808 1.0789796395835418
Ni 4.680800481174682 5.9461491123417725 9.728248589750688 -0.8892836483438685 0.5194258306072022 0.44216855148593526
Ni 2.2933942527330773 7.515923182848307 6.066182902101492 0.05224970133333583 -1.4309531208406194 2.497958875891737
Ni 1.3696424462983756 2.624967436700859 0.2278400287799083 1.0813764219504924 -3.0814041467736932 -0.8121119869578722
Ni 5.032264183200659 4.593741426474907 2.3564749513333054 -1.1497919344104135 0.4411755914450467 0.7141161897376733
Ni 9.174720462132687 3.817402611082532 7.237227239793506 -0.04019148461722111 0.5172763883643673 0.8255303172463073
Ni 8.098880424667014 2.149762027756517 0.06536667886292014 -0.8060403268424957 0.43666639072078345 -0.44470057387916956
Ni 3.3386746347305727 1.7108519730435399 11.93602047888898 -0.20269343194060574 0.6712625849072568 0.09449678292800501
Ni 6.614505560343576 8.064042048578067 5.047702618681896 -0.7539919428866885 0.8057312802425091 -2.0482654767836657
Ni 4.46587776240679 9.245356237897996 9.02420724291643 -1.558894299469999 -0.5171254646087997 0.4197189642331675
Ni 1.1765375141441548 4.130007415056941 11.967845307782092 -0.12236651275507959 0.6856034270099611 0.797752890022723
Ni 6.481828335577093 8.076205049653058 9.303677781945682 1.6449678913313153 -1.6276365991417194 -0.34428742546672964
Ni 1.7061214047710065 5.760384399183529 3.008906074955646 1.9630969132351221 -0.5686154049579756 1.1809405920990759
Ni 0.511015718553611 6.442139513267186 7.200516923432972 0.7673087146002527 -1.939556406911021 -0.8213304202323468
Ni 3.4242121616233936 3.8343976156171884 10.096633525266135 0.3215038519133108 -0.4878562833310372 0.03723728708490361
Ni 4.7876947256487625 9.118811231262573 3.4708889461885164 1.7417377865642132 -2.093963235931097 -0.5402232269685278
Ni 2.0719796819888434 2.85718024418415 8.106207733730084 0.29237093910309647 -0.049847519649746416 -0.09190176850731915
Ni 5.749364849308915 8.517863075799204 11.512840255285726 0.39792757938968887 0.1440851353790938 0.4832329256264129
P 3.7111723060151225 7.789724417055037 10.634033458130412 -0.5372325197713199 -0.37290354654152547 -0.9022371231807429
Ni 9.076743292745428 6.809473211388736 4.51925019146058 0.4924729561674422 -0.9897677592035601 -0.3004519163390181
P 8.584874848969765 3.6191798126685537 9.714697770888138 0.3716632463765212 0.21847434892394632 0.1766144754653668
Ni 1.5089682865122205 7.327567261727916 -0.10620079664933536 1.4111425138725955 1.1858945936702414 -0.2981479507961897
P 5.459896489380872 6.756173631242067 2.5206865315024816 -0.7517617680045892 0.4476100342164807 -0.0705083904332076
P 6.178822988857474 0.9287313519847363 13.344938629644224 -0.8666396856921075 -0.6733860590081628 -0.4518657241690412
P 6.50898530158608 2.4569999881936657 6.003235913520663 -0.29546114799264594 -1.0974095641539552 -0.2301687545427391
Ni 2.684509891546368 0.6706940679961261 7.066295117407912 -0.06938790367551921 -0.3314085126215325 -0.06327150636513619
Ni 0.5497833249367619 0.8630732774933327 3.964628408097701 -1.1909149297029684 -2.158954296090501 0.208790288866963
Ni 1.9071382815213942 0.7013874334837018 9.451342516679706 1.526630554340287 -1.2907022716059515 -1.769260160354198
Ni 7.010241110861623 4.57288266344865 0.8365138569503506 -0.025262631221530687 0.9034666247124699 -0.8926003714219272
Ni 3.8373669001859128 8.497954114979713 12.660845895566244 -2.1602401047814603 -0.09346602767064549 1.3415553497020767
Ni -0.1146807782934317 1.6738189083603179 8.494284005481724 0.9366407974715935 0.11927604675521393 0.7508081458420682
Ni 9.283440539975112 8.844954668771955 0.5349627219589544 -2.0389292869844047 1.056214063752252 0.3968855112784197
Ni 8.69707138731657 6.3861933968744795 12.764430586525682 -0.9896158070067278 -0.9662334235270458 0.795729688945107
Ni 8.095486956588472 5.038414844093016 5.539944528373812 -0.5889039800036825 -0.48689314808681955 0.28938331722968225
Ni 5.895726602957346 0.15942660575081874 7.119713653364943 0.24361896651037396 -0.25772121023971095 0.16439685035325238
Ni 6.975107650591933 3.049778000402719 2.610572861508999 -1.4491848133572978 0.057937238636416345 0.1276375313460318
Ni 3.438920263757293 3.142139348975217 5.953623041357149 -0.7828299501643035 1.0547210241464933 0.20462433041473144
Ni 7.209496703908201 0.5574047960425096 1.6244162836755833 -0.8916948288885224 0.203695647952875 0.7973502552676655
Ni 2.173875938151593 5.434805112637084 0.7568872350530345 0.6644807860987331 -0.47272585544750195 0.34400126168487855
Ni 8.82516558590089 6.45166519947679 9.293892974939864 -0.5167937923009938 1.1792223238563886 -1.33333990377082
Ni 7.069580695332871 2.3189005916060337 8.043598247680979 -0.43470206790556104 0.2606021313319319 -0.9839776348843442
Ni 4.228851394225132 0.8383608994941877 1.2460897776832984 0.48213275058369875 -0.930010179528953 -1.5763564608105045
Ni 7.4857784895093 7.2895475093153355 6.876818798538764 1.2074736053925978 -0.9086373702801319 1.901172922036816
Ni 0.8629653873397486 7.047338725209382 11.086325580440073 0.8912492567106715 0.6510141190708659 -0.6439075899330717
Ni 1.3708412257826434 5.0102804117353195 9.800319212344858 -0.19020249856244661 0.0615079867068102 -1.3553176935934916
Ni 1.3047239265349586 2.5153989918387962 10.501688203067264 0.7333146170429952 1.3319247685908482 -0.749989763705831
Ni 5.223441846799403 2.8848075006061946 0.7030399048958614 0.2582773398534971 0.029753320003032626 -1.0622415008932546
Ni 8.532746384165419 1.8215823118672771 11.20459532008179 -1.8127339152671167 0.2994353021490456 0.38830162626415055
Ni 7.126578049119472 5.486500172550965 3.2051573421870376 -0.8257069520334877 1.2084315984304932 0.43681834291761545
Ni 6.509584691328213 1.040955554473484 9.883282129760698 1.582773934301074 -0.042246824484353046 -0.12986179269086023
P 4.619183215683325 2.000938165475013 9.891447662324689 -1.2177603320305865 0.7718073738015547 0.2482150705214886
Ni 4.5521898852740605 6.09722299150144 0.12371404277642083 0.7416563041394711 -0.0232150046638826 0.6519060347575161
P 6.570805437451697 5.904772777373243 8.62455168348483 1.187759157682806 0.1685298986850194 -0.47242297949510254
Ni 2.1664527267297817 1.3245037880253747 2.2062060987042265 -0.9242241689747954 -2.3968731268923045 -2.0225385043312074
P 6.479255570376242 6.425116844590586 12.686070060191366 0.2734399065265484 -0.006128224384924929 -0.23328801689801112
P 8.8519444753033 0.051288397027293896 9.968619552693452 0.6398087372733496 -0.6583340497710468 -1.6425184013495584
P 3.2271051502678483 4.155735067065454 3.9042717053409546 0.35252729687801865 0.7820640185325562 -0.10049053861759467
Ni 7.055093906334529 1.0320938076705517 4.273939334904568 -2.2418646597324874 -0.33567474409705417 -2.1616763230073546
Ni 5.752214255929212 2.2327913391130236 11.702370058162634 0.9191812072342492 0.19758876372418877 1.0927013600450084
Ni 6.212720784120304 4.410069966723807 7.150067672044665 -0.33607069398389217 -0.2244778748055489 -0.3661232903948985
Ni 3.673502966067174 7.721578414064745 1.6554849593555414 -0.7762160443922116 0.051996447671949164 0.29629598518911554
Ni 8.044382065036077 0.47522661811983297 6.174843040969705 0.04939577682430848 -0.2242073947529816 1.4515296594403906
Ni 3.732953207106201 6.595177546504923 3.9128826305902558 1.2268039302900935 -1.2236088203915636 -0.3386309985119007
Ni 0.6467987043224126 1.8083772947790366 6.170928564884539 2.0386127841852506 0.13019397921929834 0.4497507347085674
Ni 1.2608393760301144 0.39619938596465065 11.534744722877488 -0.12679626639165906 -1.2962157452250127 2.5063049338635865
Ni 7.968499323681936 4.124815777751997 12.00543257744227 -0.31706535652598294 -0.7222737858478012 -0.23199629466978108
Ni 8.918799485002841 2.2176037251854175 2.223346801053124 2.280916631428626 -0.46448932647032265 -0.23264112734263162
Ni 7.1920867372443755 7.12798892035865 1.3706835401735586 -0.6671632180269026 0.5498250117243498 -1.6577293047620416
Ni 5.1441656373667195 7.101634214466058 7.577269339748606 -1.5488137753055453 0.3871189188099591 -0.7378009349491229
Ni 8.062077894499998 8.368688801053068 11.621405413933262 -0.03703596970737492 0.052249958443651955 0.6076635199993728
Ni 2.776668369744605 8.629672316158782 4.306209556482988 -1.6748016868632964 3.0886903960224616 -1.72120058584281
Ni 6.215883717682641 3.8475841899441323 9.683156960518993 0.14311840059045028 -0.3471300371218473 -0.1332340515972028
Ni 2.274259887888036 2.180764309495808 4.077863273905493 1.211832653692242 2.0094955551043197 2.8227416556666354
Ni 1.207954758012615 8.118678728918725 2.59274332202568 1.4155018192825557 0.2933559287241851 -0.3007689333588046
Ni 2.416047836734953 7.666213244652877 8.642110114377092 1.1685769283274003 -1.2592031725564057 0.8953352538545871
Ni 9.320787131600374 6.293361757888924 1.7240874206879193 -1.7667679900599635 0.5843533845185227 -0.7295564355521437
Ni 9.042089344269444 4.439689041365866 3.34975781213166 1.0724094425651916 -0.35934354846890365 -0.6915280200245123
Ni 4.699713532884167 2.0286207501809472 3.1162162036969616 0.014748619064084275 2.311361063961413 0.29615406029461255
Ni 5.836433125389339 5.946195219245014 5.434847530988066 1.6635970763967285 1.313525440148054 -0.9253032609715871
Ni 1.4743235594168855 5.005761935217695 5.267194531560978 0.20201517492665855 -0.577393922481554 0.7592629614776407
Ni 8.252932809776055 8.33023564375002 3.0561167774603004 -0.6931082200274385 0.36409237600779876 0.09940296198037074
Ni 8.439112485063468 2.6686583382120905 4.576447649207249 0.08731260647473996 1.864055191248912 1.3567312861115668
P 2.508492177733285 4.933097455709779 7.691408822997988 -1.013119289445307 0.3816152153829105 -0.05722247195757887
Ni 7.200238437737395 5.870404691697353 10.663293821065254 -1.086948002500999 0.6104485389436778 1.5565013737577904
P 3.4839667082238113 4.131104759354078 13.04839562648287 -0.02722026916853377 -1.3561828698072644 0.35883601270486587
Ni 2.9817242112189097 3.4007990761575813 1.6723960493262988 0.841833425281705 0.44911361534520067 0.8394772663447027
P 0.4828065930126638 8.473130158274724 5.568151809638628 0.2554223869032053 1.0973419441408134 0.27991754383109213
P 2.0663638611740818 0.3240540701872294 0.2881644567043858 1.1101450094427525 -0.06371270766761286 -0.8021325071476573
P 4.455051861525789 8.000884812518459 5.614673675008861 0.5123830648278079 0.3980111402424306 0.30484361764881046
Ni 4.518402746579009 1.1795621269967684 5.534680042161747 0.616687320764538 -0.42409498181367605 -1.3262009787331932
