# total energy = -340866.6721566882 ev
CRYSTAL
PRIMVEC
9.25831710589994 0.00000000000000 0.00000000000000

0.00000000000000 9.25831710589994 0.00000000000000

0.00000000000000 0.00000000000000 13.55048292951820

PRIMCOORD
 96 1
Ni 5.036061650380644 8.158549490057686 11.809571513880522 -2.7829666897615426 0.3559954579322772 -0.7254472984797764
Ni 3.784013121491543 1.449658051576341 1.9995095111150973 0.9788757948814044 0.5852951796065017 0.19551799723808908
Ni 5.361704441866697 6.691522835381585 9.943994671295135 3.368519493904805 -0.7309260622061604 -0.576574254793736
Ni 2.622149860616704 7.938553356338878 0.702366496555422 0.5660147341103349 -0.16967892468779808 -1.8413708622775191
Ni 3.828369719279894 8.026599953075932 4.9917948582693 0.31055609465255546 1.6401241900857688 1.324756275866867
Ni 6.107767418192872 8.453463926699333 5.944095183097571 -2.5928634357811218 -1.2975082387841912 0.3413093166750122
Ni 7.2964797989980426 8.563026852649521 11.55375124752088 1.7393849700613206 0.07325072906503514 -0.7897770709060978
Ni 2.313699764203281 8.061318642641016 3.2034286779497743 -1.2879293368465043 1.0528790858417478 0.5353779830610844
Ni 2.68483792649542 3.39531193143808 12.451972815650853 -1.2370286933418952 1.0046747582223794 -0.46972846338207486
Ni 3.589838434491941 3.7066506228233185 4.028368813640934 0.2701342391920832 -0.002392154381260396 -1.7816891301461704
Ni 8.06190191662571 3.754173565100005 7.185848463240972 0.4082279328744324 0.7091102518826498 0.8180106118304944
Ni 6.606642583132867 4.330105704240053 11.499454920367976 -0.5157884909649311 1.3256602757383749 -0.6012810135117967
Ni 4.7843280052407415 1.4036997649093874 5.2316519340827785 0.8534311574216333 -0.32635063848265083 -0.9476525752010647
Ni 4.3721014311379784 1.5869588959097265 10.731657118542335 -0.6134757558057756 0.06605369709596366 0.6772077467470982
Ni 8.13808860900733 2.629491706170067 10.053361320920315 2.5442922117406375 2.724885469348094 -2.3283023198014416
Ni 1.5635816449359032 6.797039876707788 5.512187278254153 -0.6344325605631008 0.30152509479853873 -0.4512697424562551
Ni 4.0188688543442055 6.7215660747519035 2.444100384714571 -0.747276735650042 -1.3993275235155382 0.4258484741696731
Ni 1.4295212116285925 5.187861019476408 10.372475147104689 -0.35348246170243636 0.6039757867351404 1.9528716359626885
Ni 1.0420421194478209 3.2715560051936863 8.2075815380408 -2.881039105855948 -0.4724954846042507 -1.2403029932177931
Ni 0.05180491398971392 1.895399734005932 5.7946066899792585 0.8485889988379837 1.390717156138708 -1.1010751859310004
Ni 8.937794275290864 1.471776171408604 0.8610910869297685 -0.6479647907215809 0.026803493346089325 -0.5066320212766436
Ni 7.923554882446762 6.753729468764998 4.676014026283175 0.03363568577657433 1.5338934065502874 -0.8283222781691477
Ni 4.208016275094783 3.5983653446491255 6.272558983839751 0.9654746909841502 1.5972325329285653 -1.1000122918841249
Ni 7.339216191273356 1.211145283422823 7.458877163812514 -0.7230296901772193 0.2584046094599808 0.890250383132512
P 4.837544812606102 4.836165323340716 1.0706873529183194 2.7267091528203946 -0.9852701284435225 1.5720174671155185
P 1.8507653867010603 5.902732725097312 12.596664574618853 -1.0895569008787558 0.20050670870193213 0.12402718828695414
P 5.578117606822386 6.86747715409743 4.3168450164896335 0.6563306461877729 0.8187757721312932 0.7070729097376467
P 5.3963305482596065 2.386710853779348 3.2248524239907352 -0.15279860399269168 0.2397998498745999 -0.22167331547721822
P 6.8473310558324645 8.1909906335873 8.940554179653358 -0.1545652089748112 0.6236483254634033 -0.5169388025192904
P 2.197720824421466 5.8240092537981365 3.514778479315673 1.102955690783165 -0.9697602057333815 1.7203935165604822
P 6.374073654632892 6.576006811460638 11.900739089351546 1.4548332698923265 -1.6947835293018618 1.1692533855691347
P 8.974568311278201 5.46557350272821 6.0215771140579 0.32629201733057356 -0.23147281806614328 0.6356013840602215
Ni 7.481257294022028 2.9740770146828295 13.304717529609174 -0.21673268364249124 -1.3267506805890763 0.016816043116074268
Ni 4.021331566724022 8.871958381558247 9.333762318528228 1.9595919854056576 0.9397885990719557 0.3521665711044903
Ni 9.012647769993185 4.12059924392851 12.071366172340523 1.2468423369982076 0.2642998918984932 -0.030916229962882243
Ni 1.1581043840845922 5.576441851406044 7.867288385390005 -0.39311473138207775 1.5930033253385663 0.3737296419872467
Ni 5.677274184220265 0.8020415397174738 12.6498637911815 0.8750801031499768 1.319814101370243 1.117740048181191
Ni 3.914907210310518 5.860635156709996 11.826130014223763 -0.4042059561992329 -1.2202918402031886 -0.14194957709332973
Ni 1.937895410033595 8.214997450131904 8.407234371337912 0.11440509181615782 1.0180838325394337 -1.376708500564442
Ni 1.9338495254096106 4.424484989953776 5.997416609447488 -0.844506601238494 -0.2115578243097711 -0.6359615956131176
Ni 3.8776332251934438 5.811806791705663 5.2815172306154565 0.18302269298455578 -1.1986359524963097 0.3021408740056668
Ni 5.731787155996056 3.1390787441305434 9.503251554331195 -0.673534411660569 -0.16833912283045202 -0.2215761277777216
Ni 0.6511865189778797 1.507355884474902 12.088860688554439 -0.14167009817969792 0.39808621645474024 1.9666794883800582
Ni 7.051032551248724 8.486469827579208 0.5378267571368546 0.7752770775177099 0.23362020342644926 -0.06842451132098538
Ni 7.725482443898654 8.845211103117308 3.2242154517661814 -0.24437795616358562 0.1616624821412248 -0.8999508982497275
Ni 0.6029247629872478 8.10822127766414 12.22353865162015 1.1257868297450677 1.034569488899283 0.30297725386403307
Ni 9.093445104349048 8.541973439297255 7.427724778039556 -0.5400108538474054 -0.6460912278479518 1.8777743406072176
Ni 8.654860101128474 6.38027672716852 11.382364982520077 -1.2301414793037588 -0.37376126655613046 -1.477707860497655
Ni 3.257150063603481 6.7549237916860365 9.650247708454597 -3.1581788298315865 -1.8977299577935383 0.3773163308972405
Ni 5.1947029159000335 9.109249051839074 3.1725614483471105 0.5537603422230141 0.284632175697942 1.1118000285476723
Ni 2.8636160319625588 4.8812070366031515 0.8567331970155592 -2.0387932756271727 0.23766891957452618 -0.3427437351286936
Ni 4.478840570336873 7.146069177484882 7.6886528580080125 0.8974204185183899 -0.059318178144342995 -1.3723746490757784
Ni 4.857764977408808 1.8940757946438505 7.506900055218938 0.5727134862867492 -2.1140960021252297 3.1506627239602
Ni 0.6736768231622802 3.7956137929648897 3.4149117889872223 0.9544641988062595 0.6622799217926724 -0.3439071593091755
Ni 9.03465479001884 6.214710240370548 13.74913342101324 -0.8936041300960933 1.8083360433097375 -1.7659652916530102
Ni 7.255576553531765 2.104850644414171 4.296492457750721 -0.29942218952292304 -0.8438170313706372 0.30545785419404164
P 7.229755106812559 4.673755922713862 9.209449967419072 0.29918616225271694 0.40541257491282434 0.1758166621544198
P 3.727018920701501 -0.14292156871604197 7.13572485965793 0.13435248147236217 1.0108425775959882 -1.1529124823172658
P 7.5144668778806825 1.6104009551040712 11.622168360093694 -0.1092024645692958 -1.7041428590295749 3.208224067314436
P 1.1582247422084178 3.0362003232112866 10.703987711706544 -0.39243698858876286 -0.6318501445479053 -0.8555206929608105
P 8.493478373712746 5.584033671524277 2.414424700537781 -1.0267289098089414 -0.1450241022535954 -0.3930653662013811
P 6.398052696225843 2.806594056220865 6.245282129653978 -0.9670350934927345 0.2750288482802231 -0.7683494971599413
P 0.1769319970139982 1.4471768225620898 7.825539855561782 0.5964763930343017 -1.7206125745498237 1.4544116089738757
P 3.3966729040690313 5.226727435154867 7.667703137808581 -1.4209469015575271 0.5060172705107802 -0.7407337923252018
Ni 1.7147236735092355 9.22092287411482 6.066293860386005 -1.0460517785072696 -1.0797982788300953 1.7158827731743225
Ni 2.7492758143282154 3.7595341307688543 9.248177508339271 4.6955272848100105 -0.0028336127940531844 1.2015384708550856
Ni 6.276805773947353 7.083205203579036 2.2626734746915464 2.0757058323828055 -0.9062213046394715 0.6583227369171372
Ni 6.671682261584792 1.482395461256911 1.4653629350721418 -2.1174132394239207 -1.267199817608637 0.5912303141440141
Ni 5.405922164896786 4.76083965446031 7.865458941907855 1.7019749048439785 0.8672791190483192 0.8166204163511872
Ni 2.705067349615342 0.7808649907462161 4.340964784504289 0.7732384498211263 0.5582515452251482 -2.3876801475391267
Ni 7.992242337882324 -0.0007712178242057315 5.634547976093891 1.1813625101278429 0.29571311610245204 -2.2896205869605275
Ni 5.552360968323702 4.865819713387906 3.441239665658217 0.018372588969916746 -0.6858183712342447 -1.4847408560850364
Ni 1.6688672283316726 0.631312615239104 1.5294156769086955 1.036761097233963 0.38165763858507173 0.8341522545873633
Ni 6.568007625384842 1.0564388027208091 9.82931745091408 -1.3042278168962118 -3.158273446427922 -1.1279671252258379
Ni 1.2389294933921076 6.5489817835031765 1.817458590511623 -0.9376468701386046 -0.7109457624294917 0.5416239639707963
Ni 0.132813337978133 1.2853877291887985 3.249744335661318 0.3769838872584862 0.7845415335387714 0.807100392675894
Ni 6.4505566131654675 5.152096140065762 5.759754680646244 -1.7220734753660663 -0.464524036363 0.4547654143143394
Ni 5.0279976560843265 2.98160402658054 13.109252233189473 -0.3835844232941394 1.3156268027617728 0.19281859602905502
Ni 2.674274186550417 2.052235627667938 6.68387083620144 -1.3281748146301127 -0.4328213059430804 -0.6850485829477556
Ni 3.2209870765524893 1.2394572174734968 13.166204771552037 0.06372376341120639 -1.4299408775260212 -0.37707618986197644
Ni 7.817852674776212 4.422087085794481 4.1954601452846045 1.2088242058832213 -0.2754106570996741 0.13975462632453997
Ni 0.4228282731483574 4.208007016777565 0.9788161453387769 0.5842824220712712 -1.771053247698879 -0.19127207747754157
Ni 7.829407054663473 3.2422071396146688 2.164106652100412 0.1800803225267802 0.8877229887249679 0.17904108262898843
Ni 2.3999965389862536 1.3289203367448053 8.860864140036691 -0.02988470337457434 -0.28319210081730584 0.9055013957543114
Ni 0.44276328178076774 0.5657748393208862 10.117901976074224 -0.2821032386285013 -1.146704039513709 -1.8692218230515163
Ni 7.347020952687587 6.661748087210569 7.264929305584737 0.12393977077947041 0.33390839622525076 1.1343506601546787
Ni 6.950163185165634 5.0774555866594415 0.5123247223616483 -0.3193173857849533 0.6203375159226155 0.16279582441471963
Ni 5.027405123782416 6.7541183180881275 0.2339493435970834 0.5994897259393289 0.7197304506006572 -1.0899633922885552
P 2.1235339285587944 2.722084136660842 1.1003519271144488 -0.0650116289846945 -0.0836914647823849 -0.30613045478103407
P 0.2708242952420895 8.516105700991963 0.8612919924133852 -1.4694607899975143 -1.0861213928346456 -0.9077940484432303
P 3.0380056950686707 9.162641767231566 11.281414143245472 -1.069070865110262 0.24020994082882502 0.44375620768802926
P 0.3747850134440551 8.627464740482319 4.397010007779552 0.5390708585316394 -0.4574838416867669 -0.4256345583866541
P 1.9546992557830958 2.6521838416698063 4.642368375683582 -1.7190827681688587 -0.5281945779387677 0.9167394305619759
P 0.7612160641158221 7.012203168839135 9.557589543911577 -1.2719545586848031 0.365236516914571 0.9522286246075212
P 4.231402784385823 3.7549605220634805 10.935605811028298 1.092974154090421 0.580179198536175 0.6481427110603418
P 4.56959985401861 8.642713188939302 1.224790191337762 0.7789522123764521 1.075459028024793 -0.7206285369348944
