# total energy = -381167.0727916611 ev
CRYSTAL
PRIMVEC
9.21564894664847 0.00000000000000 0.00000000000000

0.00000000000000 9.21564894664847 0.00000000000000

0.00000000000000 0.00000000000000 13.48803376548853

PRIMCOORD
 96 1
Ni 0.24401748705014836 7.59696643845313 11.919847740116628 -0.0030796673665882445 -0.8744704945904359 -0.08059097148019023
Ni 1.6852196781334883 5.312858585965977 10.984614176340312 -2.402566834842972 0.4298689081829758 -1.1138085743372688
Ni 6.433785636579329 6.263950438764974 7.026146366654308 0.03533029987017787 1.5847739954502384 1.4079396906645816
Ni 1.2889375498999927 5.839413130299301 6.133372984678948 -0.016086106928585198 -1.3684120648836047 -0.6428346685838671
Ni 4.040223519376723 4.507069872997625 12.292009749882519 1.2509507027396263 -0.19341714884500236 -2.215860779469558
Ni 7.7527016930987855 2.5849619339808547 13.003462470532968 -1.9252942405650522 0.2033439210404111 -0.6660812978166335
Ni 0.9433875701264262 -0.10408799222713098 10.362789172867314 -0.2909128665003312 2.092481509179248 1.9248463543943557
Ni 0.20239408619018218 7.468435780038848 7.327724798169617 -0.10966603446927566 1.4913197948541348 -1.407386646374589
Ni 6.012575177449539 1.304253958753835 11.090279887698475 0.8359533123518441 -0.08901416254687895 -0.24866604201597825
Ni 6.108362634505396 4.621150393576272 5.510064261696043 -1.2566336120570165 0.28165098158243107 0.4531412484473551
Ni 2.362929299494922 5.857485018242974 12.980465739694292 2.274138689274845 2.7799736685714898 2.094271254089819
Ni 4.255335201366124 2.515522017787292 9.297099801573486 1.0129655374762618 0.03634408584667289 -0.7232065820747158
Ni 8.590846550162109 2.1602863907782335 6.935614594297214 1.4316678875194568 0.5358819192806965 0.581528770585534
Ni 1.175345458725228 5.078725804172526 1.566162707024711 0.7201348851279274 0.4724214368332058 0.9698735913827942
Ni 4.746437143496841 8.664120176393697 12.461770300938921 -0.38548832518507165 -0.4133701391970042 0.18610133190987949
Ni 1.3207038924506511 2.2558526722549743 10.605681429158707 0.6809139919540919 0.641322859925031 -0.969559145466169
Ni 6.464473748181793 8.4915571464369 5.009550377108991 0.20303770265390195 0.5662916419208054 -2.7400686048464356
Ni 3.1196262495484626 4.861052171725022 4.607054136667225 -0.9464264161034477 1.0298458581713683 -0.2911733192505695
Ni 5.915571254708537 0.6599667320916971 8.678470785218728 -0.16759838800968554 1.1653933883930963 -0.19847373743230334
Ni 1.4388208673481815 7.998040704234157 4.955759554702859 0.5232917413205117 -1.0990532704049654 -0.39922932892024793
Ni 3.981492187472068 2.348387005167989 11.599682265871285 -0.8486180523037062 -1.057326065869508 -0.09850204743265616
Ni 5.143493386257246 6.2912379758385155 12.716949782215167 -1.1506491402043861 1.274494294387521 1.4061514884159072
Ni 3.558383304621524 5.268236412879152 6.953513228037245 -0.235353126957156 0.789169519229086 -0.7068780201180213
Ni 2.526663737585304 4.444108558142361 9.246492064376811 2.591085260834776 -1.2079168635776036 0.06964218577817038
P 2.958168076793158 3.2855447964826237 3.187896699867445 -0.05390240644541039 0.46131375695581844 -0.9029490616461029
Ni 6.893499077773713 2.8500040029558864 8.551251513675627 -0.5713587720310677 -1.1918875780288827 -0.6236791787013387
P 2.833959557820785 9.559024216447883 11.772032414333182 -0.6453389230629596 -0.17541428450967855 -1.0414093946392515
Ni 4.291368389463912 7.100252166002323 8.566830568529669 0.43881711851519906 -0.9938414150523013 -0.7007608514766899
P 0.4816918428042079 6.064735751524596 4.117424855267461 1.0922434465719835 0.07537034651119923 -0.6565386484335208
P 5.854978361679649 6.501631245473424 4.257026272981455 0.0986606844977075 0.8802482776144777 1.6908060327113528
P 5.605390936295408 3.2068339372644123 12.93992056978252 0.30223703326389884 -0.04082603287742646 0.2894882182386627
Ni 8.448842612719957 8.024332951201673 9.3128401302873 0.3996952128130729 -0.27575312804075736 0.4581070770930627
Ni 3.603475475813973 7.011026251126931 4.048702838141115 1.4396514199455657 0.6105945776032389 0.08714625610020475
Ni 9.086298278682124 7.091230045504181 0.7593381550941611 0.30809709158910165 1.4770465727645725 1.6698798240816466
Ni 2.126197704646848 2.8938704928140626 1.2162979603285398 -1.4988726675007282 -0.3657867329910861 0.4892523923476154
Ni 4.671246662246241 0.8845106309655193 4.981562450701579 -0.9653595055625245 -2.6988445651996424 1.0238685575420108
Ni 3.833037295639009 9.467973603044776 7.521979623048299 1.0385418432834694 0.7615327313484239 -0.24179425459680942
Ni 0.280122557211149 5.363876419548932 12.914009850688982 -1.5117045291580737 -0.9825303609148563 0.27309203626882644
Ni -0.07557385225440344 3.5493519684742525 9.037791709487058 0.765421781990185 -0.7561573259691236 -0.09322125864969108
Ni 8.77363895065306 3.764168749691498 11.525740505077783 0.93330710511267 -0.37615830603339734 -2.7242378084617664
Ni 3.039781865487278 7.129336754656189 10.825833149657234 -0.6971265971582123 0.16404589477173684 1.127679161671774
Ni 6.803010618967529 7.342863344995253 2.465558454464795 -0.6064412175564975 0.24643998089893684 0.07463038302138116
Ni 2.2983368147436702 1.7561709607843494 8.398230267698718 -1.473212800840779 0.14027887425912616 -0.05471513215469287
Ni 5.512248370539822 2.70767751779419 4.261207412991677 1.9990784735360543 1.6671971350431611 -0.4519045478267766
Ni 7.870072200416797 3.6660958116514326 4.535783070991557 0.5818581289004947 1.4843665034647533 0.25200281969869504
Ni 2.152858577579559 0.7879324712143185 5.885153161625579 0.402994452389635 0.46817860239645176 0.3276616439845905
Ni 7.328726539230034 5.53343514788939 12.13627633836669 -1.4817336938275965 -0.21038694393012156 0.10973699691652715
Ni 8.921089336730963 0.1397857306965914 5.709431007147064 0.4744500372274604 0.3863815264233023 -0.6051875476550546
Ni 0.7101505494283985 5.776064758180581 8.754435380996238 -0.6596828504894574 -0.14145875349984025 0.44711303997540425
Ni 5.193248675909409 4.909646289586821 3.1482417616616187 -0.42735385507060597 -0.8246067769907733 -0.7012118229711795
Ni 3.290410659223194 1.3079402184057827 0.21737596698061018 1.016168874904908 -0.6890561614452521 0.10760246707202759
Ni 4.754344170450269 7.803009921698741 6.291857267460044 -0.9632553147353281 -0.7594637646345372 -0.747770387457009
Ni 6.863308611224262 7.465044421159056 13.445924216556236 0.32829927756858945 1.050865140735513 0.9140181749760711
Ni 7.941502696822411 1.5739499305394502 3.969380059820681 0.7323280847600098 -0.19160323556471517 0.7704441749054409
Ni 2.2643771477001033 8.390599710219185 0.08517102925824897 -0.03502768102809451 -1.3477684204913238 -0.06866362391498497
Ni 1.370864670664528 0.6168457882481272 1.7562502153668662 0.8427505377793356 -0.36063604202808214 0.21776215334827015
P 8.175994888931926 1.6873761400298777 10.533088839397816 0.42752560476177986 0.9071546150870183 0.02451444020159649
Ni 0.9799552658737462 1.489774191387227 12.71967484966287 -0.12877910114964275 -0.8296183712727518 1.0658112205223838
P 2.614203188669929 7.338863753272889 7.03726043950493 0.41789913741560936 -0.010148401287911555 -1.3305744252105407
Ni 8.317952748128429 4.821977819414377 6.934185247117171 0.7881022543068362 -0.6870414450080684 -0.5909392652661565
P 0.9811809472080187 0.9811533002606292 3.9324096402063855 0.824084071718084 -0.8377299446362928 0.09167165477438406
P 7.606458557056896 8.997376480228018 1.256015564948449 0.00687538696359461 0.5948668824553368 -0.14938083656039436
P 8.568323503688708 6.078513146973751 10.562398289890451 1.4250483253204103 0.06310258488743972 -0.5082479596135118
Ni 6.642133032107407 3.101093579148296 2.0630078416931625 0.4733904856146944 -1.9025872858858395 1.191399839759187
Ni 2.0599832656487393 3.6546684067303947 12.455349758190142 -1.4722843754892387 -1.8584159906852642 0.6525382690248762
Ni 0.4918668410084962 2.9735029169452605 3.0149668870752797 0.1454190236991689 1.2169638042712203 -1.5933820488342236
Ni 4.373839233527109 -0.39621854025449926 10.100122898237965 0.21588344826831848 1.7365778396298288 0.45170168778735115
Ni 4.044720756152099 4.1192661419636085 1.0739014362334565 0.7767212661634042 0.9397050382192138 0.6702757955139552
Ni 8.006574395328416 9.503914634651265 12.254836585987366 0.15467525219011424 -0.08680609915196663 0.42249858386083367
Ni 6.1763556937855695 3.788571788587391 10.638295611429314 -0.8304143848114859 -0.8095313707148897 1.652726709341128
Ni 3.4638215288999388 2.785614262485492 5.249515743236736 -0.9054656574203696 -0.4198945705790833 2.1730349425532833
Ni 7.285035146705325 5.021809955146456 9.058927800766414 1.2868882971764997 2.3445172389984075 0.5233002259609439
Ni 1.8058156626469533 3.79284784978365 7.329019596872364 -1.5550132192480381 -0.8517216309296944 -1.623070577037592
Ni 2.2608383384342337 8.40436789001921 8.854449134743055 0.512819123923962 -0.9541623512951245 -0.7737747819405707
Ni 6.196620906222152 0.7185192804032325 2.9723583333233305 0.38323269638167545 -1.7282973447885914 -0.8866498102654471
Ni 5.050599643028167 5.935836467145119 10.484127017135735 0.6637791320460181 0.13399818345673695 -0.6229091333045336
Ni 8.158079667023461 5.558335831838297 2.7098948029748366 0.826511450212654 -1.5897629640243975 0.41332103112662366
Ni 6.724041721573682 7.81146067195083 11.132685697169567 -0.24520996514657767 -0.415429335718878 1.0254379589116598
Ni 6.506782793337021 4.96807350507019 1.0714998380702125 -0.058394380778492974 2.1798015718531554 -2.3552634217713178
Ni 6.5699468524731435 1.5085464686647703 6.111967796445001 -1.0842401166515327 2.5074830133320885 -0.1631138698757707
Ni 5.143723777485492 4.696737147739458 8.407914071804385 -0.23608409158590954 -1.236629658131264 0.3636707150893479
Ni 7.224562057115126 8.917320136236846 7.010162744803463 0.35354853905368144 -2.86289971594276 3.493971587563744
Ni 4.729581721238311 8.385125614636044 1.770600824191898 -0.5934792580791908 -0.3333504668392517 -1.3148359314293614
Ni 8.009919675962559 6.825459940247891 5.1822101713816515 0.5256095908204109 -0.7713913693100586 0.242233399016757
Ni 8.618696241832573 1.733758502100508 1.3759010229140014 -0.156098357789886 -1.7618363570863012 0.8600370927739253
Ni 8.871794829535293 8.712999979378521 3.1465691213445477 -0.7280914209708429 -1.318376083372136 -0.36574019602386687
Ni 3.3079019612716856 0.15334840152101956 3.3298047945586453 -1.3592769353515557 -0.043427217945699405 0.2522956683487655
Ni 1.7533601877997393 7.228340473258372 2.6582890109773962 -0.7534579247600894 0.5289103730588697 -0.744889209254472
P 4.799252028660121 2.7632663133455595 7.0788303895999425 0.5865660758991253 -0.2133912779740841 0.4994581292360237
Ni 4.5320627134378295 2.0114075790852004 2.3266721711232785 -1.833661152338087 0.11081583180300271 -1.3195752458865597
P 8.700107286245835 3.867955390192082 0.9965415911776844 -0.4667683523124865 1.1001760711554989 0.715809004059064
Ni 0.970269618638254 2.7866832777845567 5.127678410785478 0.22956351685857238 0.8124729698417168 2.1305646892042147
P 3.340516143542292 6.560731203343274 1.3564781208078893 0.5456006892303572 0.048818307054283666 0.05249884122966442
P 9.837797602626418 0.3952831518678176 7.948309375269733 -1.0190989040675096 0.3625134615564531 -0.6043020597263077
P 6.397061274796801 7.86566712013272 9.124209616072578 -2.1586773882800308 -0.814972596335119 -2.48640948049124
Ni 5.831137477380679 1.1087255311654052 0.14951745617773304 0.5894248855041592 0.18626459696062114 1.1568632394348979
