# total energy = -381164.2603824834 ev
CRYSTAL
PRIMVEC
9.28486023576573 0.00000000000000 0.00000000000000
0.00000000000000 9.28486023576573 0.00000000000000
0.00000000000000 0.00000000000000 13.58933148309484
PRIMCOORD
 96 1
Ni 4.961606463292619 7.160772029978199 5.058098444611246 -0.5576725327932267 1.537215528944985 0.8966102639122688
Ni 0.8489509805905412 2.434722470389589 1.607019892405537 0.9246329743774399 -1.1892113167483003 -0.25429135862255564
Ni 5.951502550462475 0.08367701724719251 4.534229918422563 0.6520415318941157 -0.1420269672984844 -0.20088337531506048
Ni 1.466255840600452 7.711132119337882 6.837621754987488 1.7014272598706246 0.4650164026183862 -1.4970474413665313
Ni 2.6117383304257316 6.843842611332844 4.425515347114344 -0.6544360002682212 -0.06095725640966276 -0.38790850459079
Ni 2.118981513852004 1.062141584517941 7.379917014762729 0.7471191270262552 -0.8806318862061414 -1.217073590376207
Ni 8.817079674359391 8.869084176434525 6.5726708408086605 0.8385979490635429 0.47333315001419773 0.22495969953797385
Ni 3.3814718121312817 8.209227730536357 12.223046804715029 -1.3437184187916664 0.6592619609019549 -0.5150603545496548
Ni 1.168806058690257 8.577047468030813 8.945123467667255 0.49158232603237273 0.1804636740081279 0.4847388207479781
Ni 6.658934620112294 7.9835870575440495 6.879245783340072 -0.22036308130622695 -1.0618992870624873 -0.21688283606711034
Ni 5.644981460120321 8.246645717210663 11.041195517419958 2.706783360430745 0.8687292212312846 1.0943149843890316
Ni 8.122117171980937 8.88937159600856 9.237578923266753 -0.1330874987170095 0.3157363533019143 0.31459761171178074
Ni 0.2559780252651682 2.1113215041730204 12.374065056143714 -0.03500248421711391 2.459883409176254 3.9847576429470664
Ni 1.3718473819145092 3.8881002098691324 8.976365165325248 -0.3707584751740647 0.4644196495746518 -0.7030751014321635
Ni 8.023010574025216 3.871341037177538 0.4453919591490036 2.480803961379005 -0.2613989162016143 -2.3538282319866886
Ni 2.314037857289679 1.6161691936633191 9.67520966776041 -0.48249476190880775 0.4458678547143934 1.4062476476741395
Ni 7.435381055754699 1.0795878368655891 7.471482449250242 0.04299527261460337 1.0152718170119355 -0.7176748536232093
Ni 8.114763562689113 7.536493183517279 3.1153677183135082 -0.37135625665906363 -0.12461108581488217 -2.0823693604459104
Ni 5.385646029400704 1.8706857819303393 2.1253982807479375 1.0135661471747384 -0.9338658058296175 -2.5598622982647528
Ni 3.464385613868641 2.6656833682862087 6.045852514529052 1.5566399562181836 0.35912629025177506 0.1367397507576161
Ni 8.45797842060865 2.4370529703040433 10.534966368671435 -0.22722972651907317 -1.1025486851527335 -1.0302927159007997
Ni 2.7432583753988222 1.639910581238059 12.610872630518946 0.6225152403002246 0.24428693911167604 -0.2069329239432501
Ni 6.5078142352212245 6.2387668407146775 0.2655869271036893 0.8982668256790852 -1.2422989406018992 0.12259225561264048
Ni 2.4165241443643684 5.543228677002772 2.1737361915233984 -3.1540208417991553 2.013942278021764 0.9281039636451757
P 7.665413467629623 5.687831090021544 7.375175236649933 -1.1227097334816405 -0.15773537917267674 0.27445112139988215
Ni 9.178214312497643 6.396507330940433 12.788389873006802 -0.4124705102008703 -1.2246796848582393 -1.2240245677727437
P 1.792609392366011 3.612219158242911 3.2137955929873683 -0.1493839218841879 -0.3862393444184832 0.3590756395194977
Ni 7.652878906336741 8.245048721253347 13.210256781824121 -0.18320524130900706 0.5538685856661041 1.6101050180158594
P 4.372482082527172 0.18259513254050766 3.02460449574874 -0.31456547292226467 -2.2804340353652535 0.045724498620308356
P 1.076653821037033 8.193155637500817 12.307898356779665 0.16129712838200608 -0.35723678653854607 0.4715004676808331
P 4.390828966315865 5.741293315150738 1.5218424417472853 1.5199402868043048 -0.13909950923904432 0.3372431170254385
Ni 4.202931250105457 7.18883087755382 7.732832694636937 0.7290005630486736 -0.3791024762633858 -2.1116269717594474
Ni 8.137511470220637 2.13220315480094 5.232735523459806 -0.4184388119691632 -0.731876599044888 2.145223833878286
Ni 4.128457386305304 0.47990099911733997 10.563150561859986 -0.3994345029525186 0.30871827011286834 0.19732111188509888
Ni 8.641892931785987 3.538497368120332 2.775647681779629 -0.3287741603224789 1.8206999641917287 1.2601565376086103
Ni 4.940808376406653 6.155045256138443 11.308742478515446 0.11467377209651218 -1.7145555697224664 1.5853337246084505
Ni 8.810580272207526 4.197230345932249 5.164842768581428 -1.9194079569876041 0.658406297769879 1.18370375666651
Ni 3.1197501723359085 1.090599681082891 1.5212983489385723 0.792650792909467 0.3596405108840322 -1.4222417091095507
Ni 5.826407628759515 9.259382560514215 8.526163648583864 -1.804460876625047 -1.8154788250021054 0.9702381738110645
Ni 6.082558352424719 6.475261515300599 9.111021636079622 1.240408922668038 1.091117046277024 -0.6863729581861341
Ni 0.5844271699816926 0.6001705789655521 11.012291747564595 0.409888608406307 -2.9395970087954986 -1.83006006525039
Ni 4.032591204565301 4.361061704460324 12.301008062012668 0.09598853698218307 -0.1058623444524693 1.5830377294854219
Ni 1.4009182792537782 0.11949986493622718 2.7216710753944144 -1.7673932823487883 -0.12017387597913497 2.1835936919057364
Ni 3.8577201472392733 7.3977959415964865 9.978279575559922 -1.0897319930040394 1.2835191235939507 -1.9055407120872085
Ni 9.182568911939391 4.427244188086741 11.186846191157223 -0.7038672583161555 1.1970634658028674 0.7917835598131654
Ni 2.864806480498908 7.820099238844002 1.8468719724459075 1.3971379720633874 0.5965740949544306 0.4720707383620063
Ni 8.449900592219905 0.06152334076955094 4.274877774954555 0.8581918120350703 0.4330758451560477 1.1592826475096678
Ni 8.904366645258934 5.70315110937951 1.5028307619670598 -0.9863692750449722 -1.1763195483872968 -0.180603799130418
Ni 6.491491450959827 1.7830181317619023 9.565394840516483 0.7897295054976141 1.1164251860245094 0.7918900034840426
Ni 1.6375986510440386 1.7634177918439218 5.004040131456122 -3.3698934914341963 3.216841633780118 -0.5521860557573586
Ni 7.432298482162672 0.8140956153361127 11.824648308582072 -0.42841700622779766 -0.33569377026044767 -0.9878304329715311
Ni 5.261915982149635 0.35562221662744886 13.14565365292061 -0.05491233576716349 0.7006145557068127 -0.15260191460085332
Ni 3.7797923154384163 2.1646351715387446 3.5248690502938933 -2.035961462605332 0.6048743872900099 2.716715531942792
Ni 4.786744690826809 2.672043497534819 10.967379021723165 -0.5750051105344034 -0.27862916403697174 0.06728088463484541
Ni 1.9951029088374632 3.843867135795585 11.297925616362699 0.9887444601453682 -0.7028390741619573 0.6630098579801614
Ni 7.473504691805493 1.681469615569125 3.1816569778324193 -1.3851831136943564 0.411626159922704 -2.1777459748757075
P 3.598988232433758 5.736539466719661 6.0275344138070315 -0.5102675611467018 -0.7391823886776817 0.4342549530658134
Ni 6.239379641488997 8.681465006030626 1.92142290058586 -0.6443202519904581 0.5916015814405037 -0.7546874262918164
P 3.503140620414188 4.757450956842333 9.970859115274537 0.08483971945421517 0.626431030414863 1.181340655750972
Ni 6.794595712742144 3.2883632338757116 12.09618961654289 -0.23945197961687792 -0.7583522767379134 0.5950815695693041
P 5.687106870924621 2.1370962761352725 5.489600252875693 -0.20021026050743584 -0.8033414398540939 0.952935677976875
P 1.2464274901039551 3.67979437090187 13.586110708864304 0.10132563292438033 1.5482594454639724 -1.6439682464222074
P 8.362279366352553 0.0278870776616079 1.9542003141237354 0.9680247110995134 0.9859751249303471 -1.3916023869571388
Ni 2.186798132876603 6.377176251968744 8.621235046289296 0.6399046394212656 -1.2599076548225978 -0.5559167264443845
Ni 1.7250434645672694 4.4658877763096845 5.2211025220939895 1.8151517806799902 0.061220537373378445 0.6631142447685097
Ni 0.493326906991049 5.693002757162385 6.964953399516712 -0.24314356953585223 -1.3320808345527382 0.30633588592362077
Ni 8.017718203701556 3.9696119977137325 9.04156623922673 0.0704176304916142 0.9763226894422475 -1.29011194632012
Ni 1.898363950237066 6.6783864022668045 10.881467138621753 -1.4588755582825004 -0.4186316447062597 1.3007326592587598
Ni 2.3671379728704136 5.9410942221592755 13.290026729892022 0.05423562141511304 -0.4453495203170782 0.32267190407948304
Ni 7.001285986031657 5.248127964727465 10.960896332319692 0.6041732474579273 0.11442180398670616 0.1468305593347149
Ni 8.124819066304068 6.852969628926105 5.358109919455297 -0.39816360665989486 -0.48324321003905807 0.7496094975482768
Ni 0.7637688875021812 7.442112579411987 0.9968792305390245 0.3810256614280277 1.4593337288658417 0.5450658997728096
Ni 4.560546926221485 7.374880906581055 0.2388474581648964 0.4830488346400649 0.29926638067134914 0.041647243227141174
Ni 5.831802132545564 6.6551185425631285 3.08812129600687 -0.28042636514671054 -1.1882918902578243 -1.2793395382949644
Ni 0.3217956138850583 1.8020242406259979 8.5433954206605 -2.217178984060349 -0.24767899551236056 -0.4086321102913866
Ni 6.66713315168386 3.31314452579475 7.125892524087207 -0.37336583088992475 0.199048893209483 -0.25027683814652385
Ni 0.25714698916648215 5.851402472463543 3.747489358257627 5.500665668663526 0.41080494957298924 0.4314491081859021
Ni 2.7806392226322605 0.07786190929331702 4.7797485486533375 1.9902919855926755 -2.894492403147376 -0.6475642128490525
Ni 7.385707053594018 1.5052151140707724 0.5079607751789831 0.2370102029446047 -0.219059532003455 0.530860554806705
Ni 4.3352869324980725 1.9546673425926477 8.660766267148981 0.5110054677539909 0.8903946220198602 -1.7620009076886236
Ni 7.851528490678376 7.3635626619765935 11.064922977704372 0.36664728121916856 0.34593293148995263 -0.6585327960454143
Ni 3.791212693505264 4.474151301902769 3.904622618625194 0.6131641381026279 1.6810129578803306 1.306281614101447
Ni 6.3753657042264384 3.7899035282146745 1.7651178497496451 -1.3397481212900086 1.9189901527238953 0.3257639127412454
Ni 6.041212869878643 3.6814377911602696 4.129063687677471 1.1608489635555232 0.36521646230991295 -0.09879541030335888
Ni 5.747439892614359 5.263429414364998 6.018905064721399 0.58198462717603 -0.22970904129750114 0.8184991214311389
Ni 3.5036234331454694 3.7519284499273504 1.647556663626717 1.479207327861317 -2.988093670844305 -2.3907976101221857
Ni 1.1954350377924683 0.3564383558405187 0.526987310735556 -1.1144567494442288 -0.09362235074285168 -2.7012876274234965
Ni 5.657116772423875 4.201993479223545 9.233053482397013 -0.4945334382408968 -0.7158735387484123 0.2502696390576722
P 3.6020800908860022 9.116999229087295 8.477351281451316 -1.0280591985845906 0.5693350567328195 0.1350101696610191
Ni 4.460790388050579 0.30166696542073346 6.322993521686713 0.43516692335712154 0.18985797073883431 1.4755944136990782
P 7.65525583055228 5.487863055529101 3.399534579197335 -3.5594138763279535 -2.316807946008597 0.013635588505563614
Ni 0.05983442469608782 5.982690395931209 9.330625292958869 -1.4581795606567403 0.9159979244102612 0.34666621011155135
P 0.8792066260934929 8.212143176644478 4.672936445203572 0.4156195973528133 -1.0913854694470624 0.7982699388684574
P 4.72902999971825 2.572714062933893 13.410196961735913 0.4164755175952053 -0.5641067184543447 0.4076759170257043
P 0.9450316426015566 3.0298912951562706 6.792613395085826 -0.07978261664628196 0.10067951469994918 0.07081203771655546
Ni 3.6056454772093107 4.236904553639275 7.950655515326573 -0.045556862694192506 0.5284907690229479 -1.6052818855956033
