# total energy = -381170.1729632639 ev
CRYSTAL
PRIMVEC
9.16327880089785 0.00000000000000 0.00000000000000
0.00000000000000 9.16327880089785 0.00000000000000
0.00000000000000 0.00000000000000 13.41138476352705
PRIMCOORD
 96 1
Ni 2.5938309405928965 5.1954781578130556 12.981133857049853 1.8794728113555632 1.4744780407064477 0.7649466421259794
Ni 3.255694552301126 0.45027892769675365 11.217737866202416 1.4495056870318261 -0.02411334810843589 0.2883199089621744
Ni 2.3865392525953397 2.304885277184402 2.446611874298743 2.281358861172368 0.5373495049651584 -1.0877872105728428
Ni 4.509020306400758 4.226287345868328 2.4643556469376993 -0.35395323069126783 -2.9355629479354413 -0.9040482082475526
Ni 2.9058955558543595 7.9312940999762 3.1355548068614665 -0.4722427451634964 0.6091871557327508 -1.5316390632984718
Ni 4.11787659700885 3.726586275159691 11.61877883278671 0.4511087913983586 0.9640467002883719 -0.797990974175458
Ni 5.031675389947954 3.2553371844365735 0.3903776593027641 1.6332619157482968 -0.17095084942168623 -0.3806096569365316
Ni 4.9116547671298125 8.889718059591464 8.924417562911646 -0.39679526555745853 -0.8503476334003033 -0.04847172234814232
Ni 2.2930921376541726 9.566646101282364 0.14658496741653798 0.409208808730463 -1.1876043772724967 1.547049484316271
Ni 5.949084514646894 4.414107066887068 4.854531804800753 -1.9516639888078322 -1.2692541290345043 -0.7556310211520084
Ni 6.63327903625036 7.5007574559763235 8.50959044370635 2.8963099159720893 -0.24784303189405057 -0.8984653148431365
Ni 7.898123031522874 2.8520979473213535 9.345977859216251 -1.1043623413227046 -0.07652708582346175 1.2976123684622232
Ni 6.506660852855866 5.425448960291824 11.18530902331393 -2.7731769573646305 1.321961229620233 0.6588950644808395
Ni 6.454155266602396 3.3445966810674728 11.688061465789131 0.49798617267618744 -2.8136877729944834 0.6429961338623958
Ni 6.869132663576376 3.6898690178965747 6.893236667876507 1.6487430421030316 -1.804978182581098 1.2716480831879777
Ni 3.555700292953589 6.569951617995956 1.1609873958664352 0.08510531441077601 0.16347510986993136 0.3992912925064349
Ni 3.6792396147457853 5.763610592944191 3.539398820362852 1.9047267008263453 1.9471614729517888 1.8573780363390526
Ni 6.201367900463743 1.6293867069517118 3.609942320497641 -0.11945191021144591 1.2698100015379745 -0.7532463229699157
Ni 5.188733984779451 5.088652656147619 6.932170522227706 0.030572216359902187 1.1007016046416656 1.7212728338416419
Ni 9.172166958487967 9.26700689177303 13.003530742550852 -1.1512919159947075 -1.1072861998377188 1.2830552965836548
Ni 0.5700942930747422 8.309929934108773 3.834127428882091 -0.890214387688254 -1.8185474366251004 0.33386288769929595
Ni 8.85585058196619 4.3296674547883365 2.307429003317729 2.2503271886775438 1.2657715698025425 -0.924949220066278
Ni 7.452054630332833 4.654853884973878 0.1555448212103675 -0.1808835351543659 0.06712173334916183 0.4544072596439722
Ni 0.46706513772428104 2.712376275559938 3.7475161197603106 -2.50919433959624 -0.9824503996065402 0.07291340033027442
P 7.106085884331783 5.020166312053651 9.160686286757256 0.6331212979508452 -0.037115416795058656 -1.0475399330170216
Ni 2.679764167099885 0.20186336176779177 8.827802702565972 -1.2751162442422361 -0.6360451564658595 0.4184179860335568
P 3.9847616491023654 2.317915459322698 3.9386016332643448 1.0823976641261555 -0.32834427187391196 0.29717838779406885
Ni 5.146866964955349 7.967663152653342 2.180302257962141 1.0370950835346138 -0.2564158611647261 -0.7931004788523761
P 1.6146613182764367 0.04488448745992549 6.558233617350068 -1.2407382809829985 0.8634304347261903 1.460544204234175
P 0.7783105558808465 4.487798153213491 0.10130554264988918 -2.506597011182709 -0.8813903616387208 0.5109260206663072
P 2.883225604651727 7.313038531021944 9.848596517824209 -1.611304694750915 1.6815729441488585 -2.015228086712723
Ni 9.088625347689907 0.849776798168467 5.430363226593348 -0.45255040894089166 0.8229957237499116 0.11107808432545387
Ni 5.861538551110131 1.0288620820464025 5.868701485974762 1.2557383539362568 4.797564341979118 -0.5428760912103425
Ni 0.5445104192842206 6.329754596623842 5.663453209100158 0.8122328288064528 0.6595910621065996 0.8637561934967254
Ni 4.495321204926249 8.312037488181774 13.27091337880897 -1.2189962613202168 0.42732762981836087 -0.7586718648608611
Ni 5.620974998594885 8.33336960071198 11.054762542392933 -0.13882285853888995 -0.5135680862748445 0.22921487526990203
Ni 0.5375454112368798 1.918689738224759 1.377027265922664 -0.771569803869452 1.1300294070715056 -2.137724183067131
Ni 1.9660638884743997 7.842960094481706 12.131858290219617 0.2823580349517847 -1.9834564507280807 0.8188169097818736
Ni 5.295742752016453 3.5990884170216835 9.311806160742178 1.1209978929968565 2.282563937224063 -1.328233692892506
Ni 0.9670191149216781 6.73437748880438 1.4522651136730989 2.76760563392444 0.002581387573931038 -0.1852616096174035
Ni 3.8926798626693597 6.359232863810128 11.241328726902166 0.3906881242184562 -0.846474266487826 2.452767624067079
Ni 4.031283614444227 7.0022476114828605 7.537479294878728 -1.330507062307715 1.5027740594376635 0.4708270957628924
Ni 0.3927005504223548 4.225737549153632 9.03762345545113 1.775210207290046 1.5544306072716907 -1.1528248076994663
Ni 7.770872581906479 7.125768606717901 10.516966057323007 1.5662391698708444 -0.29899230107435604 1.0561811536317876
Ni 2.257694392506327 3.5176726868537807 4.5783780782875185 1.9108736942643476 0.9523507520076824 1.0073214518166071
Ni 3.0285093865101507 2.4065793428460096 13.191544725075453 -0.5521474892099394 1.0716548237873544 -0.15605027816076997
Ni 8.697545781248047 6.005759392653476 7.760577638423796 -1.8988365605941555 -1.433137787196764 0.7392746912811721
Ni 3.009303154610103 5.038318766917198 8.72198699419986 0.44579534960524514 0.056527245662767164 1.186577221559563
Ni 7.134473721367255 1.214134411620384 8.03516261164443 -1.4810544083723847 -1.371110437651374 -1.542430497487021
Ni 7.317739292932596 2.2327977646091752 1.119669256429171 -0.20680154057170835 0.3471745172065376 -0.26470586908766025
Ni 3.1161653093898534 5.390555195465782 5.881937841881069 -1.1990424439061094 -1.1932381785195063 -0.21131151262691997
Ni 8.711583924029954 2.732837876625208 12.552358395192718 -0.37223968770528154 0.5233940712263309 1.257254019249835
Ni 5.893738312034161 1.572785135173756 10.0394135472659 -0.9742969172614705 -0.7736662813871643 1.117013968648444
Ni 5.8728093837614 8.324829425077034 6.667187748629237 -0.7776108678572091 -2.080281624678946 -0.4611978002032444
Ni 6.452872407601438 0.1334301646895778 0.5422260139346586 0.7539284366386048 0.5487585181330485 -0.0980060816328441
Ni 6.546860155978723 7.104454820744851 12.880092216823018 1.5986047306857436 0.8383889183765303 0.6341158006536305
P 5.826947174477173 5.780709270771237 1.5819667403091797 0.5960521610126895 0.8608678162053367 1.0545770423694611
Ni 4.6136099680930975 1.395145816655471 1.6503376270930614 -0.16994117721024926 -0.7868257015872577 0.6637577918897795
P 1.5443606450239717 4.937751784520716 7.257893004210075 -1.4662158006976556 0.2536681232162599 -0.6528671131192046
Ni 7.273370698056627 6.713750948724701 5.901290686238369 -0.09931220203877736 -1.1424558057603165 0.1885320528385592
P 8.46328656439465 6.296317793091745 3.753403526246848 0.2715092651627389 1.001662453758617 -1.0215689628745566
P 1.2756291741591341 2.47727403707734 9.673859209631662 -0.02730228735937879 -1.7672894097810723 0.13849864243025178
P 4.749189837937137 1.6170346074282076 8.064292674244742 0.34300701609240924 2.4318311310247283 0.4661805981298165
Ni 2.172787453200104 0.8468867001048815 4.199963079168683 0.8564624880487895 0.0030210462145109263 1.4790705451731365
Ni 0.7470234575032115 8.679503285727439 10.484966972199842 -1.247493083208329 -0.01674842310293245 -1.0656453843684808
Ni 1.7736167117736352 4.164865889558204 11.297280622228923 -0.5420417682345052 -2.9159171486800552 -1.735206413203599
Ni 5.0900454744915145 5.421151382638616 13.098295536951575 -1.101679909394535 -0.4793652151408905 -0.7252182131881059
Ni 8.937101373119683 6.403198274428653 12.835834497617848 0.2674461508369588 0.48884024451086133 -0.5897336749938296
Ni 6.769995152638104 4.009035174056194 2.6080715918313815 -1.0099221226642476 0.06908142817869392 0.14961789227186492
Ni 2.5886353616390196 7.724185677550208 5.487442205185232 0.31470585515487093 -0.5068533932588303 -0.6558850740099221
Ni 0.8160861718197525 6.0734302049539775 10.67365170671637 2.44285216472558 3.411747194245189 -1.263892607612275
Ni 1.3257156548679419 7.340986530685659 8.151117487757396 1.4912897129471478 0.29539249953823965 0.13478031303840016
Ni 4.407564485982185 2.95231672513186 6.295947596637184 -0.4509951486386298 -0.09424995702452155 -0.585835625491004
Ni 0.1877134269872318 0.889481284248098 8.394762650858512 1.7448313378878726 0.306564199884343 0.1146110371793768
Ni 0.3995024521110024 3.233574397813189 6.487891709344002 -0.36427929520762425 -0.3712675535999993 0.21706898393598742
Ni 8.213431447401042 7.523015059642933 1.5914754744898474 -3.137772498261093 0.7118302219169741 0.6672192680758187
Ni 7.01721124540117 8.792193285682968 4.476545647119379 2.588873340785122 -1.1798404170563614 -0.50741260819641
Ni 5.182136424203098 6.252819709680712 9.423523020512695 -1.0549735064769317 -1.759524935344305 -0.09338375236948433
Ni 2.1704599804412243 4.6957495972686845 1.8792299116831677 0.05674296121799905 -1.7701744446383514 -0.5545604695268062
Ni 1.5751309344897926 5.873139261790217 3.6616030524661944 -2.643197151038667 0.26099782410845374 0.7211113901085838
Ni 3.777973941426613 0.45142891915832617 6.64216283483199 -0.2770646477633293 -1.3796166753501724 -1.2880193254571495
Ni 4.819756246268371 -0.35515218379218993 4.263049503196477 -2.090447252358038 0.08215008843719401 1.099089265849223
Ni 6.195292646766352 6.517693440264099 3.9119264129951516 -0.03507370377468153 0.278017755705218 -2.4772360415220884
Ni 8.52605502265578 8.20535859897359 7.012732234832114 0.23024357364473252 1.5423063132043309 -0.11214200681359397
Ni 8.311817569495895 0.6644339113494329 2.5960282947959654 -0.8544421151846511 -0.792624310546906 0.5305517653170346
Ni 7.378070319091905 0.7303737803265004 11.575299075932833 0.5674892617733324 0.5157535239619376 1.3941215538345668
Ni 2.3338962171631956 2.1107337306680796 7.418909219059526 -0.93443479095921 1.1337518502284152 0.38084054200041506
Ni 1.1510727284447502 1.5446905230527894 11.671780152411266 1.289282251329973 0.42214120052141496 -1.2514027026753802
P 4.729158910965046 6.714722256253998 5.469162380749447 0.7132157894105909 0.8488247689978736 -0.2623965042281933
Ni 8.53706012022828 4.589473892317943 11.085113153699869 -0.9557764898597796 -1.7518543061729248 0.9373771614169856
P 7.697254801808681 -0.15771376924984332 9.673054673772489 0.4224278785238983 1.4953021765406507 -0.8005505073725181
Ni 3.4138619038405933 2.47193184566621 9.804580709173504 -0.9739924986471742 -0.7173892040619904 -0.47268780312071496
P 5.063600252514636 1.378221241121412 12.417386050718418 0.2011890794809374 -0.34954584565219154 0.0228247112039994
P 7.764678205587571 2.663471857787726 5.00264795606772 -1.1514032447615914 -2.1143829372380294 -0.04164235813113474
P 1.3921127714460648 0.050197356379604714 2.062281978857635 -0.14449496922300278 -0.2518097298512824 0.0966894197039496
Ni 8.163235007349297 4.654441537437855 5.106800529371876 1.3955235763884162 0.8721978965061753 -0.7461472500312891
