# total energy = -340864.24787123385 ev
CRYSTAL
PRIMVEC
9.28316029198031 0.00000000000000 0.00000000000000
0.00000000000000 9.28316029198031 0.00000000000000
0.00000000000000 0.00000000000000 13.58684344353681
PRIMCOORD
 96 1
Ni 4.37215508269372 8.84719543320624 6.9953497308086545 -0.8158670831249304 0.3153509449380375 0.03732727569554862
Ni 6.928171211536118 8.961322608390244 7.331216334321938 -0.5275392037429559 0.03869073170197853 -0.41455078976866666
Ni 0.17634755843362043 0.3342949644406739 6.246578359742762 -0.04667632101061639 -0.4540491049736051 0.22605421815373328
Ni 0.37565794267943803 4.293183236322293 3.7703630635044183 -3.3601582664243037 0.19685419955100936 -0.4571143741624902
Ni 6.8988457075173875 2.3505983533037913 2.80088733650497 -0.8255657984699332 0.3571239151097656 1.714862559439924
Ni 6.7127276226577735 7.399542252232244 3.722958604412413 0.3273088886308621 1.1848388987122176 -0.21618863821356316
Ni 8.540470527133792 9.228222755918736 10.964026167121217 1.0978818758046833 -2.546491276274485 1.4681747241962393
Ni 3.6529979219380997 7.190485477777731 4.331200563516945 1.5277731525851623 -1.7861489656897367 0.4886903491965584
Ni 7.4240405127911 5.27108992968762 2.738713369057852 0.9622618404738073 -0.7721331325720896 -0.9768839612623563
Ni 3.964652186235918 4.67991970274214 11.702579563425028 -0.5305664206050541 1.7210650887062102 -0.21153494149163565
Ni 8.470299116916134 5.727125189238148 11.37070750387479 0.8022613194160377 0.4723378759804639 0.10578495424731459
Ni 1.633140010919626 9.293650471121019 8.099579815622565 0.7546249484849972 -1.1025150037013205 -0.2849337660987609
Ni 1.0844959422235292 6.993338998244408 6.624740899125034 0.7607398031334834 1.7908453427241415 2.1288057975315784
Ni 0.4342681048106994 3.8346508065973306 10.60962666198622 0.1868019575213299 0.330631782356508 -0.1639880449506079
Ni 3.6395466223739525 4.852428674309111 2.7458057036796655 0.006890813582562326 0.953383564147571 -0.7402193145826285
Ni 1.4113838729014476 3.290917529805605 1.361170329442216 0.2926316489636509 0.1910082822931936 1.7752755133103426
Ni 5.42003823990621 8.54624465296464 9.475424036866746 -0.12562538601200945 -0.13179757626099237 -0.4222471299716599
Ni 4.68371651538654 6.175993848882865 9.89465991988019 -0.2553781639288311 0.41749907376371326 0.38540887809738783
Ni 9.12563454923593 7.164353380970918 3.054037266701224 -0.8948858250219942 0.066588229443195 -0.8594143715882618
Ni 6.835200359131059 3.511364742193318 8.77704630257378 -0.09842722833066274 1.3529476506994185 1.3858809110923294
Ni 8.881543127055338 0.43664459389863697 3.29605947240642 1.201093412897867 -1.5125622491726791 0.5611095834992337
Ni 4.215418200815835 8.630173707042937 11.71850296863026 2.486452160803718 -1.8162689250035688 -2.0520959062733497
Ni 8.285768452501978 5.851148213514892 0.22578502967507258 -1.1235674534962456 -0.49948255471605596 0.7077269983818779
Ni 2.3233986930395045 6.7274785646918875 1.3748258585373574 -2.4834478267597553 -3.4654963629421864 2.1602838135352025
P 0.5039363677292704 5.285098218881752 1.9034220138181805 -0.5960935557735864 0.9469100406080851 -1.3119426690419664
P 0.8400805377414957 2.130308954644574 3.3906650893754864 -0.4279704056086823 -0.6009308292612296 -1.5222735629231718
P 6.158346560772828 2.7799445264175193 10.880914959482949 1.1485629470993188 3.395481110095313 0.12459745896812734
P 7.486571881917459 8.551860965066993 1.8394953856687086 0.6187786560759279 -0.9602162707986882 0.12452443963834682
P 5.47683261584372 1.4430951491686153 7.79392989953599 0.24592627448731194 -0.4535467114158898 -0.7847474789019904
P 2.6843186901095297 4.1222616852007805 8.170353702956659 -0.3910488499919846 0.053085566971069864 1.1666403734263198
P 5.8815598473120945 5.857210117321234 8.148370250577186 1.0044582713361991 0.7583885292924876 0.26501645834954357
P 3.1766603903746047 4.702589180682545 0.40952384049859897 0.45938851490864757 0.8712946679656156 0.5970389504059911
Ni 1.6588172328619517 4.718639765186624 6.10534342758342 1.71306304433734 -1.6580779463507123 1.2909670952315637
Ni 7.066917328365475 4.097030054962443 12.375563212170912 -0.8672624068777709 0.3415360879738376 0.07146201259572854
Ni 0.6904443453298741 1.35795928422535 9.767976341804216 -0.004192183704476651 1.0543986078100678 -0.7833613971877412
Ni 2.8913610187355943 2.8123613228826683 10.363501299340133 -2.303864755584368 0.6539171516502739 -0.0805860863841838
Ni 5.720747657974815 7.485949910163975 0.353641999238216 -0.6306502107025332 -0.18358627879750963 -0.3922919783704663
Ni 0.3739498411474829 7.637618186408993 0.4023349610075877 1.1090474055031996 0.19181098070014707 0.3753720626866761
Ni 8.644349093126063 3.900004256515615 7.43893255886481 1.8116481384021057 2.5344407728678546 -0.42422070875826295
Ni 2.1378932967728748 9.34192290571975 11.311835556617435 -1.0349366424307145 0.06755110757709655 -1.1582200105731084
Ni 3.8322650343488935 8.186113724537094 1.975771253489081 1.3381093001350053 2.041277732611923 -0.9076431246876626
Ni 5.572226373139215 5.297296291778433 4.044857764637762 -1.2077908795227004 -1.125645161960881 0.5967134487457723
Ni 0.9106269876433438 0.582726264154902 13.363380607685777 -0.9192385428347458 1.4631631299142607 -0.8874070001464458
Ni 1.407410680207552 5.467011032034978 12.752312854525119 0.09677529454953655 0.4167262001534307 0.3990005007388935
Ni 1.8148485945418558 6.06644327182524 3.8056065823417433 -0.5279516086900263 -0.625093285440046 0.4717673481889746
Ni 7.679021082237907 1.6626790276298504 12.58164844694945 0.17889555819005964 0.5393063715812131 -1.0051090175463204
Ni 5.692090541512068 0.7525997464559924 13.652060906378798 0.5783439450996491 -0.12042995785399904 0.9319660177037434
Ni 2.4338868693076043 6.705570305912462 11.016402686976893 1.1425604496589805 0.47295519784948875 -1.2862429502830168
Ni 7.281135540057852 2.240704299307676 6.968515827068059 -0.20098184856613774 -1.46221413573743 -1.5390890918186138
Ni 4.208855006342507 -0.09487018704330942 3.9377254508903246 1.1356446963757538 2.2363223897580196 2.478430576050822
Ni 5.494684133484751 6.853720264328072 5.957966756437438 -1.06335221745893 -0.16119197026270948 1.6614484054848417
Ni 3.266168623913255 7.349125407558067 13.152839455867355 0.20653954515957332 -0.42516121829466136 -0.18274295696060786
Ni 8.056994245145983 6.726327452789917 7.8011577683011 -0.5221524855097459 -0.344451976069052 0.08060177011346764
Ni 2.3121475025138003 3.4485270287704672 4.0919363847962265 2.7393080725313275 -0.13014281426638877 0.6031957140360064
Ni 4.5898359132525055 3.085536886908997 8.82086467676473 0.12675075786570428 2.4314824894360574 -0.003544008597516477
Ni 3.506862409350936 0.8280801961634608 -0.4051960310736126 -2.0671777403071365 0.8736842512437147 2.097247048888691
P 8.62814069489349 0.21287029678781164 8.461723333246459 1.7556983625093634 -0.8416357074486022 -0.106351625384062
P 0.6124741519763711 7.5677531204878274 11.714657883551261 -0.579973510283272 0.20001717066002328 2.0928939141263183
P 5.2490052908587 6.784829930259382 2.3476982939636666 0.3765964220120805 -2.984221846593725 -0.004681207525753228
P 5.123933269445484 0.9463532308266559 2.5028598235047435 0.4917671883496692 2.074980524181007 -2.547050234101749
P 7.029710421082452 3.1206365167585752 0.8448437273939207 0.0949518681875526 0.41596901027243205 -1.5668364371352113
P 3.6102304015157225 5.273633515664554 5.226668150064187 0.44888273028131725 -1.241414995335049 0.4055835532730499
P 6.479256136088903 3.1353224766691903 4.970270970325117 0.45292527578180714 0.6438019175931428 0.4623972198279843
P 0.8428682708395726 2.138431720081861 11.708285922184228 -0.04454179116611684 -1.4671622237713249 1.607417443881367
Ni 1.189377089549776 2.494552323173512 7.705126257879271 0.35467545356927305 -0.10573790305946307 0.751637583721899
Ni 4.3625377284159725 2.995852273320851 1.599389224290662 -0.04101423762883259 -1.810525080541256 0.8205578037323803
Ni 7.419519613627719 0.9186318569422836 4.866997666397429 -0.8317824688036063 0.4509272715151718 0.9702554002022451
Ni 2.738383816860111 1.177262565097594 5.137280597612034 -1.3541383285734099 0.03744091845527746 0.08240617031205807
Ni 5.422730356451139 4.948602217086587 0.9118644329379613 0.9911566691312865 1.3233200576409725 0.016781076113080776
Ni 4.886553572306216 3.1197546165110985 13.00146824075833 1.4508763421271076 -1.709150082436179 -0.7467473455091334
Ni 7.138546194781596 5.394110372630391 5.779802483494016 2.7706300225730605 -1.653011330461082 -0.24826057904744342
Ni 5.20637701784382 4.39919692922951 6.793707416645298 -0.47305649931404337 -0.8117846855254407 -1.0549151424351704
Ni 7.334012422264464 1.3899769047890096 9.893776163000613 -0.9629943477644575 0.24008292833265749 -1.5799498345887177
Ni 4.487368387656195 2.6879948216674334 4.1669898091207065 1.4186339371536343 -0.23586631914814862 -0.4631230422504153
Ni 7.672244375073085 8.489747338163124 13.24255284725305 0.30426974742321145 0.4296272244858149 -0.7338164963800782
Ni 1.9177802781631534 8.444686877097306 3.6220079472417632 -1.3824451459379028 1.2829185138954744 -0.6792970251759592
Ni 8.227962212069995 1.1568581783191294 1.2502913321170765 0.2649210704222599 0.9082609607773195 -1.167766259500647
Ni 0.4968440331074566 2.4854455427232507 5.437509147966752 -0.8589664854175658 0.24668732102305257 0.6462192687853838
Ni 3.4689871145119304 6.179410051946775 7.70171562471166 -0.12370991415685148 0.12773343349394775 -0.26506222398581447
Ni 2.464948324339789 3.095618399211732 12.83422746277497 -0.295669150238394 -1.0968688611591366 -0.6877572401281704
Ni 9.164410310643412 3.713347748347015 13.171031665498727 0.39828547694973987 -1.2235748818298346 -0.03894578513557809
Ni 4.663896967719561 1.508318634839903 11.057367417630218 -0.23618590727109648 -0.10139968069542536 3.332220659473771
Ni 0.3855175874462292 7.349292504447063 9.629349049429255 -0.21877851042792643 0.6310775280479389 -1.3441084551412334
Ni 4.01598806379957 0.9764678034878653 9.169556894824476 -3.95704937839852 -2.0861874486404197 -2.2282583818029624
Ni 3.2423109014288816 2.9187463422098756 6.49269072596415 0.8862962835807704 -0.0581293000425644 -0.1311622566698386
Ni 2.81953720594898 1.4814717346746078 2.5179820919588463 -0.5190278238378351 -0.8987139405188328 0.15028869308664441
Ni 8.317349764522149 7.643485143844839 5.3561784505123375 0.010093893900892293 0.2830848858154802 0.7054950237275657
Ni 6.9714121731439835 7.059230871471678 10.162606279597005 0.5622053876665737 -0.4787594632360916 0.15870159974068795
P 5.879591817286146 5.922934893659508 12.39724774678229 0.09006368685731586 0.26155163972939466 -1.1755255917310916
P 5.85659742872825 8.78542528324086 5.343814209042711 0.6275402043186418 0.7564915693800907 -0.35441680059124764
P 6.33499582192269 9.113659272191244 11.503789964483246 0.838146206238105 -0.16131846853824475 -0.1805760312162761
P 9.351113234614509 5.721304647604802 5.431761943301353 -3.649638514243166 0.06107244183128837 -1.6263582466499282
P 9.12335089175299 5.28790173335268 9.21205706022446 -1.0059464258459514 0.43515149673815384 -0.821330677342663
P 2.364810872028918 8.515879434969937 5.865223341464623 -0.04777495339143385 0.0835585387489464 0.26460996693974426
P 2.0383406835734883 8.978041580450304 1.2794079650245624 -0.8996145979562312 0.37377180807909177 -0.47201160298929673
P 3.085230542612505 8.135696879862918 9.345995428230994 0.6855386352102968 -0.6973281716460571 0.34406116838853645
