# total energy = -340865.2877959017 ev
CRYSTAL
PRIMVEC
9.34515515118561 0.00000000000000 0.00000000000000

0.00000000000000 9.34515515118561 0.00000000000000

0.00000000000000 0.00000000000000 13.67757918651981

PRIMCOORD
 96 1
Ni 2.335055238825597 6.820337236985648 7.234920095063176 1.9339956249937917 -0.540501677440895 0.3293691135940005
Ni 1.2617548192666352 8.58495485741612 3.8527411509016245 0.049122468558263785 -0.7015326966457079 1.8222405692059713
Ni 4.878199048428282 6.2174065139696975 11.527039604327182 -0.24606588538896979 1.7222639941103177 1.3755646167679858
Ni 5.892269874347095 6.9445436947122525 9.058386961317266 -0.17979415874492907 -0.16297605874632576 1.3418528263378373
Ni 6.408935469737266 3.018064596726754 8.406404453186488 0.038939100267358744 0.25985574008421053 0.3068395650329167
Ni 3.0426797355163018 2.654407227381103 3.2513112598103504 1.3938433604725156 0.41606388397908345 0.007407348207664663
Ni 8.676434581641967 6.01032721995391 4.30656338113687 1.1485796592698672 -0.3265938648417085 0.6019034775871439
Ni 5.026469280787796 2.508258345251364 5.775781580297897 -2.708574905113529 1.8440563795294822 1.657977930437738
Ni 0.35693259566571306 7.163827761415642 6.27899389026611 -1.0078007054458709 0.28350346141013755 -1.612707745746029
Ni 0.9979410880483657 1.4898794027866202 3.266698057842617 -0.4159795517953933 0.6374381801586441 -0.27423463451370195
Ni 7.419614004319477 3.3918614594614183 11.310290878228805 -1.8818497962281717 -0.8034041747712293 -2.893077782188037
Ni 9.370667470935016 4.22052440626686 2.8255824351290677 0.9808437172410527 -1.8339241761914866 0.3675993607197927
Ni 9.278402753672601 6.422813025205176 1.9618162818562084 -0.00655657017159516 0.12172990761234517 0.1892697023355321
Ni 2.659762001309125 5.200588212422893 2.5933646736326885 -0.403422283955673 0.16482442480897422 -0.38607736491932215
Ni 4.090346394369216 1.5023178043541556 13.379585790008544 -0.23646255797125085 -0.38027155687082254 0.5353409591755618
Ni 4.43712641342864 8.239557921325888 6.777199066079639 -1.4698091744758686 -1.0231656179377153 -1.512600815720098
Ni 6.746856281669699 4.138978582015687 13.296357837821867 -2.7945811340720192 0.14782789025097767 0.7941430611842775
Ni 0.7080898854195277 6.881445206820445 8.867762616572794 -0.17684021832292768 0.031249444932584892 -0.4289309697497387
Ni 7.546287583018154 3.38425450313086 5.711606530527367 1.4645962628163613 -0.39790598212313405 0.11273078943752844
Ni 2.2040081274946086 6.334912495419875 10.493808406707453 1.5683235632036991 0.44348289942198454 -1.116612105224335
Ni 2.222091002801281 4.1761349190799395 6.435150499096581 0.8698533075333986 0.7366796768604861 0.8579622125227675
Ni 6.6386487296407815 6.802609477576473 5.311701173202636 -1.0153980581771545 0.697280092016941 1.4981486448505101
Ni 7.395213804099466 0.30452122725747555 2.077911144871602 0.019016650311818862 0.8898714025265384 0.0013559998072621808
Ni 6.079060836429659 2.1085567123099325 3.8809588470197105 -0.01710529222171893 -1.3553318346608787 -1.2461728217350088
P 4.669624529580937 0.6832626116070029 2.4285226775618973 -0.44786971563577055 0.1867975866459557 0.25301609145455783
P 4.4668720424214765 2.720542890712016 11.320002363509783 -0.7217397677212021 -1.0762198174502176 0.29663305681356006
P 7.905777013145833 8.663902728522459 6.527461007619462 1.6439165672486655 -0.19504542847704473 -1.1435282128888888
P 1.3197228169551556 5.860374859658893 12.235798602858832 -1.6128645830388673 -1.057417854252366 0.8985925844496201
P 2.86134634406893 2.247864940835287 5.634068843340293 -0.32920893386705236 -0.4580901078121981 -0.6460786294424615
P 4.378728538601047 5.803565661214832 6.056582934633722 0.6050672200271063 0.22976946222179137 -0.787208024627341
P 6.619967764401486 0.44408551303523414 0.10854678116257767 -0.22615911916271375 -0.6411593377639732 -0.8957219477700445
P 8.822032099615068 2.6248858821130012 12.470368539918358 1.7761825985056443 -2.038408638594244 2.3635868540353484
Ni 7.381270832545176 5.1591611394334995 9.443547532771785 -0.10138065453203185 -1.0898104116504588 0.15665371607272377
Ni 2.359530200287186 4.7644311290570025 0.1011071031100497 -0.8575966016532327 0.10348407402827983 1.3806572007995448
Ni -0.02116490749072395 1.7414042549205109 0.8986404034379437 0.23309852659502436 0.7826389171994199 0.5764912081616266
Ni -0.14880103717471713 1.3540569171498393 10.223347466597383 0.35887252236975614 1.0639903652635612 1.1827308512302792
Ni 3.7764145958281135 3.246656438006602 8.537489879653785 -0.28984148781302344 -0.621650064086452 0.1786675013396536
Ni 3.755967396256538 7.069236100509113 1.0533812212560307 -1.1626405082383073 -0.8499704525665426 0.4767943690899208
Ni 2.2869463798701717 2.0268987461963923 10.455251230879133 1.499876169064578 -0.5562383714498614 0.42526046287668695
Ni 8.571301585672943 1.66483939838947 7.43464007936113 -2.3524794312682777 0.6363313202477106 0.6650623696338159
Ni 5.150049613116185 5.894736995319168 2.9092215741444236 -1.5857996085012753 0.4132873496752108 -0.28087836508246466
Ni 6.4832387987105715 5.140554935435782 7.115596480927133 -1.7155094489953036 -1.354091020275242 -0.5243032133041615
Ni 8.012909872327068 8.836404948308433 4.244276052716182 0.4090404014733987 -0.5338810868005838 0.567612674725074
Ni 8.790557616910741 4.3012385117054786 0.3580951329722505 2.8521501907357396 -1.7383889246966384 1.1567819925750014
Ni 2.5090620285983274 6.265347160131571 4.850151434134786 0.0717206655737539 0.08361998811450115 -0.2900201794827328
Ni 6.282448794142533 8.793510685953072 7.810814349577973 0.7847644481828548 0.1763699635547285 1.139909899410011
Ni 5.968834730878136 6.461642145049735 0.2617269580627245 1.321885639187291 0.4971359088607503 0.21082994500481111
Ni 7.266278697843057 2.731140296705694 1.8648696418399728 0.774739202736369 -0.2249177905564449 -0.5666719080783595
Ni 7.1391845871605035 8.073616000488382 12.25290864750947 0.2797131411297699 -0.42964496509762784 -0.6823666652402184
Ni 4.804718093112333 8.344410562638993 12.953707442844106 0.6208669060635242 1.0280370870974036 -0.010059184008214933
Ni 8.682322029416232 8.967676343364154 8.641002425711607 -1.638934797763358 -1.7448837883923627 1.9567082360999593
Ni 5.5874309118129135 8.155302002067513 1.8626398878099097 0.6589531714122845 0.2434713851889162 0.08710280445677902
Ni 2.654659546571428 7.545343722343232 12.663769330271935 0.34399534814760757 -1.0012014549617982 -0.05707669040833396
Ni 5.328327138814056 8.775764236233499 4.264122358808574 3.2202372897252283 -1.449299227447975 -0.30585251852929907
Ni 5.900035698316008 4.488963989307767 4.631351446470614 -0.8800611013043359 0.7429889069079656 0.2651930931367239
Ni 4.852350349152698 1.014397906350717 9.794542216825166 -2.0781015863084917 0.968675714419951 -1.8552545622381469
P 1.8491912749655524 9.280869874644676 9.0600419883027 -0.5543277846907099 -0.3739733825669365 2.797974476024285
P 0.18699188291930452 4.730573631777379 5.905281133928222 -0.5773407006461153 0.27123955644111997 -2.8372737878445395
P 4.406661207485617 5.217895439848194 13.613212800908668 -0.4326678110843516 -0.9235263715768224 -0.9414371904189722
P 5.362212671559272 1.334179772045296 7.602491215405434 -1.0457311619430572 0.35956080668603235 0.5944087118719957
P 8.281284039281594 1.750814826204138 3.7572448789720014 -0.2580405412523427 0.20599138596558716 0.3997697748047502
P 1.6147400213770313 3.2322742441580394 1.6712632580720574 0.044640264417194084 0.12083464949158544 -0.21838873118867552
P 8.078839942243642 6.188838374531715 0.03879547728584926 -0.3972894315850577 2.5013473327479954 2.109812030037895
P 2.2451268103624935 4.854910921676743 8.888347189925769 -0.8767073543407546 -0.592471899860599 -0.4468163346705918
Ni 3.4932563933515435 0.36694592945956267 4.346420468053126 -2.967381892218251 2.2043782327512553 0.44370864227954543
Ni 0.19328304139809088 8.836778754516322 1.872597150672576 -0.6369455567929417 0.38824171956049264 -0.679732570051481
Ni 3.0595477406473317 4.3685610097464425 11.54995018680875 -0.0017149258085776915 -0.3710832055033351 0.26953800036898096
Ni 8.919782422978267 0.2805742670645313 12.68760975569563 0.18094241341675935 0.930559881384836 0.03326596114198142
Ni 0.5457776228606316 7.476890460523401 13.588073398912556 -0.5978521903359059 0.09514007293895874 -0.42052654773612735
Ni 0.684080312686762 2.4099099319555415 5.740630713538975 -0.03197603868596429 0.1956504090508953 -0.6611221540391453
Ni 4.1576034763238 5.55262020870317 8.181640387475433 0.733768159640646 0.3447731068538965 0.07383565503422768
Ni 1.8639846556427937 2.4421787528516337 13.086311457030956 -0.5764279590238588 0.33075056732255936 -0.05287576495310894
Ni 0.7568239352576486 8.599785618714149 10.72840637923257 -0.45479703888322315 -1.0596323454051815 1.071172227723981
Ni 5.816022753092762 1.157621754903717 11.82350156974255 1.4106252079165447 -0.34014692093579485 1.775320507615665
Ni 3.156232716318044 0.9878202849697477 7.932462103811571 0.9916762890801825 1.017308644936306 -1.9392301339198539
Ni 7.054022187847995 0.7591789143673547 9.893896168820211 0.4319792696577593 -0.13859428746785163 -0.22600768118651396
Ni 1.0401157734535391 2.5926450966825003 8.531951006168377 1.9344278274352038 -0.04690566341260309 -0.7800747560166694
Ni 2.528014003338343 0.25554887596182485 1.5606250311763357 0.8052144885070908 0.5984990798912854 -0.27625860692226617
Ni 0.890049402265115 0.07470517064678879 7.279125482692711 2.1084010086229816 0.08396040217305539 -4.020188730061167
Ni 6.566653654001194 0.9809142152789825 5.874930873394124 2.277704552249232 -1.8633072573392944 -0.11362219090354625
Ni 0.7542231785662549 3.7755361512395718 11.163968176212396 -0.8444556933959005 0.8472083164403731 -0.30467778149490754
Ni 3.143252295749069 9.059688741436243 11.020353700172151 -0.8154695905761955 1.9474370952106783 1.8161709659731236
Ni 5.0443559078353255 4.454050489490854 10.310979790428522 1.8213357980035147 -0.7812633770081319 -1.8386161823505176
Ni 7.221263085257919 5.031310071179969 2.460432644498416 0.446500860312702 -0.48343115768014805 -1.3597675018347293
Ni 0.05487101325615275 4.568425843949954 7.8994998723998435 -0.36573711070007336 1.3970163588838587 1.3973336330139614
Ni 7.900095158785908 6.691318024332463 7.6836267873434485 0.33397498779712803 1.3059627973094474 0.08193283022006534
Ni 3.555999765345857 7.921374077170038 9.194739317253733 0.31096952804089023 -1.235186240816518 -2.354599305824758
Ni 8.008741933109096 5.601093528711288 11.804721545858165 0.6422957653612615 0.752247449391756 -2.210855612945483
P 1.9746312931781924 7.545455864205599 2.1727654046391742 -0.10632488591118464 -2.0498274219541472 -0.2639553640748809
P 2.1501426529376797 0.28834476361104183 13.016569498309424 -0.3044075585526564 -0.05996918146478059 -0.2713747964674036
P 5.126630654191885 8.333299173109468 10.679248993864016 1.5679522959072092 -0.22948355555025637 0.7013102962222566
P 5.4100785564795695 3.593128066944517 2.512653371740629 -0.9456784821938293 1.7909150196198125 0.10354552339383458
P 2.354455781015081 8.420825896686878 5.73239669729468 -0.08056423200731286 -0.08496596061943432 0.5462689189419754
P 7.064638284152068 6.962327525052613 3.237400996299249 -0.7681944596393157 2.102080722831909 -0.7107477874860727
P 8.409695816846959 3.211453238378574 9.34995206540928 -0.1815767045666486 -0.49059399397717446 -0.49011525456854305
P 8.220820885155408 7.1248584642431245 9.97994168529886 -0.5825677533730096 0.36645907646776243 0.6803398646181766
