# total energy = -381163.50395131885 ev
CRYSTAL
PRIMVEC
9.29335480565763 0.00000000000000 0.00000000000000
0.00000000000000 9.29335480565763 0.00000000000000
0.00000000000000 0.00000000000000 13.60176414479039
PRIMCOORD
 96 1
Ni 0.9120033506776878 0.14076086565144474 6.176438723060395 -3.552881988746707 -0.1998868157297461 -0.1796632895940196
Ni 1.0900454375201307 5.107265230567899 1.3094197188104162 -2.028920496598151 -1.314495517370807 1.1322806649995276
Ni 7.841732585742426 3.2000830058155163 4.781264574959936 -1.0745928233697557 -0.3008846330010625 0.053399755777378995
Ni 4.565936620249209 2.418865033994374 11.651406679195965 0.9659464884142461 -0.996125840211104 -0.2688124350568661
Ni 5.5771651176654276 4.636612581750241 6.238489522185476 0.016681831531055142 0.14147340878785958 0.7125485881402374
Ni 7.115735726773241 3.995584863609977 11.23079967407051 0.5911732356538335 -0.7527182183805875 1.370434494630272
Ni 5.567276988403481 6.626115341279238 0.09484054205264114 -0.2986410883825244 0.22471030253132912 -1.3837494665716232
Ni 2.5655606358739 8.317831140337809 4.790010550945289 -0.36640611174263993 -1.5224427415111845 -0.14329143583320483
Ni 7.016715033835239 4.705922420129558 8.782155944029096 -0.9297422705795472 -1.807601479136558 -1.1335068240971446
Ni 4.255046029835792 5.244955571869582 8.270715691341367 0.27477559461883644 -0.7532365527779028 1.0829597072772124
Ni 6.201325397262053 7.043610001959367 7.678998512546859 0.06371425032950963 -2.4229585111254464 0.5601158521273966
Ni 7.860337881590561 1.1955714786567808 11.844034686035236 -1.020144057502572 -0.10596621702018523 -0.45019245023167626
Ni 6.483843376174793 2.469569576525555 6.947550171787207 0.8168849828664834 -0.17232536117170966 0.7130352979686687
Ni 7.579845853973972 2.1415885070588314 9.542276142306562 -0.0029670530481239227 0.6638752913042502 -0.22863689127924497
Ni 1.334116808578857 0.4246105822739935 1.1986856817730194 0.5924775562875538 -0.55368423756944 -0.40571545086522387
Ni 9.41881485618624 4.212928546926827 9.163929737750445 -1.8257241568791975 -0.8065614894532883 -0.1598771081060279
Ni 8.169035240325575 3.5558512054450393 1.8142988631720778 4.594063840756185 -0.7752235985719552 -1.664156034223992
Ni 5.3195905024172205 4.172613974804345 13.239643763129548 -2.2894382957463923 2.811536016758803 0.5923927098832314
Ni 6.109311893669453 7.4750539878483115 5.475947475707197 -0.48414052504234684 -1.3585320867657313 -0.41154234195964606
Ni 1.266563414213176 5.306728499693035 12.160289400706166 -1.5025264622032317 -2.8490805506714802 -1.0829481373129866
Ni -0.31306988205996444 1.8984743515207632 7.6779511514868775 -0.10315188749984171 -0.6127242223517319 -0.5722571154756209
Ni -0.013637997830738338 3.112130698169787 11.13664776959147 0.27027487853500554 -0.6494670862987203 0.71345361645301
Ni 2.3906411161668086 7.987498852165003 9.612516245478286 0.9342992938226105 1.665017610893339 -1.339340858549261
Ni 3.874362346605445 4.546355522171277 11.650141853639058 -1.0619679355168936 2.7475831680559257 -0.7799384875491213
P 9.307387534897957 1.1907946944080587 4.083820618570076 -0.33726728539515466 -0.4175093581763584 0.615701816922817
Ni 8.05750569213703 8.536884800895447 7.50142759878109 1.8569247508517182 -0.09736279162189038 0.8991253170246386
P 4.037609412973247 7.17757370807868 11.751801859274796 -0.10811103127732996 -1.438865947929793 -0.9260504235502568
Ni 9.196973189257752 2.1107717433063757 13.651138634099608 1.2502649895265112 1.3110181003451677 0.3090229458374807
P 2.9235499472455335 4.219127214424682 5.943522165491436 -0.06561918066170634 0.9941689735950492 -0.37665375761257713
P 2.43670827476781 7.770880050504573 2.053430816277116 -0.3490725055601988 -0.1644063634349491 0.028303474930383512
P 6.649841275495166 0.5134578399647654 8.358827844685692 0.3171203781336345 1.7905003006798972 -1.13091438077962
Ni 5.1078414185512075 8.927967747889062 7.133853121506477 -1.1551187459399654 1.0256955834484207 -0.8115766832796926
Ni 3.1833456742358504 1.5394348910827766 13.357231649161948 0.3214845686396012 -1.7284426121172038 2.1937312945603704
Ni 4.184416535107608 2.7775978137315667 6.853153852082988 0.18429076106370199 -0.05846302923289932 -1.2333638428957985
Ni 3.3599565844745904 9.382942507547977 11.267565114082903 0.5879501007308455 0.2298054576660494 -0.014425688507026769
Ni 4.056038135084561 2.1735762334870437 2.3788125344707516 0.6738907665587233 0.04845603861885848 -0.6475901809909815
Ni 1.2209980967589273 6.822725550551538 6.856335896687584 0.3675227418455864 2.8326578863390828 1.164913106322568
Ni 2.842744229263748 1.1566230296560145 5.886340154825315 2.2481093550906186 0.6410354105915992 -0.8898593183416803
Ni 0.6929245980627123 5.229547189993354 5.462849421776946 0.5344130480446538 -0.1220356117782221 -1.4357204603222757
Ni 7.773770283775686 7.491057144416987 2.2925776387494654 1.2283170245005104 0.4209055283421009 -2.705147367489219
Ni 3.8558592776575744 6.345567553535232 4.078380288805092 1.4975058690601886 0.4205052075798887 -0.07209861773846292
Ni 2.4719858487136244 0.9658397536987898 3.4324187287238805 -1.0245416723496354 -0.09294537928048509 0.4530168070543489
Ni 6.797382572640516 8.617960026159746 0.39652141808768576 -2.341579496526322 0.07521608032152208 0.33288689693927187
Ni 4.772537185683719 9.120340187477671 4.725715406691674 -0.6209448104893113 1.2576556255636275 -0.7329428355258732
Ni 8.726153260057844 6.248331184674575 10.77820122517502 0.5189242083804353 -3.120317536009439 -1.541458877602371
Ni 1.3803512475621098 6.120445332443712 9.413821536776048 -0.4946630218402255 0.009075994159339209 0.9636564068284889
Ni 8.426154481199879 8.08416832639692 11.742470401951563 -1.0490234595410837 2.9738536159855236 1.1792691179339239
Ni 6.987524607132446 8.784069445734955 3.8581538069007832 0.06475657555109492 1.7434216020245392 -0.28835590440643244
Ni 1.759631634252463 4.810519125809258 7.727270984187204 1.282076220499837 -1.0602144431608966 -1.716860563706559
Ni 0.4387522799223986 3.866342181611968 3.522639544220024 1.256320451691972 0.3571000038503656 -1.9231106026501719
Ni 1.983062464812334 2.8876125451252843 12.277972078955179 -0.49060376416918733 1.2208929641222974 -0.8384423973222851
Ni 1.2724832810739461 7.363477972886919 11.51522557867637 1.7966542360964348 1.6256774185328196 0.3529546142234244
Ni 2.5862941099184504 6.027474613330454 0.0637115215866506 3.6424232274416495 0.37838616692265153 -0.11842449738819606
Ni 4.936899454599861 7.906154119618186 9.360447942812506 -2.1373649999555 -0.4098181601796878 0.8886858668588694
Ni 6.163947525183532 1.3849235780103026 2.0231809471534 -0.4116045626561492 0.6811777871384397 -0.3461692158704747
Ni 8.265890581648884 5.683750601223 3.3306499908396785 2.1014325477249485 -0.9549187698451748 1.8270277061819695
P 6.622054145332367 3.415744591955287 2.9357911538844763 -2.6933521746265034 0.21104360367751396 1.5657429469607165
Ni 1.7955132762452946 5.923695722852869 3.6296850488287875 -1.1596397737387705 0.6641835665732884 -1.8778139355959016
P 8.59718937869692 9.390563058294964 13.74553402446837 2.7188860572315496 -0.5506937874825483 -0.7465534843307724
Ni 4.371259428727365 9.196926722484903 2.145311424899372 -0.5391577618184907 -2.100751462497524 -0.1643397718630718
P 5.75612724661025 7.194627013713709 2.86107630048754 -0.7855272944908084 0.33197106999322185 -0.012560867384146109
P 8.836604779116328 4.214080922893444 13.116547705843804 -0.35887226525944 0.4857878308377827 -0.17251356592311579
P 5.420358346014287 4.356194900970209 10.067807908528021 -2.245916461204358 -0.17867341487692456 0.2204178458035623
Ni 8.276503592567252 0.9241534824418495 2.2035538073218732 1.7037705632918207 -0.3659219730173698 -0.2712030467762297
Ni 6.800635246739842 5.292147226373493 1.6499207955531678 -1.8134931620306445 0.7057966141283845 -1.0474936531601187
Ni 8.747081894548353 4.076567155328583 6.782097792380063 -1.525857166509372 -0.2942905247233126 2.33426496514278
Ni 2.2941110422534328 3.9410886324144405 10.060558162628356 -0.09108852857740443 -1.1247943839248113 -0.8367382701469848
Ni 3.945595909380647 6.527187581886932 6.2996435125946 -1.1300880282235828 0.8245491842799605 0.9454907916630556
Ni 0.08518381731947576 0.18956398783770664 9.714624190804274 0.4251853866643774 0.4960604164083844 0.2078775472447065
Ni 3.415410031190785 0.7537022076117724 8.50376793188704 -0.0575510589415912 -0.7092398354819786 0.5556287628903205
Ni 0.8440522007364323 2.6727687741876296 5.286869530313474 1.387999757207545 -0.9043981353878037 2.265973894075865
Ni 5.464148632745762 2.4668373302821225 4.348810401429285 -0.8154418226620538 -0.45891826014044834 1.2634850877612112
Ni 0.5338771986248664 8.557200073984369 3.249678851146556 0.2906110189891963 -0.8973641113591578 0.3702622522639365
Ni 6.478852844770972 6.20582338087369 10.780853548569151 -1.768320422148748 0.1899423029225245 0.19125947907205124
Ni 6.812363460206548 2.931365658438481 13.653994481958815 2.5630916038353275 -3.0390681050096435 -0.19398510553333043
Ni 8.442854639361267 7.355578621502845 5.543275970892296 1.9635237163598962 1.0038977708470387 -1.3477841042206078
Ni 7.991968955712931 6.357918421758094 13.1394669768831 -0.523224635528002 -1.7011850619528317 0.6592984705668452
Ni 8.293640538393406 6.385863538948574 8.465996021574773 2.4233099809275944 1.0772490300456803 -0.5638550074548547
Ni 3.488706718680416 8.216998243258756 13.481102772218787 -0.4009946483507868 1.3454042911345216 1.1717113601913238
Ni 6.059852660650584 5.39827733555716 4.078366348773238 -0.04892577916642542 -1.0052753679208557 -0.4342945480544972
Ni 0.7064622276641002 7.2892798300040464 0.43762220800674767 -0.24462761028054644 1.8320303016028834 0.4560121422372469
Ni 1.847509595061636 2.81789379914491 1.6915429426635786 -0.631179600843442 0.05714611019368868 -0.7066687323206926
Ni 0.9502083313128942 0.3528091955345949 12.104862904718225 0.6391631332695509 0.8342640975748792 0.13164973782921843
Ni 4.840620301259862 2.583171542783099 8.946695716017514 0.5703285309943403 1.3183370026040844 0.9806303156786659
Ni 4.238661845729767 5.845176170095181 1.8085853087827506 -0.617447338859014 -0.22569632059368228 0.3059491920081634
Ni 5.889282430882018 8.27356689252329 11.74291927097727 -0.5756250035065892 1.0359365444501385 0.9726282713097957
Ni 2.9484282574280796 3.4643023695809143 3.832718824779524 -0.5310348756010403 1.324198603591184 1.3809981290787312
Ni 5.639235432835104 0.8206831313359725 10.139122323487978 -0.6194193749837203 -0.5075401349132098 1.5752521720027322
P 7.47213587451349 5.6195614012114765 5.912088322995566 -0.4779997022519316 -1.239015384754621 0.3263814917205863
Ni 7.328311919195938 0.5576774796773508 5.862061266012501 0.11563716445104602 0.8110195252246419 -1.0295242131658913
P 2.6450281107976776 8.592440474511907 7.00681296454144 1.1343552881403691 -1.454207977603502 1.009294773492894
Ni 2.051099113615629 2.451428948405895 7.645482958627422 -1.4467952300791986 0.5257026647548495 1.0441077674070212
P 3.7518666400248915 3.7380288350709088 1.0561497853988007 -0.8767106967748644 1.1701908097817395 -0.6904486709174044
P 5.216322746440959 1.075343350591185 13.563705824974313 1.2604843532616743 -0.4974914924279561 -0.08933169378729776
P 2.093829957926181 1.503571835799084 10.169970684645968 -0.7778083285799959 0.5530792569955895 0.15162643806146145
Ni 7.142258960714589 8.236263367281325 9.747976181683288 1.835836562722851 -0.2154512458269064 -0.0869577942384825
