# total energy = -340889.707973836 ev
CRYSTAL
PRIMVEC
9.11608382616248 0.00000000000000 0.00000000000000
0.00000000000000 9.11608382616248 0.00000000000000
0.00000000000000 0.00000000000000 13.34231014746439
PRIMCOORD
 96 1
Ni 6.560471829823879 2.400228428888276 11.574120160720076 -0.3273852503947523 -0.4562587110304142 -1.6021194287072213
Ni 4.728458027063744 0.4841798298303595 5.931990772973735 1.0952027863106235 -0.9104859934530966 0.08545549866134314
Ni 2.965562372501193 1.6101009721648074 4.820203207131708 0.497963032747736 0.41902322371772344 -0.5766413605862456
Ni 3.4518598686235986 4.607223227158751 4.631796542943689 0.2841416092147687 -1.6603919391958695 0.6743299109786708
Ni 3.7643774571898816 2.9118139417740823 2.398226536861873 0.8285341370696375 0.06708342391205865 0.652665795741676
Ni 5.256288401475281 4.737501182301412 2.962446495021117 0.5744842050339267 -0.639473465421118 -2.1741870538798556
Ni 5.050820986251681 4.668045738999199 11.356093516695129 0.7804287969219785 -0.7601286519120458 -0.2759390187993183
Ni 6.086535743481995 8.1553945222803 12.380796956171833 -1.0861044235537811 0.20079955735200258 0.044942111928329045
Ni 2.1178941941444944 6.585112604629743 0.15581939903873027 -1.8546356977072254 1.3889276683384533 -0.4851933917868934
Ni 3.0876723164614446 1.4396210869837198 0.34863095497154833 -0.3904351276673856 1.1940218507630662 1.4556624506618414
Ni 8.168284664927542 9.23568692982533 6.539412764385836 1.0391218841566556 -0.8750435934850865 1.3171995465655315
Ni 8.853759478376379 2.5972087699926525 1.2575756261473598 0.5860850224976487 0.17106089263698926 0.8042786069563824
Ni 7.018846760933202 0.6524909986495103 4.684058140385251 -0.6520885830819673 0.7866138426867678 -1.1450261375906536
Ni 0.49613922031049795 7.433036033335892 2.207738670717444 1.2459851312042347 0.10876152037713528 0.05196790842685889
Ni 7.856441666570521 4.2617874595972856 3.7656400348112697 -0.11331520118608872 -2.005918893496655 0.22700269810993165
Ni 7.670664992590233 4.000784861200423 12.680811835657005 1.2144832039412117 1.0758485501537278 0.5303116242817706
Ni 8.300805176711803 7.648421747852419 8.560332792732199 -0.26384634930084233 -0.35565375832214235 0.8968190374889652
Ni 7.388285177426906 0.9347905922744383 0.30200309738571096 -1.4873541253381675 -1.000739170613399 0.22177358850050838
Ni 1.9292368376489804 6.703804017124143 9.21814849599292 0.294619368817641 -0.5623640247316251 -0.845842032220466
Ni 0.2504981349085906 5.03586149255711 1.0228483164012354 -0.10241320956160427 0.22495764265544485 0.8545007363367283
Ni 6.486203094217744 1.8007091706168348 6.829688019822696 0.3413651096136121 1.580346298696188 0.5003834692637704
Ni 3.2675144198170134 4.609338158625625 0.3010759916521717 1.0548279820380027 -1.111399450675144 -0.6005503059933592
Ni 6.071293651186247 5.777354641626385 4.80572686588431 0.5440567417820049 1.273748160250116 0.5617297335817358
Ni 5.307420516120526 2.916426680232006 9.352559683579896 0.8438275728935984 0.038513325583849796 0.06366077138375488
P 0.3682040987324335 5.911333726836077 12.32363819845439 -0.11901250868118214 -1.8675439211284612 -0.5368828497413851
P 4.157526807930738 6.331029113919767 12.42243831585948 -0.17780746733220346 0.5285136518410832 0.417962643663693
P 2.3074631590309025 8.48565201013338 1.3733644775251526 0.7422993370401086 0.11615164219361931 0.07362688145753125
P 6.364093150257492 7.891985277731478 5.934099323181873 0.5960773578236702 -0.4182066413536991 -0.9248402052922394
P 5.292989755292674 1.1642971207659127 12.56266556498036 -1.8545264258228706 -0.9955681679354209 1.1720427753888139
P 3.9214020025213734 6.231426781130687 8.129336196426596 0.3550642043672595 -0.062212211862686405 -0.39374130922248324
P 4.848042815781219 1.291685277309441 3.3421824398983593 -0.5421723802750985 -1.2663829781342963 1.5543966687099617
P 0.4515852718139445 5.569626437593368 3.4737375583966643 0.16481028374158713 0.7593447225581696 -0.3520714402875227
Ni 0.9937351908296446 9.204327601178576 4.59218260031739 -0.2103136674900249 0.4052644793707343 0.09512696031283617
Ni 1.9822286334116486 6.813607247807325 4.406698552630578 -0.43778070683088477 -0.18687600529237494 0.45171480041347367
Ni 6.056407086162948 6.0086296903961935 8.911782440848391 2.320744562058842 -3.0088229329718565 -0.7554423021799699
Ni 8.539509833867399 2.72434167618673 10.244599488754968 1.2042890370170292 -1.7449424095444401 -0.4320219499702366
Ni 2.448434280598751 5.1488371204406045 6.701001732930535 -0.2954701468537105 0.9773107643871297 1.8496827245773242
Ni 0.9175338454348149 0.07851865392448233 8.950809307670955 -0.2994952088527036 0.29306436562569527 0.36550185476081565
Ni 1.6316878588611774 1.2798434843117275 11.42369930657222 -0.6274790120634032 -0.6632263448663417 -0.15429858557698586
Ni 4.072099985620061 7.121247731482326 1.2033640983576752 1.423766116173877 0.17984918035258057 1.1526157770124537
Ni 5.522550980287601 8.036347582513454 8.006680199040199 0.853440156282698 1.1567951052011238 -0.662227471288182
Ni 5.40207281534705 2.9686800731980503 4.779602904226461 -0.3737707796378273 -0.43583643862032034 -0.4337813558635045
Ni 0.8242270801932499 7.592129929714714 6.530046899777791 1.048444189998846 -0.46091600729676746 1.4357117185715274
Ni 5.1996592882329455 4.650871036914756 6.714584697954855 -0.16252097348677816 0.696992128462877 1.2322901502156454
Ni 0.6709273667469507 7.613251896131728 11.114251103458077 0.3382296493084239 -0.01819261174862673 -0.10059646806783965
Ni 4.9233963653725175 0.3241150705152359 10.266414277549064 -0.4523228663111178 -0.15474415775483671 0.5571410857697888
Ni 8.5937596492095 7.390108394208694 4.656426378448864 -1.5267866203021772 -0.4429720212238371 -0.5871774842308791
Ni 7.528891655638397 6.182400481868408 6.828074472970813 -0.2216200936417796 -0.024786720026376666 -0.13858040351078071
Ni 2.51570186376282 5.190224141387192 2.4218299013189006 -1.1593816349813773 0.3656466078687961 0.4716246519635232
Ni 2.48310274770445 5.373639749635066 11.29986915757835 -0.5530478895370217 -0.4881036234551529 -0.05549520485382701
Ni 1.3378764744760399 2.872468923623097 3.674952320476743 -1.6231163426738626 3.727643470163735 0.8074184381369449
Ni 1.8481492712789584 1.2242718368028291 2.515839516629845 -0.20588777050818732 -2.8378067775298743 -1.9311686970679582
Ni 1.1993211151440604 3.4997101930616252 8.40021151369684 -0.12601670791315717 -0.2983662374545829 -0.48866180995146813
Ni 3.837041762028042 2.8005886020011044 6.810582531166339 -0.37042911685910396 0.07647052155391346 0.4932291176071763
Ni 3.993036189877824 6.935981558200937 5.929135615493454 1.1154671929866145 0.250059322819079 0.14708792676115956
Ni 0.7424156967608585 0.3350124372199828 0.22455376010374728 -0.3477046786783948 -0.5128903434815296 -0.14921705728902043
P 0.48301844074036054 5.498502750935818 7.921983575050628 -1.0033059028993108 1.9096866159347823 -0.5713672566714998
P 8.767658065856441 1.7861872489498931 7.937513735597897 -0.3981723484106433 -0.4022115514770235 0.4704812823876994
P 1.8663540908451117 3.211195253427582 10.465921597112999 0.6943374644488494 1.1748856441542475 0.17664661425488287
P 3.992735359108829 6.360218814596193 3.6477471912672934 1.0794267544232894 1.4844436365595919 -0.9416917296319396
P 7.053588156710172 4.243272693178229 10.243065251833094 -1.519388528065893 1.0153196395307353 0.12556625063929988
P 6.677969035326207 7.842566986861114 10.118194046056827 -0.04987683022578507 1.0221369195628847 -0.7313937458711984
P 2.808519595001883 8.731904784765577 5.906733750895626 -3.00732912203515 0.34924091281726305 -0.21033783585974097
P 7.091975986050718 4.091015859731112 1.5653865805914564 -0.2933348456782625 0.5086505943685692 -0.3121445221855979
Ni 5.28630766578742 3.228506696770659 0.46695681250119914 0.5480506934327464 -1.1055759020148315 -0.26501594412891133
Ni 1.7396496405947541 1.552678759622394 7.09913666996119 -0.5718837912966022 -0.8081928544091243 -1.1366078316199715
Ni 6.990833035081029 0.8882292821011362 9.091050230917698 0.6558063982531867 -0.25093041257012266 -0.25417488764934937
Ni 2.9159982242882854 1.7102138056527867 9.243885935693031 0.11501778569949224 0.04879311024330306 0.42662777553785874
Ni 6.588877547284135 2.1234367731611297 2.50340426656966 0.9893712950960897 0.440140465312313 -0.3221815947066258
Ni 4.592190804792908 6.816697600252456 10.249682617142595 -2.485896288300248 1.8599185433727192 2.053911362215534
Ni 8.35243867597204 7.3835448137942565 13.353917946458193 0.04703627545319641 0.8312476793460587 0.35496573111618224
Ni 7.604682777257324 3.8944092780670023 8.055913433407211 0.7023863028952548 -0.1377206266136467 -0.012454166602952744
Ni 3.4746044979764044 8.79750412457431 12.39349839588216 0.5461354786879047 -1.8993986037452129 -0.6211026762234142
Ni 9.243162118630663 4.965540021283547 10.062463778687912 0.25390312204520143 1.2893616984176568 0.9113470559018111
Ni 8.754576485447112 2.3712666303095737 5.50734535232749 0.20513315173034993 0.3731961380812799 0.550844968348432
Ni 3.7503478040540226 2.652552515403827 11.83820490708655 -0.06464524678421125 0.4794266645064452 -1.2839541542488404
Ni 1.1108951012273418 3.573122016780319 12.56650799434798 0.2951135348452401 0.024042642771500526 -0.24115353568901696
Ni 3.2508684505992886 8.579164798871288 8.198022242246896 -0.5261739479643132 -0.04598135182612081 -0.4511905524788875
Ni 5.5756065886376325 8.082839610449048 3.673738058100072 0.9077092020389077 -0.8208275124539992 0.06692967194301376
Ni 3.3678460393188074 8.621746026809946 3.53687282072481 -0.8537733712524006 0.09150093352447466 -0.5333853781110879
Ni 3.509582911935007 4.3442880189731925 9.22606034521749 -0.4966671967544478 0.399729408485118 -0.3702270281506269
Ni 7.1853611496139 6.199301701435583 11.452838868787147 0.9356792048892725 -0.8138094292649531 -0.8222886703805581
Ni 7.702999742215242 -0.36194864195411885 2.5905294153125724 0.04332437381924797 0.5011792256921884 -0.6632487134638448
Ni 5.122090530251775 0.24808966553984865 1.3917899063219024 0.36803464848499845 0.2275500859729694 -0.5241366058193102
Ni 5.9760579225895505 5.583072661359055 0.20968633885665694 -0.26946703792172944 0.5945804615631696 0.584444144460116
Ni 8.097051585263085 9.158838342472967 11.271650319838226 -0.09099314065012072 0.7461400509424376 0.0942602414371667
Ni 0.158599804630957 5.028513928926506 5.679180799185836 0.13778310442046593 -0.6173396096365562 -0.055937434597568184
Ni 7.54529149059058 6.1673042469152035 2.584752552939477 -0.9691241148112794 0.5503410321288199 -0.9091171381300279
P 8.615419464577142 1.6871592294470774 3.349026795697192 -0.17527261672549171 -1.276609798068627 0.21382270908454787
P 1.957988966297777 3.1670004786370405 1.4083073387565108 -1.1957635160445215 0.3982083438549013 -1.0789986657469355
P 4.715294401899234 1.2451203207025752 8.10958984707144 0.933241027761425 -0.6017160441666862 0.05353628135524328
P 8.688302555429118 1.9474051928794978 12.361770777445484 0.6569744504193589 -0.1628331054105583 -0.2954246383277558
P 6.484844797715311 7.515099020684171 1.125523681076018 -0.3336551425638641 0.7743057147433761 1.189790586290538
P 1.8222140125580242 3.4105275441804648 5.70583896336075 0.24580209020462182 -1.5204809897991234 0.5751861161969578
P 7.041636970705552 3.8915924081391395 5.857741181143808 0.5669848113330881 0.6155629773521075 0.09525885790501014
P 2.584646806366133 8.499654315017512 10.421732291972802 -0.04604537229483682 0.917481193824007 -0.7542392830108042
