# total energy = -381181.39140838146 ev
CRYSTAL
PRIMVEC
9.14442438216778 0.00000000000000 0.00000000000000

0.00000000000000 9.14442438216778 0.00000000000000

0.00000000000000 0.00000000000000 13.38378941589572

PRIMCOORD
 96 1
Ni 5.176805033551737 0.885237903750326 9.816487602768865 -0.2724214925643631 0.7969280801285823 0.15951381122933816
Ni 0.10603508900481973 8.625524153924008 5.425292882226258 0.6815693661499037 1.003690025711607 -0.14733012467895273
Ni 2.5709915324831045 1.4176601338798511 9.460077255867873 -0.5895272154099783 2.457056224140104 0.7297325561186917
Ni 2.7449733534674174 5.052349415786758 3.3334335315194683 -0.38221402530917403 -0.7733052985033197 -0.7179962415183699
Ni 0.7139353991514016 4.3860592117302035 9.185281812281664 1.002514260235951 0.7743805338453695 0.019999840160694587
Ni 7.054676620426307 5.335323632666794 3.303761702825581 0.07452419646082004 -1.0953097442021331 1.4814583286790226
Ni 4.729660963201114 5.699856971872021 2.2005088306828813 0.2981955162046735 -0.5874417936358592 -0.811471525160396
Ni 9.21876869488676 5.704374317586635 2.0883259450709053 0.5869923648032664 0.39383644003945073 -0.05565538458077512
Ni 4.474549807844216 8.60000206507889 5.466153828767112 0.49961290964633315 -0.00047873940863143365 -0.8947109900070268
Ni 3.900636580324166 3.0036599788130096 2.1265231207480615 -1.0023880190707317 0.42010180149388293 -0.14842387196376375
Ni 7.0916292399258145 7.697008432231264 6.030896112932534 -0.7835971673476311 -0.9291048941058643 -0.47089831532045995
Ni 3.427403466807968 4.003968577439836 9.518002613012051 -0.9321768481629689 0.5054999645547295 0.6555953106836451
Ni 7.717226754852746 6.757391379166978 12.713262061096367 0.41135645120108516 -1.484280114398534 -0.3999898612353563
Ni 3.337541207015429 6.971361768592602 12.281754956680949 0.06433697151517308 0.36771840279616025 0.4117539437498199
Ni 5.737367401267462 3.556851940362784 10.576512730403664 -1.4717647555403428 -0.12894108064880375 0.1285325323564754
Ni 2.0687523043783305 6.056718138902023 10.779973432724418 -1.6139521596760915 -0.6840918754614411 -1.896153614445354
Ni 0.6511616681248582 4.203371898599508 4.366942792263805 -0.8481614243822618 0.2621494212143937 -0.39084316173908173
Ni 2.5260924080726674 0.5477757189044996 2.2925227735658025 0.7284027815636746 0.3696338746513183 0.017089094271802826
Ni 4.167699498533294 4.172911820511695 6.557709153059338 0.053030288253102215 0.2802633572062851 -0.6158846223575845
Ni 7.251263458832739 2.081527065437675 0.5416416389341286 0.5021565020037932 0.4364427047457516 -0.5216068974189211
Ni 1.640308582178288 3.6922077121597887 11.521354907640685 0.8147113722539323 0.5809932097970381 0.4032129961583443
Ni 8.689608280984771 2.6274126317931654 11.059667544527873 -0.3317676957331641 -0.7116494733647357 -0.6414732694599662
Ni 8.338032591329357 3.3823671760296783 2.499543400353559 -0.06929380129981615 -0.5365491205510501 0.0751281485934061
Ni 5.316568417969074 8.175216112688252 11.411755321956601 -2.805981405489161 -0.4941475156563876 0.6182477232731224
P 6.205278459710977 2.7062009934877325 2.4814081776385324 -0.19248640950061688 -0.007412233303671106 0.2775053348451737
Ni 2.7121265805789676 6.146662698515273 8.359072997715504 -0.5370828815673331 -0.0413497665913804 -0.5800688982105557
P 6.6643651484893045 6.643287249962612 1.5359103451631766 0.7901287978185618 2.049546143268303 0.1349813733056127
Ni 5.466948479258206 4.491613304005087 8.478711332641497 -0.49026952075822017 1.9358308784303175 -0.9423476180483835
P 8.546644347984207 5.99737082374444 5.256724560559863 -1.2448988401185916 -0.3436940148571049 -0.6730091352847184
P 3.8241983357321407 4.9231569861186 11.688960321404755 0.16622516181124278 -0.936164372055807 -0.7625154069766674
P 2.2367628161487914 6.522023036356337 1.5150985493901188 -1.2519269506099664 -0.04118830131285165 0.5559807469131006
Ni 0.998900357250206 5.972946065842142 -0.3489155765615235 -0.2230149171067772 0.4967867530514477 0.1194305700552072
Ni 5.773926810512457 0.38010263639895653 7.3825380739649 -0.08041048003826796 0.2085861432759569 -0.8504679610282514
Ni 2.3343521146636967 7.836012829413149 6.593911929747916 0.7783588017668273 -0.6300046066987344 -0.9120132287309003
Ni 4.395249358376332 2.4019111230433934 8.056265438486426 0.06865179684044306 -1.5501427785296142 0.3170815544758991
Ni 0.07030599350655904 2.3496233036179595 8.082390144907643 -0.8593017572697976 -0.16471952379999374 0.23021863394406802
Ni 6.497086190680725 6.033756488923488 10.679327153091306 0.5773373582120056 -0.11011160664712649 0.814490514492378
Ni 4.553338169538783 6.6091328243672995 9.757866354918448 -1.0966685722228726 -0.14178219827753002 -0.1794578584514329
Ni 4.884247459771062 3.3139760250183423 -0.18064902090440463 1.2496132148751253 0.6573133218160163 0.10484264493870331
Ni 0.39937451108225513 8.040070662655289 11.399937067702416 1.501929194938865 -0.5675656235372225 2.132968156439385
Ni 5.166197501104465 2.208908899050178 5.587317453703629 0.42000538512533475 -0.3413406841335798 1.0613174464170883
Ni 4.94480183896575 3.8914921558006554 4.035292803645122 1.324228685498171 0.5744680070840106 -0.1554473544694484
Ni 6.0999346892001345 1.5371686179776114 11.902271397822235 -0.48305629083923257 0.7691151716813722 0.7415529457923874
Ni 4.510862317627076 1.184596186049136 3.6546981972068004 -0.3833509671270946 0.4780673222650735 0.18571900886979628
Ni 3.947876677412622 7.634597734858304 0.9380725597622657 0.8108207789502746 2.1285404596853343 1.198882264179161
Ni 7.547423935875678 7.581285739886238 3.5927575232543485 0.7091285067150949 0.0834603226081853 0.2293953667118243
Ni 8.45673636606905 7.008058344205451 9.703140631915048 1.4574305983058575 -0.4106180303731638 -0.02238171012930984
Ni 7.174267404344779 3.998244167688118 12.278128277914925 0.7752824768343487 0.6530900277632882 -0.201278296760634
Ni 6.873370115398663 0.618275574210957 4.82180475691227 0.22531708287739263 0.12346308825336802 0.23498340232256307
Ni 0.8780695893663459 1.7589209126727439 4.101235077769061 -0.5836213914485046 -1.088971717799247 0.13235627697793978
Ni 2.970548017613378 8.520774771007193 10.563584343012327 -0.11917551662160766 -0.08794406941115177 1.326078080002084
Ni 1.8315093545403713 4.52478013175186 6.417446483063018 -0.4192476810237038 0.6433797424540597 0.6843806103464536
Ni 8.667890272741433 8.100176965048323 1.196440044691987 -0.5871648858253887 -1.2092661785166465 -1.3525375597451932
Ni 1.4271794798088258 0.5423923961875088 7.533922193066714 -1.94724837623864 -0.5502577283863943 0.7437101013447062
Ni 0.38518236422176666 3.5765947529090436 13.700315816376365 0.23710019155524972 -0.161352921320606 0.19024697864713688
Ni 8.212635097838458 8.90069817668549 7.646667460786886 0.20377638059213934 0.7006001575291095 0.4183128279142603
P 2.31938269171871 0.058501455889159185 4.415633195081689 0.11160516047351746 -0.5294377063172494 0.6141177602651489
Ni 5.4665827022772655 8.378963035496591 2.977210645321207 -0.28239454461667496 -0.7365403230691444 -0.9070931657214637
P 3.6308577680315555 6.10435144624499 5.794070148852847 -1.5039914767845324 0.31130479989312193 0.35523775383064626
Ni 7.319682043117645 0.47238633980532097 2.291665940987949 -0.4176829076397452 0.9684427724735385 0.9254426147629287
P 8.756298569034733 1.74427154458608 5.933475986271314 -0.9985555326985189 -0.537206808739707 0.5216778598661724
P 7.034723486116007 2.025810086815925 9.570346213427078 0.5355224790587487 -0.024947413973957035 -0.3379380862099341
P 1.4879167474939832 7.925427012404036 9.092223576118158 -0.004005264504651167 -1.1009312041539687 -0.9647169868825193
Ni 3.5908783440147674 8.956223122392247 8.38422107959761 1.1502477910009095 -1.6962778544592012 -1.6270845832929912
Ni 2.8336742713454703 2.0858158005392013 0.11391941182899058 -0.9703304764145547 0.23843716519911842 1.3722476365796108
Ni 0.6830537630930539 8.101941838981361 3.103125713240139 1.1825585873184732 0.5772609964481156 0.05024809752227476
Ni 6.681355489253987 2.6871714460543066 7.3859379710027415 0.7997082139768809 -0.07110848591105172 0.3129294799807385
Ni 3.119446682129701 4.786200940029981 0.40329746920284115 -0.6347912294541004 -0.0316011718450488 0.2412450669615587
Ni 5.025089886282173 1.0780270626521433 1.2310827825568549 -0.22457917627010354 -0.23390276766387458 -0.48962314542347285
Ni 5.287489147984309 6.028745344284604 13.196657373585543 0.7650181187938632 -0.5526300852733128 -1.3091406808167971
Ni 1.614795637757693 1.2556483645968135 11.678119606132132 -1.2234185587576285 -0.6321959579230984 0.16421558758038168
Ni 3.7899341770425465 2.350053091570565 11.369583064939075 -0.2554334426467988 -0.5293780567239077 -0.4742281510246413
Ni 7.21229906593806 6.24894308681074 7.9968010746949405 -0.8393610524818125 0.17391096049127466 -0.7555975968109115
Ni 1.4632450901295515 6.559313999563214 4.648698971797309 -0.09911705530883576 -0.6059635065891306 1.1862805162547505
Ni 6.316410650945201 5.23297008897514 5.988804326850814 0.5669542152054687 -0.6231767851436235 -0.1446258383739122
Ni 6.449114539630387 8.212516220319651 9.240462927626337 -0.05753177566788156 -0.9404439732677674 -0.4744662351773764
Ni 1.7806023432179878 8.587181581896928 0.07668148628435065 -0.03240978378927322 0.0036296263327872977 0.1298669348971828
Ni 0.3188971741781952 0.43239137026684255 9.77608204856928 -1.2520279949642048 1.0021568768965319 -0.6518751815195806
Ni 3.06474473463006 1.1683373992463342 6.234691501190849 1.0887038088498413 0.8354308641894709 -0.9709933068095342
Ni 3.293638824878055 7.4300369582673715 3.35064516735762 -1.0078295018012773 1.1101650640474108 -0.32775806035313876
Ni 2.8505640234403944 3.0678812722416247 4.728854424958142 0.12423236231922477 -0.36830384298598506 -0.2333744059642303
Ni 7.446917565937771 3.144054328522468 4.805248776312453 -0.4654509190526436 -0.033408914477748915 0.1569933588003296
Ni 0.2951710503094946 6.575435619998163 7.1069123166319565 0.33851761286248794 0.34461112735473554 0.9093644782541437
Ni 8.452849985646557 4.266761049396484 6.894431553961212 0.2945916009034991 0.6460606317203325 -0.618399161249322
Ni 7.510983404149488 4.392615764113561 9.299833103845229 2.0092721262396043 -1.2353227663943822 0.5843883515215161
Ni 6.792414525092023 4.633242151025219 1.0119083011349 0.4145819001169183 -1.659073220384446 0.6465090321116608
Ni 6.3859539994464996 8.49357010804975 0.13598033599195994 -0.7260664201210141 0.3543332397385059 1.6322900387533308
Ni 0.3408209319733119 1.185867261057904 1.5760479677242216 0.1854554707957645 0.6971965311641993 -0.8452339663228217
P -0.19434736884062354 5.0435250461215695 11.331894319265427 -0.10812697211692991 0.10974496733632713 -0.3543651214177059
Ni 4.959451207052414 7.091300040642968 7.249637580152458 -0.0208030527882803 -0.5453852307854413 0.576948093193387
P 8.76292827681428 0.5185775714009302 12.883102372213983 0.6254817791277164 0.10387102505405336 0.1243210653782891
Ni 5.099049991828327 6.398545872015374 4.336066642860171 0.9557523214900637 0.24177394288183524 1.0076952902162581
P 2.2451939755594683 2.8144526909970513 7.73790504202776 -0.18452524567201126 0.4779734769996865 -0.10486501353620649
P 3.874309782120979 0.3291169830256707 12.755099632176336 0.13778207597920142 -0.6878677975641057 -0.29778748213297745
P 1.4181630772286442 3.0317973730718517 2.3788882054205502 0.937914007757062 0.6881992127615953 -0.4880755984306949
Ni 7.293144923150417 8.848309768590298 11.434119841013752 3.6739673207965176 0.14884578999253073 -1.3255124373066012
