# total energy = -381176.23575401265 ev
CRYSTAL
PRIMVEC
9.13813484809878 0.00000000000000 0.00000000000000
0.00000000000000 9.13813484809878 0.00000000000000
0.00000000000000 0.00000000000000 13.37458404702019
PRIMCOORD
 96 1
Ni 2.73854362825638 6.44124271302415 10.283262713595484 0.8010585573571881 1.1653707626852767 -1.2530101563718161
Ni 0.5054841465357298 7.735741739779657 6.96974947618154 1.5627165014295668 -0.3467330587937448 0.4229395280529942
Ni 6.589527225177713 0.5931636353914779 2.3399637784070926 1.8266009030571961 0.6937034304092763 0.5289515107094503
Ni 1.1584047863227087 4.8305276723066095 10.440601289632804 -0.4567482490723231 -0.30373727195850914 2.6460240789645013
Ni 0.20681974793657082 2.9339900537164416 5.154765140928678 1.2899569087994944 1.4504755071442632 1.051345679916357
Ni 2.884534468594418 8.35004370841287 8.572332490808893 -1.7542647153866304 -0.770434404713428 -2.100918327092691
Ni 7.0490200534649885 7.877675248300587 11.114573450381648 0.40652483414039664 0.8583576481889733 -0.039996594997595634
Ni -0.06482227247257756 6.333769110544452 9.17337319833178 -0.8727735665039872 1.2143816453663407 -0.039263830596629155
Ni 6.853180688211829 6.000510475323629 0.38990958762390443 -0.04833879631470384 -0.29127179250164675 -0.18377988286555447
Ni 8.237068948829796 9.134397226110336 5.898044570672251 -0.39071512080164966 0.6113623090071988 -0.6911948050548096
Ni 6.981023192989566 0.4765455014942616 9.249434462700435 0.3040704869282118 -1.4091265118838312 0.7756876826925674
Ni 4.494372248378529 2.857741457585959 5.602893784874167 0.5913218454165559 -0.5112756906962421 1.333198235986633
Ni 3.7856824861892586 1.0444613844589767 7.235716714927574 0.8463284849385811 2.6365806741634144 1.3636714648748256
Ni 1.8666559180452649 4.641231211515271 1.6426665287772506 2.5908363780487638 -0.5207512342868451 -0.7564278060216908
Ni 4.648039121884064 2.8715491791527334 11.79999386631173 0.15925798646479025 -0.16010902161117588 0.6858607944364059
Ni 7.302320009857706 1.0632859419887937 13.380735825137135 0.7759381081404766 -0.6169135778427312 -1.4781241220994672
Ni 9.038885441983322 5.03789022544574 0.7077512757531964 -1.24348036250451 -1.651869246436839 -3.299467890522782
Ni 6.022030782596794 4.575098530523385 7.138309681658966 -2.1216123651069334 -1.4758312123002324 -1.7962729414976162
Ni 7.063951765602717 2.7524884218440024 5.751351921587472 -0.025890494613516703 0.12611363850233767 0.9677385473176623
Ni 0.6954577431100591 6.813292730145008 1.633678259463499 -0.0132262688822869 1.6725504289352744 0.5144227209656559
Ni 6.139848753583167 8.213026516373025 4.291944287989933 2.06947604942301 -0.8800027372625748 0.75517465034088
Ni 2.2705797490806874 3.3624315002142424 6.566639852949956 -0.6974844947182633 -1.8014076916210202 1.3343356920251859
Ni 0.35020347843807537 3.2491917347241976 2.8100933955121867 0.12744084195419342 -0.688610332157085 -0.16381500970785334
Ni 5.328400666431377 4.209436069574052 9.887388665437738 1.8262558610129516 0.11340956067210792 0.9283248214067302
P 0.8046675911871672 3.7240092149422996 8.654599462468083 -0.3780784058742457 -2.609001478993565 -0.8740537187679915
Ni 6.293570455897041 0.8163753693945467 7.014741996304747 -0.4319417315516045 0.3591949387061814 -0.6538572449466158
P 4.389036969424062 3.085308426598111 8.07430323458036 0.6230626281632624 -0.08387272755525554 -1.590289525951829
Ni 5.790397343632812 4.224166742747869 1.5951198999989058 0.7089554714723403 0.08743190566142363 0.9255901960843865
P 6.178393405845676 4.729752322579027 11.869822922799155 0.27572973100198966 0.12188057425759655 0.26258445186928325
P 1.593343446608713 1.414427906862943 3.411869722880292 -1.8292905340742174 0.2921788776969484 0.11991753699395477
P 5.98347699219956 1.0153655635002694 4.8265397903134 -0.17971779698103887 2.313228713297771 -0.20000740046801038
Ni 8.836923526465611 0.016676182056389814 1.6819477146984505 0.15039539386783776 0.07839319249792305 1.09418025858338
Ni 8.219112514098684 3.2367364570964594 11.910575348410791 0.8440738845764494 0.7509989216966356 1.7689557417399018
Ni 4.083558263761804 8.447218633059506 6.049538395740607 0.14732601091389466 -1.3149529166231997 -0.42190414480994437
Ni 4.262300178947833 5.636693917588384 8.411864103628872 0.4241345768023599 1.1413407183192665 0.3328434452958461
Ni 3.4330053146816093 7.87398344187241 12.140055842833984 0.2636103220306363 -0.35942376688753586 0.9728378162174407
Ni 8.583312873492305 1.2269316586120764 3.9565500706842958 -0.2722787963389117 -1.4045849152597358 -1.0759825046284308
Ni 3.4304923276327264 7.072642131724492 1.7063026713627554 -0.6867395974969335 -1.658743090738537 -0.9447171467218247
Ni 2.4720207909191756 0.1852272493990929 10.6627127922152 -1.184448348142018 1.433929429860124 0.515140572968287
Ni 0.8227766327681567 2.5123656557221574 0.6040279637639048 -1.2719594437808093 0.029940496313174244 -0.7250930004641513
Ni 1.563004839327649 2.4293000110881593 11.206804644143029 -0.3065199769099689 0.8329433218809269 -0.21738420118356108
Ni 3.482817287057839 4.775241957231176 11.591778725202925 -0.35304306017217263 0.4900424923490786 1.883249761899492
Ni 6.663591807109348 6.009685162585734 8.645839646522411 0.6472397396300983 2.05348455909076 1.199671592849676
Ni 6.534067885542539 2.579421288321088 8.68307389026561 0.42824911319136566 1.0376805237244386 -1.3487613805322127
Ni 3.1207369749200047 3.717859250273578 9.68475052795051 -1.3950751759970879 -1.4583219997718755 -1.4793847339794457
Ni 3.286393081182394 0.7247436372710093 4.393845455915417 0.38748735789297134 1.0578415720533458 0.709198954941714
Ni 1.9544642546006101 5.441320597206109 8.298835429050932 -0.02050120527714534 0.753464866738625 -1.4624828160177845
Ni 9.123193872939677 1.8658517621896222 7.366721014319543 -0.9642498174381136 0.7205079521966301 -0.02484328429592496
Ni 5.38741474047388 6.654910579122296 5.768150554649152 0.646977487107647 -1.5919687134264646 1.2703761584540896
Ni 1.9092213495859869 8.022478131124608 4.90964929799407 -1.3511165110279504 -1.3660181107301315 0.2483269135090046
Ni 3.8797869975688966 7.0683015177309665 4.04543670713698 -1.367209559935071 -0.18500192819811365 1.3352008682389584
Ni 2.6693770865363877 3.3242340970712156 4.106812989005435 -0.3607810522463787 0.45883032841233234 -0.09669481902058831
Ni 8.892483385582741 1.8885326125726345 9.781408234171813 -0.5783511441885006 -0.025041773459976227 0.709454779706262
Ni 8.838413042425495 7.265365393037035 3.955706620849343 -0.4919402235924238 0.5120549920644277 -0.21198179922106716
Ni 8.211089231811705 5.8618849715725005 11.711761520305227 0.02225264075061329 -0.7950444899526243 -0.29179655465686516
Ni 5.1136270860317214 6.5893992912915875 10.555743614772222 0.5930681386837012 -1.212990164335453 0.8204120221831355
P 7.463818264821033 7.352451816949247 2.147623404939451 1.3370222377184133 1.0064431629767119 -0.47823958617687956
Ni 8.383891359427647 7.8213843384056005 13.12253965615972 -0.22537853224294735 -0.30367916502706416 0.2679197480392676
P 7.676645422524643 8.01909702127702 7.909207295976503 -0.9931083935410185 -0.009992078215705372 0.6082425324312943
Ni 1.046535741041146 5.344776203855373 5.896466414805552 -0.890182248898738 0.3987552174973068 0.4490598792891298
P 3.5329673704188274 5.207292966944646 3.062337897344373 0.007715109256070584 -0.9436097725902587 -0.07350346850578955
P 8.850722109897662 0.2010974479728954 11.445380324056234 -0.16794831514993655 0.4372901403477114 -0.029103088013543426
P 7.938489534883564 4.701506348149578 4.8987621242848345 0.2615614099214076 0.34582083139212055 0.4240073071958762
Ni 5.359689639723655 4.628894729638934 4.236466672085313 -0.3239551416672808 0.35900030619687207 0.15655421438038197
Ni 5.1203344769185595 1.7440861170028206 0.8099010009431509 -0.37735361189307914 -0.025307368416537062 0.19928749158285033
Ni 4.486111374588745 6.043569366139404 13.30262853240395 0.8641986803507826 -0.46651509865109975 -0.5096044736414063
Ni 6.5774466110736265 1.9589236643455377 11.08028077220585 0.6461519058825581 -0.3957118026852927 -0.6718156291972494
Ni 0.9786576763171262 7.524129953994233 11.159191306981203 -1.6008655016954625 0.5633266457552105 0.26178843833054916
Ni 8.242003541580333 4.642601931723753 7.568824570925464 1.442645469576883 -0.5540807016769103 -1.8132429936930512
Ni 1.9211374772650556 1.4533472226491033 8.652579934694252 0.07896140629656724 1.1924467929664624 0.5861133046324228
Ni 6.939133983418363 3.0128612945124855 3.444155666670873 1.3282144096187964 -0.393347159107858 -1.0060032472258156
Ni 0.22523126177689864 8.740068436534287 9.159316005687062 0.24720231298625817 0.5958832395349931 0.5285316495632123
Ni 5.607598096629676 6.544805193842312 2.723265580812642 0.5971335670023264 -1.1055144526492766 -1.5148937255193329
Ni 8.019855486459045 5.041262197158605 2.6530362740243403 -1.3957048391612865 1.5071827300283203 1.7714021463978653
Ni 5.336469639391972 8.144782926260078 8.093669683499263 0.0027665070015436225 -0.9942954718705844 0.7811363645119644
Ni 1.9444397208092465 8.507649117984108 2.6505881677319914 -0.2769962564192391 1.3848789521903762 -0.18311988068405236
Ni 7.711882070017349 6.7877150910547375 6.132393863275971 -0.601555607329422 -1.9380911352194041 -0.8254303013333333
Ni 8.12393884095643 4.232372787729314 9.81317330428317 -1.7791550508704068 -0.3758801126713462 0.4276937549085279
Ni 5.046041441618845 0.49952608269619553 12.153724664752966 -0.18592855377744108 -0.37131383345690244 -1.2354106981224982
Ni 2.7833753172084594 1.7312470377167075 12.929571492836596 1.9671345736396058 -0.9078398140795011 0.323943571703055
Ni 3.507901466873056 5.2351551397157206 6.311132123208111 0.7684261160341476 -0.09750857317113529 -1.965005700222061
Ni 5.79886839452123 8.163086610110671 0.4511058482383114 -0.09631069620829219 0.010080524164453607 0.6828441190972692
Ni 4.8043834688635 2.236997103972883 3.2409957416909485 0.03470397914008862 -0.09732756750858076 0.07519859682002535
Ni 1.2955316359792302 9.027563293061263 -0.07498022303090016 0.8486481342106933 -0.27385462546646383 -0.48887444018290643
Ni 1.3542624278453144 5.551243219791628 3.6500981536740156 0.3555087481038458 0.25870285742668997 0.24638958727697566
Ni 2.8585364753068787 2.2302622986818754 1.832866751092716 -0.5197497896055242 -0.9991381446748664 0.9685669567562287
Ni 4.610737255943912 8.896705203824865 2.810187518299836 -1.7849552024919517 0.39708297200120646 -1.9491736182858108
Ni 4.555972414547702 1.405984270378695 9.722881222710058 -0.09815032052019226 0.12185666299819657 -0.33288638271863963
P 1.427952346253297 4.230609127727734 12.647514740283402 -0.2487981967184683 -1.9648187810222355 -0.2782301288263402
Ni 1.865541065609033 6.241537916783072 12.83772775598748 0.07649546125457793 0.40043774740605226 1.1819934588436225
P 7.314163032458988 2.750870971997994 1.2085566973106414 0.6943796305406944 0.39391023070017966 0.8292645874777589
Ni 3.9356849676707855 3.7730718602712257 0.5738712053638324 -1.3966126956875367 0.7534828644607539 -1.5015489287813109
P 3.6497161796425854 8.95532633807427 0.7253394436549627 -0.304808650645817 1.5997285598775417 -0.8514172123153982
P 4.28974199752164 8.415180332719924 10.063009907615792 1.6857021358258841 0.36550314031239634 1.3510049251507508
P 2.5104466474302827 7.044606334393676 6.787721487749044 0.7127694459017919 -0.14413527189073885 -0.40851383954596737
Ni 1.7385758217647238 0.6977075518789139 6.297034722770611 -0.9823917784544629 0.6955152868070344 -0.0590366423481822
