# total energy = -340860.6003977476 ev
CRYSTAL
PRIMVEC
9.34986114913296 0.00000000000000 0.00000000000000

0.00000000000000 9.34986114913296 0.00000000000000

0.00000000000000 0.00000000000000 13.68446689020577

PRIMCOORD
 96 1
Ni 3.2267679878787443 4.736546170191569 3.909228379480509 -0.1430500092463601 0.81192352509615 -1.0068779365212852
Ni 2.082204732733556 3.451202055407275 13.406247949584204 0.23871253034769208 0.20854063475000215 0.4269175388641357
Ni 4.042580774419922 2.8258646406246055 9.417554165032383 0.4046921518070321 0.6356728607281052 -1.0924352508678152
Ni 6.552027413323959 1.7274149007706487 6.582597719405915 0.6054323166760089 0.23717681042945607 -0.9377067768422626
Ni 3.932776004837558 6.878590014414152 4.987509533804313 -0.18625456965829215 1.0542227443538361 0.6305910753298237
Ni 7.55925055774066 3.0079718866358207 11.074961980291457 2.0428666743655977 -1.5611180465941952 1.7477595672782609
Ni 3.033553106797379 0.31813650620364453 7.929081511368005 0.6935198536435604 -0.8517051758694621 0.411826191748652
Ni 0.6673987002427532 6.114051866530134 9.546475660763258 -0.6913848095784286 0.24189118518598987 0.6158650819735586
Ni 3.7836550690346695 4.583171047556258 1.3927366201847564 0.5087791495266335 -0.5815369981156501 0.007562128617974073
Ni 6.4157157873241895 1.951465623991203 8.94320952825887 1.5206851353901296 0.3463363375759584 0.025834958785232925
Ni 7.185190661906052 6.437211118154389 7.260950716995628 -0.08628853608559978 -1.3054408633677064 0.22097268986576782
Ni 1.462065840761496 7.710521961612686 4.855727915541487 -0.5274309602998658 -1.0424334650283917 0.8484635290037129
Ni 0.92121564148463 1.7721726861922065 7.762732521372979 -3.016337239071031 -3.086940246100574 -0.852904338383886
Ni 4.95807243089618 1.3522797709014722 1.541692063444933 -0.04128420346076761 -0.013949005980924365 -1.1436431412001982
Ni 5.58693474334 1.9731947013506559 11.621191154699517 -0.8490862501893763 -1.2693862837369947 1.581440045980999
Ni 3.508750450909613 1.2541529779206386 13.036671312180689 -0.8370722564476357 0.6528020642092242 0.3716123385339277
Ni 4.010136756159465 5.932384063993917 13.007441776190532 1.2375639970200751 0.4817398860206542 -0.39349962552532225
Ni 7.309637314080888 0.8051399200154394 2.020402150398796 0.43713407438582136 0.41641149712648934 -1.6040678106828439
Ni 7.596752850894173 8.324807840492225 3.327815677489136 1.248760637066843 -1.1627068426998686 0.19219278951959803
Ni 1.0251000789740485 6.928593071952169 7.280287164881637 -0.7847659908447517 0.9209652957178656 0.04816884639574285
Ni 8.309109423587527 0.30525239751116345 7.602460006152439 -1.907817166826211 1.2796131036713252 0.516334336166072
Ni 8.185270512388751 7.836726387687512 5.654284598307017 0.6269835604842233 1.6594300895032323 0.19055551102649118
Ni 5.799550586349448 3.8994343999047656 10.345497966615063 -1.4541149036690633 2.6708799616659165 -0.947777273704387
Ni 7.103865569447997 1.324809878783541 4.265544108786386 -0.24783480436393449 -0.3441424152484331 0.6629008432061229
P 9.049936323544017 8.260882839671838 8.96094434492643 -0.004255175731928155 -1.3074499233779353 0.5435867441241219
P 6.092322789170681 6.057120561865027 9.664805633760576 0.08545164200660121 0.5046826108597566 -0.5799683680769495
P 5.549180003934892 0.13937464051911339 7.749910121764221 -1.194789582167026 1.1755518169833368 -0.26649612821886365
P 3.06798864548708 7.306907154619201 7.277043698041709 1.2980574264194418 0.3078142702413602 0.2994427583482134
P 7.256922796803523 0.7379275080076243 10.917454219018936 0.5171344634698642 -0.15985962460453113 -0.29957722704354856
P 2.5072868209737296 6.634128544259138 11.087606732537983 -0.21006427048338017 0.5581255611702451 -0.9228583989755202
P 6.065675684835724 7.204928218836262 5.633265175410378 -0.422143257403944 0.18845157730961096 -0.8023669917559666
P 8.135005658737969 3.271778219551897 7.373040592647979 -0.896658857762017 -2.021236240580016 0.9929209601205609
Ni 1.5827631986070967 4.645983414897395 2.0423107450927156 -1.3970762655875166 -1.4117228118560978 -0.3931748951960519
Ni 6.19249720174778 5.554041931743376 0.8558563719607406 -0.44742208657539073 0.8513058835485144 0.6560637656796313
Ni 4.829053696609137 0.5870656280548519 9.843990113169998 0.9717803214872037 -0.8912749677422844 -0.4246904493058299
Ni 9.013789760260178 2.4708597618547845 9.448481635811042 -0.36023366438334087 0.2298525088539009 -0.4660322454774103
Ni 4.501294313289162 3.5989111621734695 13.075577019495842 -0.11485914863444091 -0.3910318807111201 -0.10024217005221446
Ni 6.068630240965494 4.085898681221275 7.327607747249936 -0.3648400528071007 0.24281909631689794 0.20636342459302526
Ni 1.175258849366825 0.6114285613059388 4.052230766133644 -1.2686596899836151 -0.7096560970837907 -0.13773939566672408
Ni 0.6074894647949503 2.1203895657524914 12.034708399658317 0.6859168444853219 1.8365960665966952 -0.379822642258862
Ni 8.283546903148308 6.577515134873816 13.99291433856709 -0.676717437374241 0.6275057515362805 -0.22205383874508855
Ni 5.349410870173244 8.646564612940956 3.1111494746207744 -0.20039332305251942 1.970363879210181 1.8138852552627407
Ni 0.34204129625739366 2.6215140748895798 5.717315752399537 -0.5167986773970003 -0.2905451987482674 -0.7308252749622381
Ni 3.4161868253250245 1.363752050557259 3.5059875669338303 2.6688919847016104 -0.12408786632156049 -1.5566474124173513
Ni 4.328368630947046 7.54872261406306 9.589184891602434 -0.46628395647690013 2.2129364067339115 1.935398418878589
Ni 0.7231014331501008 1.6235379431701662 1.539351793194042 1.8874465735896588 -0.7856910737621824 -1.4582032148058242
Ni 0.4861983907650441 6.650051357831921 11.877186613594041 -1.5648955113587566 -0.583942265123033 0.1929800613075838
Ni 0.27261951205506957 6.93209926989098 2.785664912523501 0.4480620341522347 -0.43484836367543817 -0.19934765539682442
Ni 2.221087570555119 7.394936097536261 13.062822873873627 0.8596290587022292 2.1188576851799312 2.0579256255812495
Ni 7.806601134997254 7.616798953242998 10.771563660250337 1.2074147271302045 2.315458373959238 -0.13286329852134537
Ni 8.380888307790848 5.877014186144227 4.454622611286073 -0.31540930897979874 1.7718081235870324 1.378568179481
Ni 6.740791760488327 4.231186173944398 12.983042378480881 0.2829087652489321 -0.6474955643946461 -0.570505680002153
Ni 3.0306546498346294 4.361392340600052 6.16752091760393 -0.2836872952861695 0.19649167400526807 0.7012514179598632
Ni 2.8251166517309927 1.244027078273355 5.602324614826085 -4.54653134239286 0.6976076505596889 1.091820757212268
Ni 8.465420402630269 0.9590900591127159 13.392987976472682 0.7293810863165439 -0.7653580186317851 -0.5990549523947554
Ni 2.7616310943856037 9.233876142344583 1.5036222337183909 0.22759662294018868 -0.25439188875616187 0.3615071317791258
P 1.1657967898626227 5.294994678162911 4.935289624182849 0.9418740208460746 -0.1187008909780343 0.2522108219444431
P 3.1287627430931226 2.909630046848073 11.432687668661794 0.2613567501097693 0.6859888353738379 0.7000720529397814
P 6.0950716483547085 7.118161507177172 11.958595854802628 -0.9863109110032111 0.06554641844224195 1.9014223190434607
P 1.5198666825154277 0.2667169446983473 13.435478420560475 -1.4642139397762783 0.193622322877273 -1.4697585237435913
P 4.661017991659013 7.9688492758830485 1.3327984001673259 -0.07675848510797749 -0.6174825629723236 -2.6439841657163368
P 3.1287066439261015 8.541631121028246 3.7466015692173236 -0.45814178698573993 0.10870984120359342 0.1433415723448499
P 8.931464232656914 1.8939639777947164 3.227002669394115 -1.2003915017348359 0.05931792103402687 1.5723103157655889
P 5.26054043975087 2.460855410402713 4.60760129980777 -0.39940442104553153 0.4332568508186022 0.31252581678441665
Ni 5.354777690484917 5.0089169759395125 4.881125878424111 1.0509546151255256 -1.2234946634112027 0.7083980563069735
Ni 6.8201440322394795 8.589128415772661 13.580410618559133 -0.824737903251999 -0.5312395354126785 0.44456661940446657
Ni 7.791033616148937 4.838543805696849 9.10067708512836 0.8649196176772072 -1.1004254681621437 -1.5664795680164247
Ni 0.32731152496992294 9.332330180466373 11.332572160210068 -1.3829279991115926 -0.48760997164818604 0.7066808165055507
Ni 1.697822590167091 4.506707882906685 8.269468817184396 0.7633738983222208 -0.3697156357318472 0.6508616526534017
Ni 2.014661335640317 1.804008963476603 9.909975823392287 -0.8912325445401232 -0.9216337825397999 0.4912231429207411
Ni 1.6722600697278724 8.381804594185523 9.787458982562972 -0.3986243483463974 -2.2338055368734366 -1.9944096073054747
Ni 0.08179632546103145 8.54476332452025 1.1092506994777263 0.06584029553357693 0.09597645279732503 -0.13610957337278495
Ni 6.78813010759285 8.168599709922356 8.701063083729588 -0.3279200398522997 -0.6083574607426039 1.0719751832412505
Ni 1.7928358793782613 2.9593900079956668 3.763296681322762 0.46810301196350995 -0.809686151125199 -0.1753708328662528
Ni 7.573817641443771 3.767087115041145 5.241684574729007 -1.3315781838847067 -0.5404021757485532 0.31866046892724476
Ni 5.198569559915046 6.286556805119593 2.7314880769591237 -1.3148572715856 0.15390340702109623 0.7241717742014625
Ni 4.537945769076191 8.685525484437015 12.352092242037765 0.03075656445656639 -1.0326699578837248 -0.27495120096475223
Ni 7.528452115046152 5.491519410098513 11.279764144321003 -0.06749171509407086 0.03233265069443463 1.5658056818778516
Ni 2.782705681463145 6.57251295914778 2.2670916924706592 0.30276822317702046 2.1565415728839503 -0.1303767846540658
Ni -0.08412350590628437 4.9190554602331 6.916554190709471 0.12269664240098868 0.8053903519633225 -1.407218496227841
Ni 8.409461483526858 3.144704256388246 1.3523153003739188 -1.0276966730388495 0.9872424216785449 0.17054101557777726
Ni 9.202572807146886 3.9925496672983933 3.601737625205209 -0.8844857127345928 0.29015490528838417 -0.9213489043095294
Ni 4.377221655561134 5.753521219808748 8.494851895621698 -0.9370742854645863 -3.2036606163134698 -2.9737643987058267
Ni 5.699488372106391 3.5132196845489494 2.2857577553107675 0.7320511769495393 0.052111633093574763 0.572813245089407
Ni 3.6294945580610642 4.988898923174199 10.646351254445666 0.36133718186016484 -0.9455311579826877 0.11890529367935652
Ni 4.613660944832151 0.10098972047113677 5.777759799906272 2.313307389054506 -2.1841539352845802 -0.5812485203409538
Ni 4.294942877263722 2.3003276439722287 6.78393762984415 3.158922907086463 1.1680012583295885 0.05230780826478089
Ni 9.225199471178675 4.585256066597203 13.25556839192425 0.6446668366965994 -0.7298798803298333 -0.9520458191727539
P 1.0146749837693196 6.207578527815249 0.7560877433584268 -0.7152467037976907 0.36082141856601085 -0.33895187218642914
P 6.9548100826732995 2.29984145119138 -0.013861169184762828 -2.3045635814236056 -0.4784265053767051 0.9357205996501692
P 6.889295605453985 5.117730660237839 3.2380598152139473 0.39190965533038313 -0.862063893395967 -0.8421260168214594
P 0.46368299008118075 0.11307441603356912 6.291707643638235 2.130742866653292 -0.4758245489774838 -2.7851716678326612
P -0.0493532421866918 4.263471244564962 10.811509072127613 1.2306927238215386 0.24528709824141628 0.404541999382413
P 3.0688862321594157 0.03689081223298496 10.726897503468246 1.6241095598250674 0.9941265503928878 1.9807969016180464
P 2.784613053141858 2.379530317944657 1.5355342448782654 1.4109190850078799 0.7566129254493034 0.4459154201228772
P 2.58542361077276 2.6432431522490325 7.766783816218009 2.7119931867664584 2.403935175945408 0.4382177943683034
