# total energy = -340860.7192893178 ev
CRYSTAL
PRIMVEC
9.39021724113845 0.00000000000000 0.00000000000000
0.00000000000000 9.39021724113845 0.00000000000000
0.00000000000000 0.00000000000000 13.74353211011302
PRIMCOORD
 96 1
Ni 6.139568204898076 4.1994366317419125 7.506139672313418 -0.6467846543705505 1.182268052661248 0.5887597411163344
Ni 3.070281783965006 8.028776629731652 0.4570275092659397 -0.02429743909478396 2.600784233290095 1.6944533996559525
Ni 0.23256845045552046 0.5480393732106484 7.7505416745882485 0.48273798826786546 -0.24409204949205054 0.3426732869020744
Ni 3.385933937913685 7.822990017987333 4.227730295435585 -0.036196247414898956 0.561794268271084 -0.12301854451678168
Ni 0.3274040108776322 1.8894431802656386 0.8014325085334003 -0.9904087352216686 0.5413480846015902 0.618854760729502
Ni 5.358978222644744 2.2917670397310896 13.490706377595707 0.6082502457407782 -0.6472299694380853 0.48551195146857673
Ni 5.4282216848853375 7.345168811571195 11.190767031763723 0.6057434201585244 -0.24245297122673085 -1.2427416845662729
Ni 2.5779620820648046 6.589500465985415 6.433965602027988 0.04850951756461323 0.2800995779349112 0.04499970463914186
Ni 2.1557685228297445 1.3346409725681885 4.708794882901072 -1.6108388108580902 -0.8768130266806834 -0.16470615406355504
Ni 5.118757684125776 6.92594256099738 2.4898057831956812 -0.23794839848815794 0.6943703745693137 -0.894864999086388
Ni 4.537681648472104 0.1443623834348 2.8285146766596236 -0.07596015757639821 0.26190208109027796 0.012538241676326793
Ni 5.3087029993146455 3.8069631102057246 1.5418323608179583 -0.919115129883004 0.008956180752023285 0.933900772832611
Ni 7.918526088618714 2.8857734045826593 3.0148222216732825 -0.06203094908981574 -0.21678719102951052 0.049890199962223755
Ni 6.105538057466571 4.416698089005354 12.007119656537169 1.404198992675227 -0.11795141440651945 1.8066609696001596
Ni 6.964188915988694 8.59957037746107 8.017577856600635 -0.5508992186251351 1.9465598348120474 1.2161500501206732
Ni 8.830175333482837 8.07625356831159 5.2709054967094335 0.44868192712442084 -1.3904441049829797 -1.5276129728582142
Ni 2.2960865396810046 0.912255852900567 13.686056701852342 0.17449511512951885 0.2993633112605296 0.13301345094596445
Ni 0.5762306835359414 2.574140263630858 12.063495704035656 -0.030373212975218656 -2.0973964299823615 -0.49894185172123745
Ni 1.9779929292388956 2.646820545396819 2.6652009567054353 -1.237455753576985 -0.5456613672649635 -0.9696941283821365
Ni 1.706934917164448 8.951722305986532 6.204448972189255 -0.9990263016873504 -1.7039903926121107 -1.0140621129745504
Ni 6.111951575870467 9.351576538306706 5.275248472202555 -0.12136558229439097 -0.5420916476358341 0.14820635663631895
Ni 4.7238990473998514 2.4142248633111794 11.39014482021279 -0.4987855286490313 0.8039425637732025 -0.9906010537381328
Ni 8.876638128596271 5.400520543902187 4.073885670588993 -1.2469012152606012 0.11969899322524545 -1.1087694692514647
Ni 3.89201969834992 8.713623956573391 6.797756704875012 1.038160805794967 -0.933874804690682 1.2299702438332172
P 3.541849105671051 7.140894024809347 12.240429934158001 -0.18616920903333745 -0.12530399811684872 -0.6330166540521808
P 6.147240012417815 5.514499001276247 0.44214495389502606 -1.512408497203634 0.8518998083787716 -2.141768528339834
P 4.130953777101196 4.781216933691767 6.059262127677058 0.042173290933940275 -2.041828720019387 -2.9624674856357687
P 6.898682760226504 9.15979074053048 11.358727031229256 -0.3622730634108729 0.3139278393382658 -0.8176015493175337
P 5.7046790718971785 2.31977805788456 3.440198125545356 1.1848931489889207 -0.2094063251844071 -2.2933425158968057
P 0.8096818144160097 3.0734462871891832 4.978731703031999 -0.16382143746575656 0.9683494414287841 -0.6509796662885047
P 6.856511294411139 6.637691061078815 3.7393403994680767 0.14873986054228577 0.8438244875698049 2.58201903686745
P 1.4044196771938804 7.128480157561982 4.439271232330573 -0.9702615708498322 -1.0005885039681477 0.9137723775138522
Ni 1.1550530670418317 6.334218018945441 10.179518569250115 -0.7897369616967819 -0.22297146546335148 0.4483805938339181
Ni 1.5855100174854249 6.567865405366711 13.053029289083659 -2.029376353188647 -0.5908821867759759 -0.2523884851728879
Ni 6.825335773033491 7.527479880109454 13.031878763676726 0.3474205717790726 0.02853513132521537 0.42841700622779766
Ni 2.307307849333501 4.928014200467899 4.272713192305308 -0.9684286314061515 -0.3393827890762607 0.028088016485467757
Ni 9.1499497928185 7.558373694968629 7.792884981379883 0.7362320478001063 -0.9314718516761442 -0.018660552523980762
Ni 4.734688407057356 1.5063504857945915 7.0247586345255115 -0.01748607259990537 0.78656987682271 0.08723521626958525
Ni 3.610970495086973 4.4765137730943945 8.053077573036838 0.4683284977107548 -1.1952719211200833 2.9176485295488654
Ni 1.0254774587616646 3.7817315963678517 9.992716159785674 -0.498826923409928 -2.5176730664912124 1.2448589880195915
Ni 0.47169408963935755 4.38677146652627 2.196600943660637 -1.007628955754697 0.07830654632138773 -0.9979590367651006
Ni 1.9889419225902019 3.867952571455067 6.690461265140852 0.8887149203245921 -2.570964064604869 -4.073134943240895
Ni 3.6545129326255728 4.640532698366492 11.701436157255511 1.1324354454098366 1.0511914137266798 3.3137061456093515
Ni 5.080464378048051 6.580363784569617 5.322045559051242 1.3771692422509443 1.4891078748044806 -3.3869463331514247
Ni 2.5168411577735075 1.5302955398647724 11.501412321857416 1.074833221515336 -0.5268321503736024 0.8148198728073387
Ni 8.762340403834607 4.290643812206096 12.357840515948787 -0.17705233433373377 2.8341362706568223 -1.4692293907129987
Ni 1.560569600383307 3.8493317705840213 13.6926120125372 -0.4853718263462866 1.5129474004262395 1.081445584625531
Ni 8.009892902776699 0.955060219360768 9.25023543535133 0.8433439483889605 -0.02505797140989233 2.3853900659533696
Ni 7.429906132327789 7.86078564254909 1.7045282044749628 0.3096037580416152 0.20687481701180502 0.2668817936930565
Ni 4.445742031059891 9.168392179561181 12.55184428304712 0.6104981612346906 0.9511397624187167 -0.05214685720688439
Ni 8.210355261321885 3.654954272837847 5.949698950469193 0.25893759914531533 -1.0930926819461564 -1.9979245624372686
Ni 7.236120218270407 5.366405884515141 2.1778552528997337 1.5610321717486082 -1.1380412216323883 0.0027505661619436498
Ni 0.23694053562221704 8.799572615359418 0.6533816477500642 0.9432850422609883 -1.554541421817942 -0.582698622523919
Ni 7.133813800978398 6.999327109059523 6.507287235634338 -0.08021764730117154 -1.9996626281742982 -0.9868940372001906
Ni 5.5776763831523954 1.0190827207923339 9.795991107718894 0.6009881648617263 -0.8472998477129149 -0.7266685724813872
Ni 1.5502309711553581 6.53535647313496 2.242490935519842 0.8653358792790193 0.3840161115149193 -0.11020750879504246
P 2.770546048310036 4.598577207548622 2.0297001607045626 0.4331871739229314 0.19283247998612596 0.6523346376545024
P 4.017041051248111 0.5219233009047711 5.021364228515932 1.2008990374988737 -0.2725366779859887 0.723629014324115
P 9.175049843614419 6.48638649000712 0.9282445758673501 0.03981867465883465 -0.13729459481982162 -0.1082753247693361
P 0.8283232737650776 0.9858789124816831 10.331453223901464 -0.8622137887102699 -0.40021997496829137 -0.353525656235546
P 8.135928399141392 5.079919745445671 7.401153287009007 0.7356468647205976 2.026188699489285 1.340240230435079
P 2.698701495882211 4.844206511222266 10.03130807477298 0.38350343354455885 1.1045508031844269 -3.7093590700322507
P 8.596058436197445 0.39259559436086 2.2033769244516335 -1.209107541451595 1.3186208523930905 0.8630015747188878
P 7.7779827065526765 1.5037869564764899 13.586017083012308 -0.31754461015524665 1.1934302399256542 -0.16344708484547335
Ni 0.8544722118314433 8.767918192900368 3.127327353955731 0.39062153264657884 0.5763117451609688 0.44092439466618905
Ni 3.534224249237723 5.9178370042082005 0.42726427656756893 1.7585517727977586 -3.0797257306300057 0.5256810674882947
Ni 2.302086888524473 1.5341924800369784 7.280938786337687 0.7559794056303625 0.6887399157564139 0.1080873771282461
Ni 9.157217820995097 8.146116784892822 10.336482624277929 -1.4634284677605054 0.5890554179798824 -0.3855322910491296
Ni 3.7120561841322663 2.6418812911062637 4.007985125700942 2.614804458828587 1.6453286171048438 0.6234765757722295
Ni 6.478245171623257 1.248213412700759 1.593548982500908 0.11981109332307753 -0.8159388169031303 0.6214711153064264
Ni 1.9570996957855025 8.496963473216026 11.477759303544717 -0.18809676507335346 0.37752896112867884 0.23315406242330813
Ni 0.029018588467874515 2.873913560154958 7.774620069743841 0.19923709796088912 -0.4035156150004277 0.6642961808917527
Ni 3.0077992781677576 2.3229331708914542 9.516901642802788 0.6342934638820753 3.680496380164287 -1.6984833467509521
Ni 6.970395849612375 2.1297764013919953 7.625448017016983 0.25139501091136707 -1.315039048579103 -0.5957775671950643
Ni 9.360506634942292 1.020566375122957 5.0826466645444865 -1.5943166448333512 0.661089758139313 -0.08692694100054707
Ni 7.565829527490874 2.1436739229699824 11.302516251554938 -0.8629501526556621 0.5930213446061657 0.7835742845294957
Ni 7.4542549657411135 3.732207590420348 0.2817722499936933 -0.03193232993222243 -1.4968373822382544 1.430991944498355
Ni 8.8634260928799 0.32567245481075324 12.177291991194439 0.6012658440031451 -0.7897660151625043 0.1547421008723077
Ni 4.634175521266291 4.929920414576231 3.699002843087969 0.25612224118370724 -0.9292087666735804 -0.0937323939581547
Ni 0.5334929876184455 5.757818311498416 5.972292752272433 -1.243210396672575 0.15534990965963566 0.6286804885706722
Ni 0.9973161971316754 4.998722536604551 8.055579126920875 -1.5091627365728268 2.95705145682652 2.842633509494556
Ni 7.339487730115329 6.550869112085524 9.13139472346843 -1.1092183838634253 -0.36772765876754093 -1.799881999005113
Ni 3.18698340435097 0.2530625996744106 9.384413189121615 -0.48950718867089893 -2.476969675234579 -0.8753847788745892
Ni 8.221745594885464 4.104144706759875 9.706080716261413 -1.0165637963504817 1.182826239157563 -0.7593097555551761
Ni 5.36256528564663 5.14721004249152 10.103420248393354 -1.1262887090821507 1.2027553739813222 -2.9282453312281054
Ni 3.372806414152856 7.264957575544731 9.779801434102266 0.3458930793909527 -0.8171138110478378 -0.5123817792762272
Ni 5.968309422101229 3.2055854247874516 5.272527187234108 -0.6964455119307876 0.27269171550661425 1.0474314324636154
Ni 4.6771263751160985 6.342641043847775 7.35108558748085 1.3726849812273454 1.3722646058604755 3.5194139388962484
P 1.7918412618321247 7.991966977984553 8.265896518503965 0.9710992362597792 -0.04682441655270645 0.32559884791829086
P 2.44134381082282 0.4956119120794194 2.0582999454816413 -0.06303033688860758 0.14198788653043287 0.07523664914681236
P 5.382078157159506 8.53060862173895 0.873224475744444 0.04875017282050959 0.8572782990818656 -0.054616401793299484
P 3.388506857449069 3.138802199474853 13.23208007418146 1.5427842812820138 -2.2182310794739473 -0.4167740226722306
P 5.332723175123086 7.643270649419024 8.822069697924649 -1.0772598286789576 0.4038359744543239 2.0278763716043526
P 7.916967312549832 0.17102684442997088 6.467362848814656 0.026675452408657284 1.531528762972853 -0.297304628959288
P 8.088019510566465 6.095377842366989 10.922149537160978 1.4071418773536346 -0.6899928143269085 2.7890334647809127
P 6.2750972109353 3.2549591872584367 9.92230831060206 -0.8971856767997645 -1.580680027886523 -0.7145005696602855
