# total energy = -381165.1986293664 ev
CRYSTAL
PRIMVEC
9.32342273253450 0.00000000000000 0.00000000000000
0.00000000000000 9.32342273253450 0.00000000000000
0.00000000000000 0.00000000000000 13.64577159508684
PRIMCOORD
 96 1
Ni 2.6841295558230205 9.059141200779674 8.034698404768182 0.9727246876783441 -0.4790427988044653 -0.6202812087633833
Ni 0.5766621003930448 6.515170662128734 7.317599449199218 2.2430285981336016 2.3726433078106623 2.380676976748416
Ni 6.171229589589783 8.67070875393452 2.3668320290415794 0.8308617567615496 0.4104694206104415 1.3422927420887334
Ni 2.482202861622733 2.2002998453774705 8.58248120258087 1.9570152258174165 -1.0055337637885648 -0.17346410276184318
Ni 5.912215576681011 6.410356741351209 3.2521152788209786 0.8954548101515869 -0.6191110997146821 0.6039318208710824
Ni 5.070245220547233 5.30368508431059 5.243551803325108 0.5112006144839325 -0.16832343910116818 0.5411143713242293
Ni 0.052058264370520156 2.9817518631580273 2.7857977536980068 -0.06061889923363753 -1.1524154880761897 0.10928422564982469
Ni 7.935155947325263 2.8154126743489347 5.273436170899222 1.050193054369153 -0.8903054047401634 -0.36757210702628307
Ni 5.212390126807164 9.108145111792542 0.18634632211246313 -0.5351023608021946 -2.2817224151593734 1.1544921680995601
Ni 8.366485463152573 9.086542740822829 5.787963251399923 1.2512939450116578 1.7703428518954154 -1.0581423911232164
Ni 8.969766868403465 5.817899830142545 12.978343662136108 0.038077523598011837 -0.8359720814049215 0.498553100923251
Ni 6.863092836266334 1.161521354241667 1.1071350311611174 2.1163639722238003 -0.21307863182967174 -0.4661268620737456
Ni 1.9019596344754945 5.0884165718722105 12.239138870758255 -1.4379884304208461 1.418213304676448 -0.4543810343917271
Ni 8.874313664265383 5.0337160494383255 1.6216639763464074 1.8420935993761565 0.5167279720600649 0.2963350659571671
Ni 6.122906288452093 0.681287688027027 5.89672004774201 1.2339233149436943 -0.27100121517806874 1.8339892251014673
Ni 0.3674668656627663 1.6440271386286498 9.067915474115711 -0.3273484836195459 -0.5183099718352041 0.5528008065232222
Ni 4.806168588977885 4.874938156639779 1.4539430562564726 -0.10518511587978659 -0.12978157427222808 -0.46906846120057283
Ni 4.574481528728686 0.28389077001770224 4.441671233523946 -1.4764153669384767 -0.38929278653282634 -0.3238402133559713
Ni 0.868405989559556 8.320166697948629 9.547114240383161 -0.3715436900795214 -0.5725317092932461 0.7849590806921642
Ni 4.6300864231884935 7.787072020647675 5.965972568712593 -0.20835371555017665 -0.39245524342120797 0.07553978220952796
Ni 0.5339710790580325 7.325254911781537 4.908069872426562 2.752735144570511 0.08727121171384326 -0.03240798401706032
Ni 0.9645640444724789 1.6207651983742535 6.577261861933225 -1.0264566299841613 -0.18108176720810104 1.154585756254631
Ni 4.201227614442311 3.048162604814166 3.333075221986931 -0.7888841267781833 0.1394275820024244 -0.9873565786589059
Ni 4.725688802093736 7.834295157877541 9.133374294288895 0.7344921822908641 -0.26179152365434266 0.6592267367886453
P 2.70058539732563 2.104911905200024 1.251511032532422 2.9903328445874693 2.7134216916828686 0.6978832728185786
Ni 5.0852932251847465 2.467257414637644 1.1911847566919225 -0.9057497643196917 0.9866078734183396 -0.9395291747629818
P 3.8310131360368707 3.7439883062434696 6.201757273347286 -0.9585805349674782 -0.19718792874134428 0.2164416347646337
Ni 2.695755864238745 5.720535324300195 5.542189431419113 -0.7041832468946775 0.17560403192298144 0.7720683407724251
P 0.5859706058639824 8.639521904174616 7.405082991401644 -0.3766118486310482 1.0951948158908236 -0.7707347095626661
P 2.36704926479626 0.5952007945821598 9.96442878683556 -0.915351549075514 -0.884935655787818 1.1636000439380993
P 6.7955819307023715 8.395714394093467 9.894453700586533 -0.2089008463028983 0.19676781048479017 0.6849588514474269
Ni 4.110175065935523 0.6631237954404077 2.3466766533133416 0.5571200027238663 1.1726217878207352 -2.657718998803926
Ni 6.612274112128549 5.882427240363256 10.704848420223492 0.9105114473743933 0.9205356643796145 -1.5982100663504861
Ni 3.166793838400114 4.20607579437509 9.301285412206962 -0.03301964945913023 1.0747810281211618 0.3989513926685129
Ni 3.553659950190063 3.8284585181492137 12.610003191743147 2.376459853343275 -0.4533387091701418 1.9540216904067313
Ni 5.872861408418964 7.754477334022678 11.847449752277486 -0.4802208782729665 0.3922986632386857 0.009309707436700095
Ni 1.175525135509043 3.2898816681550405 0.2031639124254412 -0.6404967644793098 -0.22994275457486205 0.20406151593272598
Ni 3.8050287562817595 1.3966487575585498 6.543939015976015 0.1776999952200617 0.770244657300125 0.07039834721790456
Ni 5.447125946360245 2.9224455697880014 7.562636718767162 -1.991909980812073 -0.7652106944206435 0.3201483663266809
Ni 5.533190463590038 2.801688595769988 5.1239872951021 -0.3480283805664006 0.8364472212691272 1.0502287927030944
Ni 2.879184887310887 8.367539009945657 0.5413468389519215 1.3494823178586373 -0.3219208848460714 -0.06136014827503626
Ni 2.1661574705431623 0.49004283949786653 3.433234890028987 -1.6675694307809152 -0.5109712720819458 -0.9279972628639825
Ni -0.15281836085040507 4.941292957758232 6.217082183646345 0.35490890973631783 -2.63823132239296 -1.0898268667106907
Ni 0.6894727210327724 4.153799361907596 9.49673419214322 -0.037148584025839246 -0.7396487867911391 -0.2790456827491001
Ni 1.7013288960649307 3.883009865815936 7.326401692804097 0.6549746463805107 1.2242202287233175 -1.5148613296195008
Ni 0.9635011742564463 4.8790311393138 3.9218764190578215 -0.9957797697255948 0.9531827609906747 1.336785182006943
Ni 1.0306950834401878 7.789029939466682 2.0616167260580034 1.140943482880848 -0.35517733290635606 -0.5023220810473801
Ni 1.0141460077081021 2.914035842289217 11.618747119713829 -0.6523546922591603 -0.4573689133754575 -0.8807144186176187
Ni 2.16270780405253 2.51078847638024 4.751075550437903 1.3738170379492598 1.5062962136583091 -0.002882206643801488
Ni 5.4773058664418 4.584047360672979 9.266720686313125 0.4217802176375704 0.07078195580956842 -0.48317070492990977
Ni 8.399220001121785 1.08051945567245 10.955412614914806 -0.41918700298909745 -0.21278398340738838 -1.1890930460028812
Ni 7.021441851609287 4.210644271619441 6.873416662496272 -0.002045312564802929 1.3795022612594954 -0.04188712715208915
Ni 6.515413071125374 1.516454742435902 3.5549829439063356 -0.054495045724086796 -1.4269501703288134 -0.7450509316433169
Ni 4.161435245301724 6.5458167533576725 13.177353057296074 -0.16662085458776466 -0.4997823453446618 1.275815584302106
Ni 8.519697272451369 7.0278377197513775 3.1308445841985497 -2.3865902569090576 -2.3504577728525584 -0.033716932636470964
Ni 5.867136826729104 6.246357731701978 7.439824862331486 0.19270726726217133 -0.008097432296153796 0.28592081260237856
P 2.1461121112057064 6.047237387808934 10.17697579211552 0.16708776692185418 0.20578492638173593 -1.036589861763421
Ni 7.942941005486553 6.937400517159135 5.946991011933465 -2.5731988674726587 -2.6909790464086365 -0.908541468132216
P 6.85540101233452 5.484680693993395 1.522663209776745 -0.5620048416199934 -0.5574141369255176 -0.6208969879705113
Ni 3.9408430583602336 1.3100061881060023 12.878402162191028 0.017261872404241235 -0.6514668903375683 2.834325760959809
P 0.298977000689301 1.5457675841833258 4.471691723073097 -0.49108301779845104 -0.9498647523610351 -0.6917645615153505
P 6.6501085624501295 8.248516192595908 4.497236969607373 -0.3680382480294242 0.2909601747984989 0.2455470367710223
P 5.388285824137602 2.5421711180220425 9.993699673179718 -0.723207096295348 -0.34881462391312185 0.6456911641960557
Ni 2.248679087052847 9.295909526535343 5.634693636878851 0.2839765443918142 -2.1373202627604933 0.12572463059403508
Ni 0.08987406784620425 6.055563204501189 10.646240451232245 -0.6871103505727908 0.941746751239591 0.680624485738131
Ni 3.4878086139107842 5.403399092735749 3.3322156023911575 0.7576169412337855 1.1519753152149774 1.0107536174266076
Ni 6.281898619978435 3.18958028408418 12.104672735638012 -3.275879818790197 -2.6023204674289633 0.04177836948836676
Ni 7.071974803985571 3.6604597600554385 3.120869453986855 -0.7683086166196769 1.525826827492069 -0.4000567099175497
Ni 1.4035201202709708 0.4368583056352698 11.988356507969966 0.4785018386993308 -0.08322095290386958 -0.6113211713566181
Ni 7.369923431123746 2.7607587690297875 9.110149647726288 0.23636639871301873 0.7659455157041389 1.6225103336587479
Ni 1.384518984303652 0.6877749257140046 0.949724884508993 -1.3579170788895516 -1.1478196411753911 -0.17935167189087176
Ni 8.561195827991376 9.260536459871945 3.254557083290969 0.2569056563169511 1.725069838990229 0.24940112040978982
Ni 3.514557514347603 6.375999927789104 7.848379120582268 -1.124525703644457 -0.7618160669167976 0.11551195172709139
Ni 8.161071808769863 5.495253455616035 8.652633433865901 -0.9085088151220675 -0.11304600668510209 -0.2132321266884005
Ni 7.259962980879116 7.440119482496632 0.7676524194757344 0.5638138698042741 -0.028990216584762973 -1.3619310851449513
Ni 4.443776462425526 0.5035133209726369 10.543883252401427 1.8179740806201334 -1.2951513085162403 0.41179996649640693
Ni 3.228132637972729 8.113876641808838 11.59995669310513 0.3804888150879512 -0.09064578461303098 -0.7069027027083696
Ni 2.0395826806058133 4.280803029300537 2.1167181556786376 0.901105580679461 -0.9661172096641555 -1.5620935231335873
Ni 3.2363186033207687 2.1950973753726797 11.187213420923964 -1.860465674125441 2.738510773441013 -3.6440031703342597
Ni 7.399338830523594 3.4723130849717836 0.6364364295950433 0.10626446498689442 -0.4491634947465297 -0.4652740271551471
Ni 5.478107680815299 0.7579765711406591 8.522671444371671 1.0798792685796759 -0.38679393137037255 -0.8825008210940801
Ni 6.743818286496998 5.242364931583871 12.773534165560406 -0.9934056130664632 1.6162646098593518 2.3204915655077714
Ni 4.158666188686271 7.710666569591652 2.602685727006085 -1.9872123182260875 -0.879907349335291 -0.3368425391529102
Ni 8.055232311468096 3.8779192768865176 11.293718610624193 2.8336909555892875 0.753642787077386 -1.0704687738990533
Ni 8.957599801456777 1.3813769907702926 13.088096200049007 -1.3202139079118231 0.749847581701012 1.3690072752654423
Ni 7.446217001104397 8.044072174199755 7.789934311492606 -0.12786018887979916 0.7725103134058502 2.0239410411056884
Ni 4.0818784772893935 5.754892137862299 10.9931016198384 0.7620451522084682 0.30317162926302627 -0.07107531868027113
Ni 1.3506096950430349 7.440921296870131 12.735421877234987 -0.8373987865491191 -0.302989080938575 -0.10310277942946115
P 7.965755421439462 5.081657090235161 4.5340262642165206 -0.3702853921923881 0.08912574842407875 -1.082006085114691
Ni 6.503451119483533 0.7188163300759234 12.317219740917972 0.5081937093368086 0.8285647331972568 -0.6948789387746162
P 8.754666177578141 9.110550554913038 1.038506247185732 -1.1590808159115071 -0.33589148809355057 -0.21856253776237844
Ni 8.385076368510195 7.969428850080837 12.110199660761381 -0.31519462186583136 0.8591593181546623 -0.41503698537646583
P 2.630128290110209 7.493281640144154 4.115387791705556 -0.2259071510529077 0.2991290837625365 0.47801178643678965
P 8.868039000621613 3.1541978939978335 7.589614975408494 0.889526874702926 1.1323984215243141 -0.2396036747033938
P 1.9758384379127036 5.946367274938267 0.7038130778685588 -0.12470107442552719 0.6065206646441813 -0.34343407632749884
Ni 7.852774182159792 1.2498887569395303 7.4637049455273115 -0.5266460025047253 -0.3462700031143972 -0.07326101347768028
