# total energy = -340865.04017326096 ev
CRYSTAL
PRIMVEC
9.36832855505931 0.00000000000000 0.00000000000000
0.00000000000000 9.36832855505931 0.00000000000000
0.00000000000000 0.00000000000000 13.71149580549397
PRIMCOORD
 96 1
Ni 6.955374892964563 2.7023036942634997 6.313786796404327 -0.8712648431689447 -0.19851333242098715 1.0127925022335074
Ni 1.4469945307908902 2.6214550202027613 8.926677290787119 1.5557858357480046 0.7783202352194081 -1.9691750011084024
Ni 4.1307301981727695 2.4290670282547517 9.415081039239666 -0.6532628058957266 -0.5477521883557211 -1.312653836176378
Ni 3.9156333781919406 8.192968547439623 1.9981211115228659 -0.10453565522124576 0.8289560550984046 0.986896608303352
Ni 7.837449853125491 2.5853869558767077 1.4596848684366233 -0.28102028997696765 1.2699164452088516 2.0153916088737804
Ni 2.5323996904667965 7.893453720279036 6.968031504628069 0.051937826519871846 -1.3099649764903052 -0.29388583308572613
Ni 5.839475824358448 2.4570033835327494 2.999760299675402 0.23145353479243366 0.43827050198310974 0.1269890991287555
Ni 7.04274392358918 0.3277846949294954 2.584123168376036 1.2572257371150606 -0.7377538837612714 -0.49345588890600167
Ni 6.28227923434163 2.03726479806145 10.267304757798378 -0.9178504042379676 -1.8833425787236144 1.2153206122408424
Ni 5.658751401263928 8.81663690544327 6.370950462613343 0.8272208175748527 0.05753306121946221 -0.0248445698475056
Ni 5.621755872426634 5.529880675843359 12.785380274147112 -1.3396033681820283 -0.8134803280603086 0.9370629726106764
Ni 3.153501126489835 4.158254347001327 1.276079684360218 0.435875776498688 -1.078152515696556 0.7986463483712697
Ni 3.377226176923727 6.764766883411865 9.389824025883035 -1.5972088787794816 0.5124208600442788 -0.44432982080331224
Ni 1.0683641703228954 2.2019131696277854 1.3890701563160877 1.0373421665484133 -0.1432281866954372 -0.46700875045806667
Ni 8.585801293756527 6.724454966322254 2.247656843521618 0.9019139355133692 -1.6253935687438137 -1.6051168207726487
Ni 5.43191606580244 4.418665771435434 10.574744253949461 -0.4508126003141784 0.24148829332061636 -0.4846295488636234
Ni 8.045998211557253 4.5899562878348 5.433563954767362 -0.46590369031934603 2.4652133060295993 -0.1892912996020869
Ni 1.5749096867150294 2.547004914436749 4.148714578195295 0.61014951964602 -1.6727106086622223 0.013477722771460659
Ni 3.600951227357619 0.5708881326512946 6.793086403321276 -0.21825966180997894 1.3520410797247489 -0.3329043804407686
Ni -0.09350341205856501 2.9647855192732058 6.595640450872062 0.6406782843624966 1.6464156795214355 -0.1173099241677786
Ni 7.764311313334972 2.4183590288976924 8.504417688144354 -0.4325431125810293 0.42893534062511285 1.1241374670671027
Ni 6.183302844833901 7.354540629277418 3.4631122011631974 0.1843270136182761 1.3952081020305263 1.5433339831378967
Ni 0.040319411752329684 1.0767581925660497 7.786265054099043 -1.2517652282211218 -1.84841851315292 -0.4808379430316751
Ni 3.7687473572651373 2.2293342668439826 4.454220451365366 0.8285796455955924 -1.9619360601578015 0.6577900043421188
P 2.351085062683305 1.896618083846634 12.337288442784178 -0.46867122576215414 0.5976876397335835 0.31987891471537816
P 8.502188962818856 0.8774919739094199 0.48908201542844654 0.5542835617163357 -1.9650576365059187 0.2750995536171585
P 0.3491210628522453 1.0674929157820323 9.922035951582723 -0.5284365187462448 -3.341772307717948 -0.7040603481635681
P 2.221596027588575 0.50084020439874 2.3202726305876196 -0.02497672454999569 -0.091747502317642 0.3321322781614344
P 5.938452213866176 0.252688174504133 11.931963030550705 -0.4911202987942897 0.22449304431420047 -0.34089176952161937
P 9.5285268119556 4.11991914720335 0.9945492372221574 -0.7218055879621311 1.5653230858144782 -0.2567868713508997
P 2.3397493853236884 7.882024359635455 12.697749867160237 -0.19778056802002067 0.5901499365956416 -0.28678161794077706
P 1.9039253799958087 5.160365698905039 8.135208118711757 -0.033174172759123516 0.47344627855329435 -0.2802350750715109
Ni 2.7942538374739447 4.279621041376398 10.03739098962584 -0.2503514001382011 0.023190836294166513 -0.832787770139669
Ni 1.5659348281112995 8.055919271329016 1.139215901151859 0.41568618892469056 -0.2727729623665109 0.5317193032625745
Ni 4.007414891491251 0.17110596032995842 13.642540164937877 -0.9445322844045281 -0.8419560669024984 -1.6897930180658056
Ni 7.180645717583857 4.905378536612436 0.9077132644832943 2.163569169154693 1.3348316578249981 -1.8376309356191125
Ni 4.220113419402607 8.340482246368984 4.742531694596724 -0.5231850405393184 -0.08865112278050538 0.033650341064593664
Ni 6.974120918085714 4.7813699736295865 3.153479579334523 -0.11370189510154612 -0.12983582454893122 1.3266455224697797
Ni 1.589917748806026 9.150299289608652 4.7255159997303835 -0.009244915637035691 1.0568650670726893 -0.3439724653294721
Ni 3.576209472062786 4.396865671257062 3.6914773846518156 -1.2707623381489146 0.9794653488362873 -0.8030773875594298
Ni 1.0376735264963626 5.894121283894519 11.113496209702662 0.32371602907328123 0.2370657387728885 -0.07413236033904007
Ni 7.666243651681691 7.639459600796448 5.615364798794626 0.15482540461473338 -0.33892718959608076 -1.65613419236078
Ni 5.7527157350795965 0.6274503521772636 8.403940492427527 0.4827994376334201 0.9019105930792595 -0.3064904092236141
Ni 0.5157929933521982 2.69744153182578 10.97728633581637 0.16224303723504316 2.4824342978935765 1.7653921927583593
Ni 8.071105331659544 0.34512921812254876 11.851915348567855 0.42842909041265564 0.5927243821910373 0.33229991408755033
Ni 6.227437039909235 6.8161146913524115 11.022067882383894 -1.7779800567256994 1.046607136790107 2.0818631102334533
Ni 4.018535097297752 3.307600760281849 12.814160715813625 0.5260291948563328 -0.6203400870257768 0.3771620647075633
Ni 8.027074188196568 5.194072944475206 12.020470313075482 0.4390143221276698 0.3509640661559569 -0.05369311864808171
Ni 3.909956171183736 1.7759633824296877 1.4804853679751004 -0.02368320254955276 0.6028157049887682 1.5204791900269103
Ni 4.344599767133673 6.137248142437309 6.54961104296214 -2.4628823439035776 -0.5386350565458013 -1.2349535559804214
Ni 1.4411955355135326 4.020924021038828 12.813076800218163 1.0845895295711514 -0.43405466412954924 0.6083649169417715
Ni 5.280655035514528 3.8590767796630097 5.057225087425121 0.5840008862751105 -0.19020378411402727 1.177727484478417
Ni 8.869427435956856 2.619300304671594 12.987693073198244 -0.4202082451647602 0.515020502450655 0.3162940255775972
Ni 9.291779785050744 1.2775964167275915 3.263747615058406 -0.920536178600247 -1.0122551416727987 0.11791310496941629
Ni 6.39870881965181 1.1928598863823565 0.11828076700130435 -1.0676981531324514 -0.20552987294813635 0.10290249049319695
Ni 5.812298303680556 7.882783194235562 13.257823201510753 0.07407296785601437 0.11821289559802223 0.919012542866869
P 2.512829252446764 7.175774186817741 4.788492713709352 -1.7090881188499922 -1.9089620790639314 0.6866961458535077
P 2.8999660550986692 6.161952424418556 2.324592366811189 0.5535759941263498 0.06622544678713756 0.3731228616411832
P 5.847101643673099 5.8463147040878045 4.904437019608601 0.6485265767623217 0.7870866685581283 0.7459798712154895
P 7.433628057599637 8.606514667840917 7.651330209707498 0.21185915760027388 -0.1782869780717833 -1.057759296752185
P 8.678332273327547 8.315759227730943 3.57431238556252 0.05250244077409022 2.118866169820364 1.657783555038745
P 5.178109312887779 0.38333888232001423 3.5537039367561682 -0.8029709438885526 0.662814968360536 -0.6502736413604155
P 7.595006882555636 3.5877231476619342 10.55384819746134 1.6092460124496737 1.2343287779122292 -0.8501684275099616
P 4.066529043672395 -0.292608495466777 9.339626648669563 -1.1727153759758062 0.2598161450955267 -1.6931169402327164
Ni 0.03170898112321908 6.440322934388519 4.414799462306248 1.4395303209866692 -0.1492931619425945 1.18407630951458
Ni 9.593168277890607 4.167069944022318 3.293967031966601 -1.4326410500660036 0.3488593611081282 -1.1977769469301243
Ni 5.226047049292043 6.181522862438588 1.630611893694211 -0.9947891236775513 -1.2722353231500152 -0.7591146088252346
Ni 0.19294728115327303 8.47460860401992 6.653339048632511 0.17626506254574803 -0.8321881888824572 -0.16412611319036896
Ni 0.7147903409838517 6.131327358890798 13.796095498850061 -1.7943734104820581 -0.8803416086592322 -0.06160800261978421
Ni 4.222764656338782 8.302287571496953 11.2661877837367 0.14466311936975088 -4.956098048683374 1.5025238911000705
Ni 6.337889631702526 6.64592026937542 7.201565194892969 2.0225058513210588 -0.009825470730854047 0.284484080155852
Ni 3.9654166752902915 0.9548856084575742 11.219582223630402 -0.34427431284060706 4.532071458213788 0.18142089571507464
Ni 8.408355785600738 7.847680067734336 13.483336665835514 -0.11064973853878364 0.226347581024436 0.3013962825301584
Ni -0.3179207819609495 5.890917315582958 7.112180099997452 1.6594123488914194 0.6774296329499172 -1.0166093048764362
Ni 8.07574265421575 8.913917627511253 9.619779951533358 0.4920101575984107 0.47547796427134237 0.1132810055140436
Ni 6.570261649246276 3.2140580012440196 12.410767989728326 -0.4611085829235478 -0.12553539740136446 1.3839520695007326
Ni 0.9766482353223591 9.747370963294982 13.205404593634503 0.2494779963943123 -0.01982680491794005 -0.4619634747246754
Ni 0.03474806685500396 4.478979069651312 9.100785800368117 0.11778892068672618 0.4185856219596726 1.0030863306893372
Ni 2.9684953773181713 6.082808786125958 13.845730776359748 1.6431565491541893 1.6112231907807024 -1.2835648892302218
Ni 7.421289969101608 4.717009557546473 8.003783586970334 -1.4803789795719149 -1.919213324478295 -0.4394853482268173
Ni 8.14341945855118 0.7944145745231834 5.436374453286276 0.23238298858523848 -0.7140544832618025 -0.10472283153138738
Ni 5.098937569609992 4.1913058095837465 8.099750869397147 -0.3439716939985238 0.002722798247801762 -0.6016731067438928
Ni 1.51785656678109 4.454171736057704 5.23921704535167 -0.2508897891401744 2.247521600907948 0.7243802906678428
Ni 7.541832250577797 6.494865342312228 9.441365758221385 2.876054508157163 -0.11712891850522408 -2.6155595918270564
Ni 1.1523980760384018 8.462045675640379 10.786490959695746 0.09538047108453897 0.23328518868453374 0.5960943271045347
Ni 0.5830800752263403 7.350456038096597 8.67814303309394 0.9045452024886292 -0.3366263093770461 0.8692041039851741
Ni 2.873781577230794 3.437726841707533 6.868664455826211 0.6776834008319361 -0.2585673602900902 0.47124747112976256
Ni 2.0324307406089193 0.2773128256940114 8.62023926894161 1.02759768556714 -0.7502417318156369 0.7615656414688884
P 5.336359116159389 6.269894304201618 9.014979406920016 0.446858757872753 -1.3866283307813152 0.6276273647158094
P 8.010979400011593 2.8002964092896083 4.4530821994652054 0.2537812517553565 -1.2136951608222775 -2.3227369098985227
P 4.962787653025438 2.254994118321661 6.785956168578792 -0.8464984348575422 0.4150377567074143 0.35010866013419706
P 8.639669182035696 7.259911144145608 11.208269967091775 -0.08574423354635555 0.2609911392402344 0.40148367217206343
P 6.848510370947085 7.626437624325483 1.5045619719537906 -0.5005996990396346 0.1779311373942613 -2.4149983757381053
P 1.5811396250986205 1.648526011253764 6.329994004530059 0.9367688384090255 -0.7441541308606603 -0.5538112500656075
P 5.714211905370484 3.4995015991532465 0.9769798741475909 -1.9055350556602537 -1.1765812866891157 -0.21838847407835937
P 3.216737343165383 5.094778031802001 11.89442039133506 0.6436677060081237 0.9773200203585104 0.5944305662488665
