# total energy = -340874.1365145256 ev
CRYSTAL
PRIMVEC
9.14539260160478 0.00000000000000 0.00000000000000
0.00000000000000 9.14539260160478 0.00000000000000
0.00000000000000 0.00000000000000 13.38520650289795
PRIMCOORD
 96 1
Ni 8.563032092101855 6.945440813363861 7.08161753510896 1.2030952738192442 0.7652981119281272 0.5004991689060284
Ni 6.088371220271508 1.661361126709951 0.9066604833196696 1.3907192130212371 0.23691712901016618 0.8057801312025735
Ni 3.606704977871477 8.749762713892794 8.636161393259014 -0.9802127685252731 0.7191347259981873 -1.0009086063117278
Ni 6.342475947789446 8.491972393242241 0.07801842792811843 -0.4002693401489881 -1.7252724419193384 0.8007459112127758
Ni 4.51330601614062 0.6235328530564319 6.4054236836003495 -0.7242301382432237 -2.7960348357994107 0.1532472614943361
Ni 1.358255386773763 7.41512073026646 12.207508455077589 -0.27375769487728335 -0.4491604094227361 -1.7236781008490247
Ni 5.59335856645242 2.468506022752801 6.894491832366833 1.0182712659598914 0.24528504135888726 -1.2216912916538767
Ni 1.6255386247237085 6.526289189408414 0.9350185160383171 0.38348929247717184 -0.49928355133137237 -0.004249005084341069
Ni 3.7513942308519077 4.85676122729542 5.665636431578199 1.8589525799150242 0.06996974432091822 0.7418223974036902
Ni 3.672286586690304 5.671185855679616 13.307638799839376 1.3025290890375503 1.2625335224812193 -0.5176417421235859
Ni 5.058133622300548 5.733621449516757 10.223406430973073 -0.4227356395723042 -0.9768621068854855 0.973264362231898
Ni 0.5108268663374989 1.9454535958701888 7.915355403139453 0.10136805612654155 -0.2174669907053545 3.169854723507618
Ni 1.147865634873452 7.733206622935215 9.329475419319131 1.400132793025653 0.15554454216894503 -0.17024636715549388
Ni 6.9054388670560165 5.268413629492195 8.821935407006103 0.5568886034393506 0.9971188002519924 -0.6379876249042109
Ni 4.674054578155476 6.682647963076731 7.877421230050677 -0.813246871893264 -0.285565743255805 0.18674230792798804
Ni 8.741440406819144 2.090389774445113 3.408221612321916 0.5204439874590714 -0.7704706572680021 0.021951050349794454
Ni 6.082143208054855 3.579186492174105 10.259292036166798 0.7567023998393162 -0.19220847324888188 -0.40143919208737316
Ni 5.68419060365624 5.620529527239023 1.3585983389883365 1.5332051222340113 0.21732866535527734 -0.48222428185624056
Ni 9.41435837877415 7.600314926136109 2.3531058034361796 -1.5117361537269578 -0.045387684106179896 1.4487063310589825
Ni 4.702716237901426 8.2510553215487 3.865085176331096 -0.058477427410602516 1.9138854845074782 0.9217674799041867
Ni 0.3954120143930552 7.173408009435109 4.7845556107695115 -0.4160767394948898 1.9891624999739226 0.3824914473402768
Ni 3.976160539587137 1.419483788815605 -0.031058667091008338 -0.6385144439419584 -1.5736588593736833 -0.9184947226901858
Ni 7.088849711409885 7.9659019868713825 4.815903272260001 0.20742914685337827 -0.2829876981159836 0.3288147837524273
Ni 6.305866942057782 3.894053206722065 5.021981886188315 -0.5932892535555718 -0.7748217351478461 0.19807650199388468
P 5.61131097171129 6.316201235456927 12.371892310566924 -0.32459688901633776 0.6969615323352577 0.3182609194959809
P 5.67774310202226 0.8354233638477164 9.025698407581617 -1.3886348196883829 -0.5137789167340701 -2.3943881556869213
P 3.228753346626784 3.6290288806921094 13.250082272841565 -1.9136265744191363 -0.589574523708146 -1.9675318090780243
P 1.2094964341803935 1.5899539029395697 1.201599387852816 0.25267619161663574 -0.38341704447833963 1.317140925413454
P 3.339686956300801 6.9553086917511875 9.996982062597786 -0.9778990327904319 0.566916677099314 -0.25895842508092176
P 8.55993180408211 8.632180403952246 12.217413829573708 0.5293256062194175 0.24823949600152087 -1.9879188573748083
P 2.5205707416212415 1.9382012997060096 6.282426386826497 0.5933111079324427 -1.0087080477514885 -1.4853360664668742
P 8.467224961438621 3.4833976522956496 10.12440938744469 -0.4350915900344958 -0.05140560816548566 0.30385348582139926
Ni 0.39327290711335583 2.2419289263246243 5.866963099621382 -0.7270884336276252 1.148597656991996 -3.7880677368880633
Ni 3.5126263263696944 5.818774198047242 2.2968616402461373 1.2601603942633521 -0.589644714824449 2.038857810316521
Ni 0.24808614478698332 1.332355635529178 10.86204107048084 0.39198755975617006 0.9233556503269129 -0.7111704768457882
Ni 7.749366531285915 2.709194459636626 12.140033750034316 -0.11579734417799412 -0.4392500922875597 -0.8338799747625832
Ni 5.4333141996514875 3.27200190723259 12.584114799101917 -0.2039998094568551 0.9209539828639559 -0.11968459504754227
Ni 7.215613995308613 7.250649993549433 11.030882390220391 0.43991806488886176 1.0550030741632863 1.0026317596504215
Ni 5.542171805253287 6.017851099562824 4.2037710653552285 -0.38964168523181286 0.3122095710955784 -0.6071492993671156
Ni 1.586871905704603 9.140892855569493 7.1198324717440675 0.29964613260827105 -0.13356032458836997 -0.28560816645796616
Ni 3.619032966811343 2.003343929690183 8.168362683570756 -0.4785020958096468 0.5529874686127315 1.0588748984138667
Ni 1.9008149356213118 3.8966413527680452 7.010702333449087 0.9632074922165282 -0.17167692895443334 -0.7829978432007355
Ni 9.096491975522722 4.410402060983815 8.23631935079291 -0.6727365983496221 0.29741698616743617 0.02923961359140771
Ni 2.0251922721066076 4.316725806747132 1.7821196314270682 -1.1512286668569398 -2.1547263740520823 0.08865575076619571
Ni 1.0987731685313145 3.099538097567905 13.083382803999433 -0.6803779169449637 0.9936421545573016 -0.719731993262554
Ni 6.421519574204329 1.3932456580526411 4.771196936107448 1.0464960651335395 -0.3238870074335067 -0.1910951855800451
Ni 7.253741136176789 5.092648333175217 11.77285081832723 0.9228632840715268 -1.0438879380867314 0.39989498752870484
Ni 1.8168327973165712 5.464829221822688 4.739916035981396 1.7211242240789197 -1.1398129688208305 -1.984172760068815
Ni 8.639450990901203 9.176486722746022 0.7870744179067741 0.7719678106388189 1.333606270058329 0.9430204757456921
Ni 4.1509564243109205 1.8860817084832373 4.546660176721174 0.18273652920270464 0.8621767648247474 -0.5773090760772316
Ni 6.553368696271131 8.074942500320955 7.370510420733987 -0.6084903867760424 1.501803210883962 0.9537242353164411
Ni 7.908276869430658 5.521036803443176 4.070307781531834 -1.0093173992007134 0.8242051706769805 -2.1425714838571035
Ni 3.1664549336754724 1.8134032751708367 2.234714126269238 -0.6657622239143179 -0.7186891538203365 0.702610245980603
Ni 2.190879346011321 3.0638893580370463 4.1458532953580685 0.09029791435530901 0.728709514170816 0.42127705274890676
Ni 2.7386974954823295 2.3666354969359107 11.547618094580182 -1.256006519995979 0.640667228618903 -0.7371021091098854
Ni 2.4815930792609233 5.088953594650214 11.298238791309446 0.4146878295671632 -0.16623287512072663 -0.31117418785252865
P 8.084161055848687 7.210291376938432 9.137009721961284 0.3117197759433534 -1.150029761452832 -0.1998032548770043
P 3.8611023579458497 3.6990368594270318 9.686619453801224 -0.09674392709096888 0.2873835131908341 1.1653748764503349
P 6.0105256402595355 0.9441611648092252 12.290697687862238 -1.1066038290587135 2.003353189652008 -0.8000139181427577
P 6.803284834075079 7.06048984961276 2.6098745837569233 0.43693995609714426 0.08188629325284606 0.10031621782325949
P 2.275373626289825 7.122047485780592 3.3247241798137726 -0.611948520527972 1.6413485494111733 0.08109593614106679
P 0.6479483071163433 5.304236131478438 12.793954912919672 -0.611154820982083 0.21953441475734453 -0.43384691899411737
P 0.32319176523932475 4.045775266449349 3.7627015940012036 -0.5617446459800712 0.9088191472736349 -0.700271056324465
P -0.13683061730088614 0.005422303147215584 4.147365943259147 -0.35957520486373556 0.90613440135262 1.1001331337327054
Ni 3.137528057550252 8.91608996526471 11.048898813225984 -0.29226552387348376 -0.10655242854095842 1.3025036351162536
Ni 8.509074277008969 0.11740580386744728 8.85020472941858 0.40512486846907647 -0.26591017380840654 -0.5623915355354507
Ni 4.708651597561644 1.8468296843512602 10.720412780332882 0.5627268073876825 -2.2224368900251785 -0.6718624232747848
Ni 6.52265846863013 5.863074478777739 6.42287766497404 0.05535045174584661 -0.9382420805204422 -0.08256506448742554
Ni 9.092906981706381 5.083082252736716 5.846858783533469 -1.036965499935285 -2.4660273172904628 1.9377779748543593
Ni 7.209486582408233 2.232070193329687 8.467655709420127 1.6356355581867958 0.3251370777905239 0.6257424889882707
Ni 2.903698664957896 7.662384704277705 5.4056695075391525 -0.4606606967528519 -0.13703157096642204 0.760067202546491
Ni 0.32878234360649106 5.701996682636893 10.349856113373631 -1.1446556416251126 -0.4904119598733554 0.7485309197721173
Ni 8.076158837508641 6.9475716897904105 0.17707400196779027 0.5214652296347342 -1.6661542956009432 -0.12640237338735005
Ni 1.4379300452634614 0.630441282466799 12.68890819232621 0.6068009148887614 -0.735381783984669 0.4579474115867468
Ni 5.289941883175018 8.104015702724393 10.017100096774284 1.0715905462083222 0.17716237754903683 0.4317149602527791
Ni 1.7072161241465156 3.3124885593370315 9.461493731145122 -0.5010409003421112 -1.3456076653945794 1.2783720321753727
Ni 7.164719886665916 0.7662942573213412 10.548279119333428 -0.523596417045124 -0.22944910276789515 0.8824761385037317
Ni 2.3091567057734044 8.731645691570929 1.6116860988726585 -0.19828733245311012 0.776443072801353 0.5122380546095113
Ni 8.28350317374354 0.37159924169155417 6.509854919286055 -0.17587116954143903 -0.28220222610021073 -1.2740078416694058
Ni 4.463280719774843 3.4331803026897116 1.3836155598674194 2.1817170437083133 1.415168604312853 2.979730386481275
Ni 8.349825559345847 2.3849354271055487 1.0095241987499648 0.45887635115891945 0.371578914192831 1.3166017650805326
Ni 8.784917602234668 5.11570386738694 1.6486161078771637 -0.061652482704474466 -0.8879610728777031 0.09109444211467538
Ni 2.394528943721216 5.37045791776447 8.765690329276822 0.4977653149146331 2.125978869605745 -0.44878837079529804
Ni 2.0269024604832806 0.6560255176739767 4.049988548722788 -0.6082885551778815 -1.1314957072043867 0.7719685819697673
Ni 7.320237284234478 0.09083203720382049 2.756870304697766 -0.5676815802897965 -0.04408593457562085 -0.88521976268714
Ni 4.563194131620568 7.768974252567126 1.724403060062458 0.6353298755663898 0.5720002622698085 -1.9698787120436458
Ni 6.911904659474774 3.554695131357368 2.700960862869147 -0.4430699802542821 -0.008508808801959538 -0.28931389744432756
Ni 4.723284225383443 4.274602129405127 7.831831448993383 -0.02183072272184627 0.862907472343185 0.4612312245443411
P 4.408737599569085 4.241578117489803 3.710981656425814 -0.45700253117497425 -1.540036543333548 -0.6316444562950025
P 3.2978650769076205 7.926092093803699 13.232868815287697 -0.3514949989587624 0.7595696940847821 -0.6723236791819195
P 5.048549251077269 7.5024775183626025 5.880482733189486 0.18521558687081652 0.05710548676374036 0.45032589048574706
P 5.375954298590034 1.1377051039296897 2.7811110817630538 -1.0903482864317997 -0.07150752112168329 1.4620909798960045
P 7.101936767918007 4.121855785730317 0.47949017931787635 -0.12279897230680786 -0.4245125289670689 0.04080083606644586
P 7.674365168306804 3.558307561350875 6.75939518146283 -0.3450762399166122 -0.019992641071842985 -0.40860331393598015
P 1.9746639791594562 0.9082325762712742 9.564586081385132 -0.5549528198692184 0.17257784350214794 -0.9578737387084408
P 1.5846221391770015 6.2893960903658686 6.780396660544068 0.45676470413255527 0.33725211588650306 0.9092786034085565
