# total energy = -340872.0207856198 ev
CRYSTAL
PRIMVEC
9.21611587497489 0.00000000000000 0.00000000000000

0.00000000000000 9.21611587497489 0.00000000000000

0.00000000000000 0.00000000000000 13.48871716229096

PRIMCOORD
 96 1
Ni 2.238078440917706 6.878309833482878 12.170370374384557 0.826331215881048 -2.1699120806535857 -0.24557866133990605
Ni 0.9755350803379129 3.2267280541303283 7.3700052822331426 0.43993940504510043 0.4161299613303285 -0.08131627968198898
Ni 5.941021633981258 4.832405840564777 5.810103021684424 0.9717533249040102 0.453454923033032 -3.551224655648942
Ni 0.3846769897239738 6.092884791190998 3.373393321992678 0.46136260791588285 0.3732660720872668 1.0298515145983231
Ni 4.871795519768226 9.173251709282495 7.849435002379788 -0.5895210447623912 -0.05349822902845625 0.9992487021108016
Ni 3.0299916287779607 0.4203553390689225 10.282705247631027 -1.2090741171104984 0.811503406839596 0.12503248962301694
Ni 2.3671132791319045 1.7446660297819476 12.535523022650295 1.7608896769023155 0.7092478059017785 -0.7166402417111077
Ni 0.3411068803645392 5.798300863708772 8.991686853865717 -0.35675701868865006 -1.5899290572886167 -1.2205150119575883
Ni 2.7007919701099254 8.322005167488733 4.252965595894954 1.508561612653718 -1.0347741487109212 -0.41514574304018825
Ni 2.731665958254884 0.8471002112664717 1.2656667022461594 -0.08133607717633089 -0.9066432226682385 -1.0081516610273864
Ni 1.7760100398359786 6.011515704226269 6.755433203889117 -1.2560612844933141 -0.29129158999598864 0.9816518149646449
Ni 0.7543860856729544 8.639730761905883 3.260546591293888 -0.9589425462925871 -0.23988829582334817 -1.6596684307662837
Ni 0.7503955075037702 3.7180299747331924 2.7244110318466115 1.0734085732536676 -0.8938607261915896 1.2988323569122535
Ni 3.155616504122418 2.087496323813086 8.062098719168608 0.19278182925384862 -0.637367731932025 0.3305294524506888
Ni 4.062675843589572 7.721151277608519 0.6683453495766802 -0.5000294283584614 -1.9374342183616955 0.5094424941422452
Ni 7.787746930842988 3.402368790269618 1.7129460022006586 0.841797429837447 0.3188293904049412 -0.24512923250731336
Ni 7.112933711152835 1.1725203408186127 4.0098988344818345 -0.8062061629963986 -0.034250436542437784 0.915486017770849
Ni 2.264372019478174 1.3344014159727013 3.4510344900903505 -0.20975008167707104 0.6824098597733279 0.10780738399398207
Ni 8.159432883644833 0.7097469068732764 8.428586782623062 0.7690894606497592 1.588364541014974 1.7746170537907373
Ni 3.5430251505885306 7.621340742799593 9.120598196127336 -2.585218260531038 -0.26426878155024164 -1.5420546022048411
Ni 8.312558648727961 3.201061171448624 12.542240649503686 -0.8025582818311662 1.2828701771560422 0.5859770361648746
Ni 5.062688927662712 1.988395429925701 4.731316108873905 -1.6152189422036571 1.860499098466538 -0.6518566695768193
Ni 7.573306346915556 8.942065442829872 6.428803919935597 -0.22547957659718584 -1.9139528474103036 -0.368565581287804
Ni 3.4895716785763633 5.275424530155272 0.8498659676373082 -0.16985710213687522 0.573400999272077 1.433335505029867
P 6.080424602542644 3.704095207546573 3.715251315800147 0.08149394291043384 0.9991556281763633 -0.2638324653437714
P 8.255547755992227 9.206051865643063 11.039354811360221 -0.3943552886573983 -1.998932177766177 -0.9396477026187171
P 2.599562153457918 3.0101216829748174 1.8744464517695572 0.41845963790476964 -0.28858756080126424 0.16233199740442367
P 5.8690345529662515 1.114339001368128 6.534460237037164 1.0257140953911819 1.5531399134847252 -0.43170390450918555
P 2.354533280977317 5.863901176429911 9.768313270342079 -2.0543386795609395 1.2448602735711722 2.8512482477467604
P 3.080634185451557 1.0084826945523089 5.454432835031329 -0.9112812356608823 0.32725335280257833 0.4267059370739618
P 0.3520648421270334 4.719139776594168 5.402447490276323 1.3382645947659468 0.03714729847425861 -0.9666422289296902
P 8.161091784500382 3.9240931093400966 7.581778722229485 0.24866141403028785 1.3343626886083793 0.07751387521676328
Ni 8.115296904771338 3.3748218199516233 4.463780559841423 0.4140519957553772 0.4213816966475711 -0.566423025292347
Ni 4.615965359494822 6.82155699199134 7.043767683203851 0.5322918879365929 -0.18035877299914743 -0.46859306422605107
Ni 4.789808953040598 3.895762769173648 10.018596250476842 1.4577113627710703 -0.5010678969253047 -0.010728699271413782
Ni 8.87057603207153 7.414374428838001 12.805216986018166 0.026130121428148544 0.09237176616520221 -0.6125244476360999
Ni 2.721353124602881 8.182528470000435 6.590384549712514 -0.16270506447312624 1.3498129617251784 0.907997422703288
Ni 6.090986271322979 5.061619858222468 7.910215286503967 0.7780027039789892 1.3163827070911909 3.5314721556123634
Ni 0.33454039781132033 1.7109995585301465 11.300536770115947 0.31710212330118936 -1.9542824002672858 -1.2258986448670048
Ni 8.446044870904553 6.058868107536358 6.745477955532643 -1.236790094968528 0.16208491439062409 -0.007692740658567397
Ni 7.095008365797031 0.29657737334364476 1.7597518898400022 -0.353715660759165 -0.9174102313767555 -0.6493981807339977
Ni 3.44548178028219 4.492358813524618 12.281422727324594 -1.3137766369269115 -0.8625156362214049 -1.882733484384706
Ni 6.456055052934351 8.023191042824855 12.664084152509075 -0.20027299542457122 -1.5608444812178346 -0.5675910774585192
Ni 5.724406046709882 3.8900395612220007 12.481015226983267 0.7839879750281467 1.9873015355057837 -2.2779017558617025
Ni 3.972109072992405 4.595127721525941 3.155577796435788 0.17962009506091 -0.8545043358811542 -0.05136627028711799
Ni 5.879743679600414 4.611182195361319 1.3829168931048479 -1.4922029687900364 0.8709180013524871 -0.311910808908237
Ni 0.6294459677372052 2.140184858208527 0.5786541099866095 0.5526041171313838 0.16735567587126018 0.04835679403683285
Ni 0.9122111482352232 7.688176015046531 10.068477555980058 0.7237362293259407 0.8964649965836561 0.8268163830475825
Ni 5.148481750242239 0.3706823177842366 0.2539371700749045 0.179092247581898 1.88634074211999 0.26130044295053706
Ni 8.309314575943777 7.2697367064657685 1.712365386901216 -0.568886142120859 0.2841680915773299 -0.5292626141919659
Ni 4.564991022650116 6.614664406956662 4.668606891699356 0.09426435520222476 -0.14662872773655394 -1.0334058076084849
Ni 9.006983762977061 3.35019635836257 9.685883408441386 0.06446886910734703 0.2947468955344408 -0.43703457269347956
Ni 1.1417938105274807 4.820517051100002 13.324100898179308 0.647267250433924 1.2598384921475594 1.0711948534318003
Ni 2.241709590568188 3.232958148454505 4.840870842986015 0.2640129567856937 0.6351388426015061 1.1384456561596585
Ni 0.8329092360588278 0.747615005347551 6.830294791442157 0.7258987841948982 -0.2388516270287177 0.3716272509322632
Ni 0.506586848763585 7.813727161464073 5.377951975920954 0.35035780003052563 -0.6323810773507109 1.2610926762696346
P 0.36902802498661863 9.05966308125664 1.1938252358618069 -0.20634722664310917 0.8169232923035865 -1.5994747919955228
P 1.3492854430933305 1.4614271409285113 9.073698304106179 -1.032838622251105 0.5098793245693477 -0.15151150975015196
P 9.116415922748178 5.126805445729719 1.4903012319309457 -1.8853521529544757 2.191247866016884 -0.5024789183402184
P 6.509573037757567 2.4310178265340365 0.1254239640186179 1.126269682918757 -2.4257833821687513 0.9539265811352344
P 6.2110814771489355 7.678517525620883 2.4695144641102473 0.011575363542425225 -0.7665055019726671 -0.00778864280648336
P 3.724877548820268 4.744880388202786 6.087458342170176 -0.05379442011263638 0.08620368968127735 -0.7701202159071188
P 1.247825223544719 3.5213027654966895 11.776283730363271 0.5326150756039666 0.28337284936954427 -0.3329318912445943
P 6.504218474440488 7.0279519067693546 5.687679824991179 -0.37332289346713127 -0.5606969214418472 0.7395510848710102
Ni 7.791986344140504 2.05764532452905 6.4516801627336315 0.5829588181638412 1.1856552239659257 -0.026277445639290225
Ni 6.763089952949066 2.8498718603286863 8.693140918173487 -0.8714270797784217 -0.5642026206022606 0.42655989841440084
Ni 7.984114711560789 0.6838735831962146 13.047082887534183 0.14847092315161528 0.310675136728923 0.39444836259183685
Ni 7.484416909405668 5.547051113019859 13.143365493190306 -0.27917038125242244 0.07312705900297728 0.532349994868038
Ni 3.257924606330533 5.044136886428144 8.22249231322222 2.3901705180611486 -2.020435599055592 -1.2992108232975947
Ni 5.036284755711874 3.1464003882582507 7.0598461189404755 -0.5187326611949196 -1.091810472799623 -0.06290255306149167
Ni 2.3452710845338296 5.705365551334514 4.61542068704725 -0.0996140495499123 -0.1346712982643616 -0.9614321454836604
Ni 7.122527687767433 6.506863499693503 10.568153239457104 -1.8676382806144805 -0.5189877146285191 1.6412169089293156
Ni 1.360473807752429 8.856825587202193 12.240754772850787 -1.0949125087637144 2.382036318989788 0.22260945413824243
Ni 7.977820104425563 7.763176765949119 9.046249024616344 -0.07404674260376924 0.8064915554473013 -1.4666899121205967
Ni 4.970325014472032 1.8115013020288848 12.015331343648025 -1.837059893606991 -1.4181783376734542 -2.355232568533383
Ni 5.770523490494173 2.280352764386639 2.132026752445567 -1.1136831045029982 -1.1976787307893633 1.1991404029365544
Ni 4.8900065647158195 8.98903998538953 5.140213051088909 0.7188477908853879 -1.7673801697226659 0.44869144020611756
Ni 4.700772057676883 0.05700075500828483 2.587109337702256 -0.16767757798705313 -0.33956148074597 1.191850039922728
Ni 9.064492325969463 5.363825513524359 11.292633029150839 0.7666723665678346 -0.0213830936614664 0.10190464535630192
Ni 7.620732479152558 7.949757031619176 4.1874371688775565 -0.004244119988334626 -0.09433428920821173 -1.3989071481486683
Ni 2.458620093547216 3.6294815335102784 10.041567419268278 -0.7467882260493978 -0.5835429728020854 -0.587257188428879
Ni 8.82390562133539 1.5301885813910592 2.542529142044108 1.6955463756098155 -0.4696981243647717 1.4087315904382578
Ni 4.205258372124095 2.8047681892894545 0.39532344677025916 -1.5658272791444066 0.441242183016924 1.7068746561384411
Ni 5.241629033281373 8.74591884889281 10.231812012605927 1.3146179018812842 1.730575856410123 3.0194109929003483
Ni 1.6014844537162534 7.11946793730053 1.0583520191049016 -0.366280384798053 -0.02638260375858682 0.31555071965366943
Ni 7.247166438714424 5.584726594672572 3.1409426044434916 -0.9318590598122338 0.02343740508733383 0.371656818618618
Ni 4.20630900933261 6.229384683255171 10.800133013485631 1.696334932949382 0.04786288511954983 0.6360927218743432
Ni 6.938242234947555 2.02716762936625 10.905924807490402 0.8666371145889461 -0.8233114552181174 -0.5358924608036578
P 9.07552401665887 0.6892438139102647 4.81066963129914 -0.23590051482019372 0.40004462573269167 -0.03723471598174233
P 7.106675968481066 4.371388076691565 10.732729106889874 0.32668359634203736 -1.0148164746420714 -0.32127013863594994
P 5.6201809924020205 7.204099529281172 8.996555727876757 1.6383113052467464 -2.225407799728045 -1.5322139619653354
P 0.5521273636947784 7.728625547574358 7.656694684866123 0.19084784545592937 0.6114497265146825 0.07081743703319417
P 4.778003108618601 1.6830286468824005 9.770106726489248 0.2558908418991916 0.5052863058820266 -1.0771572416628223
P 3.5124552942670895 8.788810652124642 12.275582474701473 0.5308947504787501 0.45286202664403935 0.3978021095554181
P 5.131948038381925 5.925686017183285 12.824276835236848 0.2577736607442012 1.4515476571625194 1.2514330416926835
P 3.012315118550489 6.7241149989595055 2.7121766380369303 0.28062305453854897 -0.33191810526809934 -0.09241084693325374
