# total energy = -381173.51836589904 ev
CRYSTAL
PRIMVEC
9.22300989921238 0.00000000000000 0.00000000000000

0.00000000000000 9.22300989921238 0.00000000000000

0.00000000000000 0.00000000000000 13.49880726362484

PRIMCOORD
 96 1
Ni 3.5843844854571905 1.8604010130714586 7.087576047114863 0.5533690203218663 -1.2959792037341744 -0.19313252772504805
Ni 6.449567875306764 5.861001493124381 10.848546126343743 -0.9639163453580947 0.4909120394382255 0.1581562687601792
Ni 0.3825363290341016 7.406667290463271 0.8486580306577869 -1.0768993600157455 0.767883099046484 -0.9581560458355499
Ni 2.6124729162650353 8.354479134565047 10.192841765277736 0.321108416247105 -0.5330177103590239 -0.0967531830623495
Ni 1.387260600849312 6.184304885132862 11.65744837246189 -0.2824284831784039 -0.5317727822083294 -1.9639237800117921
Ni 7.040947275534522 0.09232601915221392 5.891756542219818 0.6075938431037019 -0.014920111644942046 1.558868074217754
Ni 5.683209529646675 1.9128430478452427 11.697040909724798 0.12200835808471246 0.484846807080752 -0.4224831572418659
Ni 2.8862302986349717 0.6269931309832091 0.7680240212633511 -0.041132508374251746 0.3158865057265334 0.22747192443686629
Ni 2.4471781313167837 8.519026855704526 6.305414073845756 0.2712716952306361 0.4294896704666861 1.5593879512769662
Ni 9.20332808152952 4.505569499732742 12.921234082537199 -0.020799710354170633 1.4056182416202567 -0.23948617528892305
Ni 6.442853524037803 9.084212907575347 3.7573528147128266 0.7320231519250813 -1.633366559646961 -2.3784889679581616
Ni 2.3201311687756516 5.083169723043153 4.286708395093554 -0.34161142129646327 1.5460009884470989 0.8665692374654882
Ni 0.13474633127647398 6.014158796932587 2.7775823187125916 0.6821704900690123 -0.1988905132547478 0.6495488473792491
Ni 7.6222090338089155 4.061094202543469 3.963020403568705 0.6312320513479323 0.5485618287412101 0.2122787616361957
Ni 3.8242104140929114 1.934000632750459 3.21820977613619 1.7883562577537007 -1.859941426190855 -1.6860186386250384
Ni 2.4783334590455635 7.121298138522424 2.2896943135246905 -1.6415179851095019 0.5344960946767633 -0.5098780390177671
Ni 9.29614845401692 8.565234135728561 2.9673485160536117 -1.0043387150391994 0.06268735172689203 0.5318026070050003
Ni 5.81341076160262 6.025456984164012 8.469084256636632 0.20827401135217677 -0.4956919773253721 -0.7957052634650749
Ni 8.018014507308203 4.2766451688990985 1.6617032528611222 -0.3189605166661668 0.0060698603431637395 -0.7798760097423021
Ni 2.1081218382542 8.249945539396903 12.61015394566162 -0.9715862031985266 -0.0911144967193334 -0.3658160435671248
Ni 4.748641927883125 8.564477848909803 1.9577858532003558 -0.47550804617832954 -0.29613297724869 1.0906125958367796
Ni 0.6222174564130604 1.121803927465729 9.916588636405903 -0.7566826023449743 0.9201263447563379 -0.03921215142308731
Ni 4.742093590793891 1.1265168855679806 9.303864424170236 -0.5999268134767475 -2.1049197349426008 0.5775705572687343
Ni 3.6885583832359266 4.470697298980072 7.421738611079493 -0.29448824255641537 -0.42023292775510857 0.2664585901127089
P 4.544628947018527 5.247016495423786 4.700811398101759 0.7675959068233683 -1.8347299599222338 -0.7821249536774788
Ni 1.2237827488680735 1.2640135184219332 12.31801233748891 -0.5456446550944152 -0.5917005689122132 0.030854266376695253
P 6.5886785349080625 4.023510436855258 7.940282056854996 0.214652661185011 0.25507477375579946 0.13374518690566645
Ni 8.253708527470716 1.9291401064884497 2.7828062315680033 0.43579530096973984 -0.5351296144957042 0.18240280001236975
P 8.619170298119888 1.206074569697186 5.122716145256138 0.07439127042738157 0.8832065889118532 -2.581486047182115
P 1.9938118525021282 0.2157630955852806 8.51823367684583 0.30477162676029446 0.6786470502967861 -1.8588155401165278
P 6.326154778699658 9.063894616578752 8.562442330606151 1.5636485263255329 -1.1861907847544217 0.9376509839036625
Ni 6.2026217829627495 6.350623424189432 2.7315106169353345 1.8264039565550416 0.13543105924852158 1.0592227686715887
Ni 3.4057993431207887 6.632838306715463 8.678477941526385 -0.4700704201025259 -0.7022922005195518 -0.11213892148980041
Ni 7.097318312561847 8.239532761124021 1.463932405154262 0.7724964294487793 0.09108364348139797 -0.65463731764575
Ni 3.2422292610397014 3.9737707440070307 2.600464557264777 -2.209188509655705 1.0043186604345413 -1.0652252661119268
Ni 6.800577189309697 4.049768346282089 12.91758914899119 -1.2374171870295656 -0.29490604682012433 -1.740149616141487
Ni 2.18004287011596 3.5274785138507454 12.881897944951868 1.2108443216370437 1.0718725962251152 0.5140239428653406
Ni 2.189201319030903 1.3078135928399248 4.791428393503783 -1.8359936571260058 0.10861316772472907 2.8433223080314645
Ni 7.256489018880167 8.738986420832909 10.712775118657955 -1.8975019009431322 -1.2721527907385382 0.8056767728554898
Ni 3.3881188329798557 3.05680064529455 5.091466742825513 0.018251747121336308 2.8671654331976493 0.4819831123797119
Ni 6.93146092400452 5.19523851736891 5.969644861541768 -0.24037526276209573 -0.489697450304834 1.0524345421051617
Ni 3.8449898555887496 6.520077786640845 11.617033142708335 0.4744757482590732 0.45168574694775115 0.401310894039625
Ni 2.094148978127172 5.971161124383276 13.782552539001172 1.2387053097133698 -0.9041456530573655 -0.9340103018272817
Ni 6.112171724041451 7.525754795387488 12.733506170402826 -1.0658978666989192 0.14307854849145035 0.0709166816152198
Ni 5.361252697095979 3.262473767956419 6.158749769066875 0.5406307468195916 0.7274375894369278 -0.10479096576516145
Ni 9.22374782563595 5.372901358706828 5.336456634751745 0.011879267936089219 -0.33351913120663207 -0.8420511977194659
Ni 5.331794403204409 0.4729430398084709 0.06416448046451213 0.8530976853416148 1.0599624750510908 1.0489293571653806
Ni 3.9248887910873935 7.25237555642693 3.8908153029994113 1.8516241645744111 -1.2579667290461432 1.0620679514298677
Ni 7.233791191307484 2.0921199159305073 0.38810241555995084 0.2977484013649259 -1.166136694317024 0.6308165610770684
Ni 4.45464003859647 3.2485746919092695 0.7501774969426911 0.7285570477533517 -0.7643604306052062 -0.7632258027801307
Ni 0.5512906650276657 2.4636596501596877 0.6619879977686767 -1.1138800510051527 1.037501060723781 1.0459137102675085
Ni 4.159014899552485 6.590596920984909 6.226243756135914 -0.09351539285134217 0.7175738092689706 1.7808501791846425
Ni 6.146702673424681 7.113200335755737 5.20705688236348 -0.7584592346294228 1.7304467870314262 -0.2700583916488252
Ni 8.57097084793913 9.284250771136481 8.209110662689037 -2.1125530831181423 -0.87354309768016 0.6837028675531387
Ni 8.266362497169911 9.12307867165145 12.780805454809066 0.5017739218533939 0.4134349309966686 0.9940175356188494
Ni 0.5299393969127676 1.2420627546580207 6.8313414614151196 2.0792261868312383 1.1363064983294688 0.15479403715616566
P 0.4384213134352254 0.38888083760267106 1.1267078018746668 -0.9255706557003607 -0.971769008633294 -2.0785044781738655
Ni 8.22681423035493 6.86779448607919 11.949008931005558 0.5741782437577337 -1.2706517807129794 0.9045814550432034
P 6.041551136587553 1.6523391308235171 2.267002942058996 -0.7426202107146371 -0.5253542802764952 -0.9218829224361283
Ni 4.306426268140138 9.065278068076477 11.649984190481161 -0.3303998688513601 0.3107792664069551 0.3866383796291148
P 8.394663789068982 2.942352314392706 11.66785653922978 -0.6251673332110911 -1.0360237048473062 -0.39147899555086774
P 7.027260328717024 5.861444197603652 0.3085539544407303 0.3356929989294993 1.8498976688016078 1.340266455687324
P 3.645237905337146 7.565376846282349 0.3556881469682406 1.2952171287571692 0.19846525279187108 -0.003787234956574123
Ni 2.7273178365962276 1.6297150873307114 10.60832084137568 2.4048396900375484 -0.14658476187249594 0.6680466490731204
Ni 1.1236393064527115 3.3728916434948895 10.814313080183023 -0.02385315246851376 0.47585051711941273 -0.7237519130552245
Ni 6.3886222253269604 1.7890518078287583 7.717025265657035 -0.06986458620162163 0.4684789072456899 -0.1513526155747845
Ni 5.534553054711069 3.9381607024555745 2.7260303044023444 0.645921792149623 -0.25006832168014353 1.1496050152105879
Ni 8.850566395629468 3.1562523619610494 8.602816979115774 -0.19904760765790236 -1.1299679577059507 -0.036140197365982916
Ni 5.063497042745496 8.809579339256851 6.909229780737069 -1.1935243423013573 -0.8705343927608232 1.7434177453697974
Ni 8.604837740603452 5.340574708709974 7.848125741086503 -0.7270254416001737 0.49443239388665816 -1.182685085594008
Ni 0.8733369607752142 7.481262995220634 8.359865372396191 1.746969467276798 -0.3728097012761386 -0.6240005665964996
Ni 4.503355977336381 3.2733938117784662 9.505158461691304 -0.22814195392069742 1.7613684163109473 -0.46341846200364706
Ni 7.823925485187289 2.9346972161052913 6.232102212078282 1.3831182607455277 0.5678060216828027 -0.2110019518063011
Ni 0.305172798980289 8.228612717301974 10.644201117119692 0.9983341607163323 0.2133516829854003 0.9945728939016871
Ni 7.480829513751346 1.5037564399677903 9.94413961183261 0.2185460827021462 0.9682327133452615 -0.0648049122905271
Ni 1.462483470285644 5.004598900982326 8.815733853819733 1.108934019853787 -0.0633668942924199 0.6937957330127664
Ni 6.781965155160295 3.6457820629262514 10.200077216610842 -0.8483061774902423 0.25187992096758555 -0.045544007178386074
Ni 1.446518440001891 1.4487319623982517 2.626854355734392 1.0168263059832487 0.12275500644274986 0.3186239592623545
Ni 8.709362112761612 4.942454259704493 10.219839360105352 -0.04558437349801827 1.2281851269083364 1.0361527742260026
Ni 4.441644817527835 0.11151541372666612 4.884192505630277 -0.3481677343577423 1.0476016394928924 -0.5237653385228206
Ni 8.604118345824634 7.387999918253961 6.4209101386818785 -0.3812418912038918 0.34801501082996195 -0.009439291036028905
Ni 4.468022626084469 4.101426425207162 11.868178471498446 0.3822142824194901 -0.15674730422779456 0.15839023914785624
Ni 4.541714475863318 5.852608554038178 1.5314393044372792 -1.709243927701566 -0.43923003768290164 -2.1042707885046923
Ni 2.1137109823050113 2.635143074807765 8.60598877224956 -0.24850611939934622 0.27876440406325537 -0.12140826260686835
Ni 1.9927880983938113 6.008671105991609 6.584637011932707 -1.3272548739190044 0.44139953453039465 0.4317956928920434
Ni 0.9185850477608253 3.177492953956129 4.2367086133637555 -1.1931453616953838 0.5126242343043365 -0.0580267130264291
Ni 1.0676095207948257 3.7837490692894304 6.702913814279258 0.7167798526127656 -0.5251534771195988 -0.2954485495871557
Ni 1.2193649270853364 7.447894145095493 4.646046087112794 -0.014824466607342213 -1.3372577507679873 0.2701116134842639
P 2.5395557993249125 8.884811431703168 3.7842692470525754 0.0987550439837267 -1.2166688987386207 -1.7530017895138068
Ni 6.444153968445664 2.0346882327549265 4.359682694695583 -0.7512431764969577 0.8342229599242987 1.1119375825668012
P 7.843496712375114 6.8427447909603725 4.048589645606026 1.6698538559397178 0.4945246964901483 0.5901568785741771
Ni 8.098909527885208 7.12352088392877 9.350529165489517 -2.018200281967169 -1.0622502426440026 -0.8925381507254242
P 3.1573683461692146 4.89529700965202 10.355731189221942 -1.1304860349929498 0.26224815157578707 -0.881814593660333
P 1.1022695923178438 4.563379326317701 1.432614752449749 -0.15304722966838805 -1.5555536651325403 0.9868122761196618
P 3.624928837350535 1.9527971270995572 12.66748325342637 0.5047849407655758 -0.603946733269418 -0.5214842557981277
Ni 5.033928072734108 7.82644336691315 9.868370740205174 0.8198170689116139 0.06008770932051587 -0.2010715800664666
