# total energy = -340855.0161851717 ev
CRYSTAL
PRIMVEC
9.42868172605542 0.00000000000000 0.00000000000000

0.00000000000000 9.42868172605542 0.00000000000000

0.00000000000000 0.00000000000000 13.79982877183319

PRIMCOORD
 96 1
Ni 2.649167236583889 1.6083162189236895 10.95488341715723 -0.23798953613873852 -0.11533017473358848 0.46462045273154823
Ni 6.964118506359158 9.086467587997527 9.546872938454559 -0.5933314196474169 -0.43077342227511617 0.7595604381134016
Ni 4.599857741264492 4.045960412803497 5.470749230388754 -1.251076172573897 -0.10974933821170132 -1.1715635217595501
Ni 5.946330043858724 4.643993399769342 0.5408046612104424 0.5604452104423574 0.7571227752061863 1.8774601518009086
Ni 8.358007648650227 9.069279101465943 5.222255384317152 0.10755233056038252 0.6685140756278423 -2.635435761925694
Ni 7.682452041682914 8.79741249661039 7.427053572085761 -0.040058044363150365 -1.3912432038455071 0.13829012596387152
Ni 2.547130044458385 8.549127024401843 4.0940231171889865 0.15802719938148266 -0.2247486119684323 0.06831163989220493
Ni 6.968116267351693 5.038819441190104 12.306397235795588 0.24845084068137857 0.23556729985049105 -0.4714786133039622
Ni 9.400753831309247 9.363265393322644 0.20293162804276535 0.036612509016711134 -1.6708609570479935 -1.104535376565459
Ni 5.604427192181119 0.028419932037026002 3.184600377894692 0.08933015112540099 0.4100336186246035 1.1568038469518722
Ni 8.706576578209251 6.710590687188701 12.748309170189513 -1.6570124812006752 0.9839120717537312 1.0161740171112306
Ni 0.9683538849441582 6.535566070904675 3.454649132940432 1.457033362867439 1.5545205958823356 0.04153360046741234
Ni 2.1706805034490624 3.8131662644410222 4.925973208494217 2.0765355273729527 0.2241613720063946 -2.1824269252911446
Ni 4.183421161648233 9.118327103077187 11.267159465554782 0.8182299269301521 -0.6050402234439127 -2.6349678211503393
Ni 6.3635774900913935 1.3112467481883108 11.003141295251554 -0.4866630343538844 1.4364532247232422 0.7116384176211421
Ni 5.957889607483365 2.651665837204223 13.297652445444388 2.2750781703699787 0.8374723200995319 -1.3925719499592597
Ni 5.925869804816741 7.022086040750916 13.660367225987141 0.11700601977411461 -1.843156493423032 0.30259698770647886
Ni 3.800795834199971 5.769249974988912 0.1205079793528065 0.11014323121601031 0.3558864431582387 1.0548297818102157
Ni 6.895043985058896 8.49838186010509 1.5783141541165042 0.6956019329835698 1.8922995308065862 -2.511071759124611
Ni 8.468851229377211 9.561814570164158 11.830703278146585 -0.7978459639571615 -0.1811730413703267 -1.701707767225521
Ni 8.242440298448573 3.2660575867220683 11.525726915033045 -2.2511882511262584 1.3921482321582797 -1.8912885730435687
Ni 0.8985656124478224 7.64555761063624 6.483849752404546 -0.2988768585424143 0.30248848715307264 -0.3664289945607754
Ni 5.289462083795194 6.435565474001782 11.344452968593707 0.28676541999086097 -0.2411900453539072 0.17450591376279623
Ni 3.401811744199708 5.288255212552165 3.0635615637685842 -1.7884778709332296 1.8498344196638399 2.853336754844673
P 7.752186570694208 0.8962508711184182 2.8441721720171635 -0.8526721677684218 -1.707550084938911 -0.14469345838705405
P 4.265403548039959 0.5774256604911168 4.839433940291897 -2.6036700394783225 0.30538534908489345 -0.42441559837788845
P 1.1719096917079277 0.006805622368895683 11.84054305024991 0.3261493211051222 1.066659427455292 0.9579169332415503
P 2.9854128793097936 6.084714803498905 5.2415888959095875 -2.8187343342794553 -2.888680938671922 -0.46194984787792054
P 0.38404905836777353 7.558879740814603 1.2746059486763053 -0.13004742633910504 -0.3851561386566335 1.6204441951583384
P 7.520891582703934 1.2140558983980962 13.458283236418971 0.6670431475092705 0.5027087749628374 0.2837636570500597
P 8.045956002874428 4.980408758763797 1.9629845626008062 -0.42761585048274103 -0.3540661021200483 0.7784390201854594
P 3.4333223980606795 7.0767346792243435 12.115876581324695 0.020301687671829556 2.621737181392678 -0.0409774708536262
Ni 3.34554137249346 0.620234703496793 2.216432237977781 -1.1715002726217825 -1.3862928018187672 0.04352466275551213
Ni 1.938093786081483 8.014162488565871 10.500082475035017 1.6145982779005226 -0.8642007372333116 0.3904891208337727
Ni 6.144473787392034 3.6947514524003453 7.30676056667312 -0.2694534110749746 -0.5414005351060805 -0.08419925765673886
Ni 4.133024858570168 1.5817933376218 12.961226714900187 -0.3978710151201406 1.1721739016500394 -1.2642160523899646
Ni 1.129471195888588 0.5899120635156784 8.936230975603534 -0.43177229585327576 0.5579486692727488 -0.5501039764173493
Ni 0.963564114698385 1.0587843700370905 4.861555513029363 -0.03864419473475925 1.866647891676753 -0.4033490075155763
Ni 5.0753272962917455 1.8688401198310827 1.5179121341391981 -1.2334715721182565 0.3745284837394582 -0.9783464047404958
Ni 3.076465657387413 5.108252252390642 11.784460309307224 -0.5738370583682311 -2.030052553320065 -1.6532321882226366
Ni 8.212051657696355 7.310924272461571 2.6943202498318866 1.1213141386856949 -2.460753984706665 1.2667354763777088
Ni 0.1149403428761746 2.2018234387281734 12.761060519166644 3.4061164783219726 -3.0019706859367137 -0.18160987179742918
Ni 4.982831929931442 7.039953392356703 2.593953820083451 0.09238565012227316 -1.8796448181570533 0.48123723535262275
Ni 3.527986361185801 9.031385230171136 13.337506539640959 -1.558468267676174 -3.215306942303146 2.7059912035467524
Ni 6.0417105867843945 4.165186091460585 9.79445597388494 1.340414551229414 0.9981948069249905 1.6706938353425098
Ni 9.307523027785223 8.021733719879563 9.660266034682445 -1.2362915580655547 -0.12687468503807825 -0.4469986258847269
Ni 2.5512315209483676 7.4237478763216505 1.6899544584375203 0.9323982201451555 0.8502252488898261 0.7731934555158039
Ni 0.44898155984723315 5.734759857746712 11.137566008625543 0.18251284322767278 0.15866174764168803 -2.1580472108951994
Ni 9.41036165784555 1.581274760134561 1.6038159092026114 0.14355111725249473 2.513698912334813 0.6869416862054104
Ni 0.6571687350061282 2.8089551034246694 10.119786974806695 0.7243080426690106 -1.1474753704620946 1.1261910071620218
Ni 5.860246180977016 6.948193463160122 8.222448664881421 2.8479150696084696 0.8059284838549797 -0.7959965694532485
Ni 3.9819773795597646 2.1939882043300685 6.604873480640116 -0.08930572564536877 -0.8223511481873772 0.4293523735578735
Ni 2.120057912012929 6.596927930667452 8.246777491978209 -1.153858391170303 -0.1747152015601249 0.27388547870439933
Ni 1.2521194859614544 5.151595901642255 6.414077508666907 -0.9053887814358472 3.390549477121651 1.0864119274918709
Ni 8.443327788323456 6.850795182375012 5.060080175298754 -0.7993104643178299 -1.5831344029642862 0.779462062133335
Ni 8.868137037188232 4.373861672325644 9.13838473741544 -1.7174457467860682 1.6201603453693323 -0.9568044169036619
P 1.0442264856680479 4.511756140523343 12.65401481138257 -0.6098062773739884 -1.5430357351711876 2.3368527804746138
P 4.808269319045138 5.092478068096983 8.212084658081906 0.04024187823918231 0.9135497199800847 -1.0395219478085516
P 0.21379252636187163 0.2851723603099525 6.755691842687975 1.1565559926071243 -0.45326954649510326 1.9926363174551356
P 6.6065640432485155 3.1194793027835086 5.161922193715425 -0.0758799391577661 -0.5259898569779651 -0.8902575822213635
P 3.1078537383877642 1.6865459900441209 8.840391255884617 -0.9278347691441892 1.3309323227705916 -1.1294390817856743
P 4.548971146743946 4.052975351903606 2.1281958070899503 2.495619429125283 -2.8791817409322347 -1.6791082846584502
P 6.2765790450958265 7.3968101330299705 4.2410737780750125 0.9568874635357715 -0.329474014602981 1.5356276156325748
P 7.555739989846409 2.620108039935321 8.8008822514341 -0.38104751580489854 -0.25403553385800764 0.3775114776271821
Ni 7.954016928727709 4.392068456468533 6.31542238462636 2.8046140928279892 0.7929701239220989 -1.1950569768958
Ni 0.5297900753814815 9.22673808395494 3.0408063836285275 -0.8237428863285813 -1.3754144643433668 -1.3049886063216363
Ni 1.4758621000012087 3.248642811832417 7.887167576281782 1.2869091231121064 -1.066251393383596 0.9727449993933184
Ni 3.62250889408713 3.9235195537255265 9.485118845537798 -1.5097337785849483 -0.4030268482894673 0.44099895665786637
Ni 5.898498342172097 9.113009326662588 12.983444460189832 0.9863960145178496 2.390834376897392 0.04977938541597233
Ni 8.756360016984218 3.6470328948927513 0.30662543952295934 -1.2569138623015965 2.5366143834804054 1.1750504518668858
Ni 2.5387573752098684 0.3564748790690268 6.225696222047915 0.6983147039290425 -1.193425097719332 1.6232161014765207
Ni 1.539166268170737 7.369759245559256 13.354094419155503 0.4841551803303661 -0.04800326735215604 -2.203218408115199
Ni 6.098754110380708 0.2999178754425598 5.66680263521441 0.5460246641416532 -0.606872134446329 1.2126158117151695
Ni 7.316883199224029 6.506704876569415 10.103572471082963 1.240876863443392 -1.2264352340967652 -1.1724862906841356
Ni 3.544929701996144 2.403465223129951 3.7603977050758775 0.9984837989203192 -0.0632419386787814 -0.4408218076500537
Ni 4.1622726288504595 7.577812533439627 5.560074673999788 2.3850308828417375 3.570291699582722 0.7915642447135077
Ni 6.013481114115408 4.90298042557819 3.727941354451813 0.8207542360139027 0.7812682621041384 -0.5878544556932457
Ni 5.6471108337217 5.897583760058239 6.1128688467152 1.5639002373250228 0.30757567186799284 -0.21502084315770711
Ni 5.2114114576249 2.343677953192063 8.76370495993984 -0.5246924783227803 -3.296207988824588 0.8215631050684431
Ni 2.0401309782069874 1.2395510534070933 0.291496177049795 -0.4428020713048761 -0.3684645369335654 0.02286713440616062
Ni 6.686717265412525 2.8530907619295194 2.5846392255444766 1.2795570536224092 1.3905608330665018 0.7498905191238052
Ni 8.762658376283778 2.458868156130271 3.7957533752876884 0.36177658339042856 0.14692209060725664 1.55792859312262
Ni 4.01197944436695 6.902228640427555 9.368951831187262 -0.6666659666755099 -0.22794680719075583 1.7085191337203993
Ni 1.849765896982266 5.132295390435369 1.4568897069135225 -1.6364403134762786 -1.0043101757941089 -1.1517020069489328
Ni 7.999387744520347 1.666906046300134 6.622137396624389 -0.5324183862121282 1.84433148756774 0.12268790065024032
Ni 2.7310930508860984 3.3298520463340773 13.519333006821247 -0.42502649248901 1.4233899637813807 -0.1668496827691191
Ni 9.294502018514725 4.69199481772452 3.881297917582669 -0.7577411255164758 -0.2730478132944523 -0.009275768874971122
Ni 3.268075324581508 9.059548702069018 8.570548988965614 -0.42469327751930724 -1.3275788329173266 -0.004037660404483369
P 4.803243831759711 8.54059406756636 1.285834565577272 -1.7310008597626834 1.6858859697019157 -2.0130369925986753
P 0.5919354585840699 3.2464176429780816 5.9932103915733075 -3.6920552886464804 -2.2967016621770253 -0.23958901941537447
P 1.6284181680653984 4.777644961253266 9.530244515609196 -0.2594135103404694 1.009878413910506 -0.5887795386106763
P 4.422249666225856 3.2345940762690275 11.387149810288506 0.636262414682988 -0.5218087290170821 1.2846031006867489
P 5.255339685134855 9.006286079788758 8.09201228381838 2.0967958202838854 0.2163565312499951 -0.605824409908105
P 8.134406464834266 6.287176883198678 7.448540594552478 0.2523928560482621 1.0786207135822263 0.23845850535535704
P 1.549226671423178 2.7827150825703653 2.9159036957884084 -0.8701674963397078 -0.056370151259612596 -0.47061395131082173
P 7.056925019211805 7.923600001930733 11.561124071443835 -0.18741413718403205 -0.4026195855487195 0.7264479718301489
