# total energy = -381171.28802495723 ev
CRYSTAL
PRIMVEC
9.21078162106146 0.00000000000000 0.00000000000000

0.00000000000000 9.21078162106146 0.00000000000000

0.00000000000000 0.00000000000000 13.48090994249363

PRIMCOORD
 96 1
Ni 1.6707989677572126 1.8659846439890095 8.370297001419381 1.6770051222725182 0.21479098653508816 0.27505481642215207
Ni 7.1072694739446245 1.0537686977950542 1.504630938375524 -0.05046355596719051 1.9701718178040328 1.3294066301546847
Ni 8.668883834743612 2.534190017398097 3.745671246921081 -0.2847728150408644 -1.0497487677428825 -0.4119395773980647
Ni 1.5645618109615187 2.486680805090815 13.189951848859593 0.7280783083447203 0.10836762737282628 -0.3008275545108819
Ni 0.34850374398303036 0.9051361547240682 1.9493394556635366 -0.3039743276699797 -1.425783917934854 0.31875431419263167
Ni 4.191642562388102 5.469997751786192 7.492608976333875 0.12665434149715607 0.6885769078159883 -0.5990631799248715
Ni 0.6702824046954949 3.2528336317134796 6.513517612719223 0.9359908225924202 -0.4104750770373963 -1.7336899765590725
Ni 6.778481408314393 4.3510996161809805 13.123827646619583 -0.1308794353220972 -0.6428858335367766 1.3691509999321583
Ni 8.711944239461825 5.93312506935549 2.8451054821052866 -0.323777478438836 0.9476248072869229 -1.6180592398659295
Ni 0.4553681550164376 4.523562293816022 4.094502894734693 0.7433930843249198 -0.3270898306415206 2.332881711642008
Ni 2.0240969236452333 5.404241980816496 6.212394130098864 -2.306966277327827 -0.9186811276693791 2.442139969149904
Ni 9.08475984189485 9.10152346469424 8.209590965620132 0.44121210110993686 0.12068732528044378 1.1817540891393066
Ni 3.445624504688221 6.31704887458855 1.1938020550168589 -1.3408305557209101 -0.2572069896074538 -0.22333321967814437
Ni 4.97767225604433 0.30635152234614693 2.868966933327319 -0.5139905185242438 -0.2814797461118894 -0.38156147932683965
Ni 5.9453109336212 3.46366842615196 7.551978912310813 -0.4995465751847719 -0.00785626281962518 1.7873247311653926
Ni 7.378794109385951 3.225588139273592 5.8083171343795055 1.6223547819174897 -0.2863905531499455 -1.1580955691801023
Ni 7.685586828178302 0.6401723591288984 10.446694586042359 -0.06071788670534705 0.3888420721486529 -0.22606501678701066
Ni 3.5674647257818086 3.972739123129696 1.0172893966428653 -0.6195147629110039 -0.6557125529877997 -0.25838584040690343
Ni 8.477603529977168 2.9804892366957 10.842695568316385 -0.23064646551010598 0.1861720372468149 -0.05804548207950649
Ni 5.343727144667051 7.421633455341974 1.385999753646391 0.4965029032624417 0.39258456991022067 2.4383774167836783
Ni 3.213310167190303 0.8853348161009207 12.405537726323704 -0.8613671244392586 0.2410460635768752 -0.15063270668962445
Ni 9.143331203093378 8.848401971205211 4.605145872158504 0.17235107220332252 0.8788308284416607 -0.9628228551835998
Ni 1.6457916952844964 7.227046479924441 4.903303483052817 -0.6243821183056343 -1.1288258736817076 0.29810912713845433
Ni 2.01179131921667 5.227072593703165 11.53410474312999 0.6539161232090093 0.5131757359324324 0.2239914220874336
P 3.261169389204385 1.7669134754009672 1.1457807232438373 0.5096954906933158 -0.479640066068832 -0.055221125256833925
Ni 1.5360175982937663 7.233512448718491 0.058592545996570794 0.3106260286585425 0.5502970662647618 -0.9560775660399665
P 7.799100502562742 4.209336474145041 9.201071751777343 -1.9144079326698515 0.015930298077011275 1.9117905496516625
Ni 6.822407626517849 0.34595051527973864 8.071910963137471 -0.9780813240045672 0.27811545762534684 -0.7014085123630178
P 1.0282087784168634 4.781897089780027 0.8874063209182738 0.9757567896364487 0.5019814098785097 1.4009154368279486
P 6.610522802958968 2.3313041276166895 11.805408319809128 0.6077632788020307 -1.9686918908243964 1.0356238983057262
P 0.667681279927062 0.18762178225220438 13.425975368171422 -0.2636044084933654 -0.5317445000735552 -1.0006514959955992
Ni 1.648269395577373 2.8418946035844797 10.656659882682893 -2.333928664849284 0.9958337628919818 -1.8564845779905057
Ni 5.268834278193514 8.217021303264234 9.401923900946604 -3.3619068736842945 0.9011726864719706 -3.565870687696891
Ni 8.81426681401041 7.665931019906929 11.824146734217413 1.2907074138122738 0.22836024057909057 -0.8004659180785118
Ni 4.597211704752243 5.179802861721588 12.738772757386652 -0.17219449202080023 0.25853085062519987 0.017395569768628105
Ni 6.871537936414523 4.599274919866014 3.5508042637381076 0.9518409022507993 -1.5520867896298625 1.0523113862637359
Ni 3.73803919315648 5.774183819341054 5.05786224310684 2.1255878048149133 1.4329686086087514 -1.9516598750427743
Ni 5.551448694871359 8.701757114837582 5.149465309845572 -0.14260083752408342 -0.19606512799081072 0.6479179966440455
Ni 8.445771068221843 1.1782708348166768 6.4777797794985466 -0.017215078326705838 -0.04453382074631685 -2.3581811096387453
Ni 6.334098031622435 1.7672174311989781 3.9412787769573905 0.7965503850741894 0.10883171149343836 1.4127075443668702
Ni 1.7793019768653513 0.44538366759086695 6.247471550267499 -1.043825460279912 0.1322259220476626 0.5189581469421642
Ni 4.74698822691756 5.109303538146572 2.8489344040820477 -0.015102917079709472 0.5400635614622118 0.2949983494236145
Ni 4.997724127931293 2.7424826360713945 13.286569265187332 0.5110651173473327 -0.7862094081594976 -1.1602740648886598
Ni 7.816278610541238 8.017128917554148 6.33614927271992 -0.6662543330593881 -0.16246132389343632 0.5015296670530717
Ni 3.737845766739564 3.8574201355207065 9.301693094935242 0.4270635775236968 -0.3135971954717244 0.17976536238952268
Ni 8.498346210495974 4.958117766372294 7.442567720121343 0.1598277429253312 -0.526669399543493 -0.043926269069304996
Ni 7.337677179618656 9.136257322703306 12.813632465045862 0.17145427142066602 2.189443465818294 -0.10756492896587282
Ni 5.7934804071238695 3.9108426697165646 10.718401594962492 0.12617483075757627 0.3430080445336738 -0.09725866194385831
Ni 1.5358241718768502 4.338849276442964 8.471498623828028 -0.40134174727756045 -0.39394802591665057 -0.10399880888116926
Ni 5.154012672799451 3.707929147589883 5.103117577117962 -0.7251901881636478 -0.18293476125643976 0.3931335004351552
Ni 8.48898805622994 2.0527700872575965 13.32469361196148 -0.6054713974440605 -0.44285837846410825 -1.2835646321199055
Ni 2.4754252297826533 7.938837272611941 11.225580397367153 -1.5254319060464954 1.0446512986153171 -0.6128754032176155
Ni 6.6024081042302525 7.856363932751646 10.855354866764452 3.1897190665317128 -2.245937030029648 0.5932401454851911
Ni 7.822191932429813 8.215068617531559 1.4143634349916885 0.5315434398063427 -2.0720299261931157 1.2627566942356188
Ni 3.794344702042562 1.4621471285953558 5.391865453368398 0.8561472708012159 -0.38040319735268036 0.08704469752533396
Ni 5.250182445133752 5.818238988489122 9.579049076307498 0.3767769134540027 0.65580485559129 0.15026478182724443
P 7.288362654086825 8.94599941471199 3.485664694068017 -0.4385453529110512 0.8420661101178014 -0.4127700437191601
Ni 6.223909449452599 7.225480647025597 12.873419649436432 1.320048328868236 -2.327018825103328 0.21522910251377125
P 3.5957602473420978 1.242396297415222 9.903386492192308 -0.9207575505824336 0.021778015107039913 0.1594140524266803
Ni 2.6516643279384366 3.5676120982899353 4.928014168352928 -0.4577504650845923 0.16489590147685795 -0.5495727865042277
P 3.9442409643707332 6.4574672424878345 11.199913632920572 0.5063918802413795 -0.3196829966544882 -0.4396833231702363
P 1.2488530554275146 1.8981210615423456 4.773995160109918 -0.1152144750913306 -0.12704386362609088 -0.4790973061914846
P 6.803101827953277 5.9066901257102975 1.8448219518220437 0.1887310562232427 -0.43130924017392813 -0.9615622433036214
Ni 8.585074931528421 6.338583682338535 0.24080023073147774 -1.0537800003894626 -1.1762334164313937 0.8938211312029057
Ni 3.4914481439338063 3.2086126684937706 7.145327503090118 -0.4534811482852771 -0.4459948672105609 -0.8006345824458921
Ni 2.3959822371207093 4.878803724654961 2.725071495314424 -1.144726089851732 1.381835537378362 1.4588822431507196
Ni 5.2564089336020965 0.35923983120004616 11.327671781293615 -0.7626920417638478 0.29184000630029094 2.0730164584761006
Ni 4.133200152134186 0.7451679025436264 7.732313124036161 0.7564828276293424 0.8822460247707968 0.18035054546903134
Ni 1.2266274390456862 7.28860213441253 2.462005120761383 0.584527962423174 0.525607791048198 -0.12106373478325601
Ni 8.736592291445984 2.4641420221292174 8.293496582043781 -1.8141739901477527 0.3436176530932147 1.8430094263222065
Ni 3.1887358014602083 7.948490171894228 6.767093197748918 1.773736708068313 -2.036228086003158 -0.6870458158834425
Ni 2.956706998196785 8.656338749989343 1.4559786680520859 0.1226562760813565 1.478579464469331 -0.05448476131144164
Ni 2.3498730636406293 9.051987880400219 3.8443242460173153 -1.705330451579773 3.634339679102567 0.2483521103199852
Ni 7.096391540688537 6.878068380680879 4.295395571343689 0.31306472000702207 0.6649608110589451 -0.5211448701808379
Ni 2.1901304756132562 8.863443177815872 8.57662219710919 0.23546548416530416 -0.7628550497042732 1.9196403847133843
Ni 4.00461763879381 2.6064209679435995 3.353443921933269 -1.05662595447869 -0.28051121155103304 -1.860235817502822
Ni 6.601560712308525 5.3640461292249935 6.012863728111862 -0.6834961508589713 1.4512594364981393 0.47864864868984014
Ni 0.7693498889708343 0.8730540807831039 10.7342551925242 0.16737907291002785 -2.2488246359900885 0.39405755491132133
Ni 0.030297024436281943 5.74265531338374 10.056139017943606 0.7349405826821924 -0.7635564466466721 -0.45381230637245074
Ni 0.12487885799552091 4.401224690507507 12.564127124474986 -0.5799969073220399 -0.5359140580702125 -0.783822910205192
Ni 2.6714675087179356 6.133975376368399 9.436609862890528 0.25886329426395416 0.9315122179957764 -0.7255719969830988
Ni 8.250990666387393 3.7284231370012253 1.3695529817394732 0.3279380375744288 0.5141715241867983 1.6065656374040331
Ni 5.111062797462331 0.4868561335340169 0.5202489017191313 -0.03405426137123167 0.3570431824705012 -0.38649002697670853
Ni 4.1487663733050475 7.923869752255343 12.899127862400926 -1.6554893596879297 -0.8202837241353874 -0.7632461144951049
Ni 3.422321226840718 3.2612707078037224 11.494821680010697 3.398732784263392 0.20043677469594512 2.269002396489544
Ni 7.263189587542466 7.070527665512335 8.500064021293824 0.10112482976748391 -0.3827436725603989 0.2433124910135487
Ni 0.7689704047624086 6.804188700200711 7.828971067803633 0.45653124796551053 0.3193631514212242 -0.38004529979262935
Ni 7.470432177095363 5.5216149727575 11.442245616658388 -0.4351520109587861 1.2309467488138734 -1.0607052667543861
P 5.603167234442004 7.210061798362861 6.986374279059398 -0.5440803959310888 0.10487709772106454 0.22016356370091114
Ni 5.8121967156559355 3.025502327146589 2.0464293850954536 0.5569955613308601 0.5706681737219462 -1.2368206910961472
P 8.944221733832713 6.238766440428102 5.850971343622194 0.8612568241136394 0.4944354792104517 -1.9953089791912928
Ni 5.702008133486099 1.770468837159519 9.7035862142998 -0.14453225021884142 1.1443854186828615 -1.975902035419591
P 5.998622938435963 1.5808372623277396 6.202013579057704 -0.43454008840639996 -0.27500236591766186 0.6933846136172768
P 0.577041660960207 7.769211515758335 9.806836314571406 0.7126545175904823 1.0832353295361021 0.4442187491467446
P 3.8153360736688313 7.8118205921704105 3.469447270626871 1.79753586737044 -3.2556475509037224 -0.2320862832804261
Ni 1.497212574747706 2.8309153517290557 2.0945962472202497 0.06198981143923517 0.3986053221830038 0.820744980042522
