# total energy = -340887.08414934465 ev
CRYSTAL
PRIMVEC
9.09599388671062 0.00000000000000 0.00000000000000
0.00000000000000 9.09599388671062 0.00000000000000
0.00000000000000 0.00000000000000 13.31290649035641
PRIMCOORD
 96 1
Ni 6.557711175324856 2.3631482582729237 11.540932220214904 2.0124523237397987 0.721787590240002 -0.5080301871757509
Ni 4.256342906236693 0.7461116173240216 6.225288080103252 0.5533661921083889 -1.2796395860338865 -1.6067684974434586
Ni 2.482278487712381 1.742919736108437 4.861753145070659 0.3280766200348221 0.11324449584915337 0.31659535886809986
Ni 3.838482051825817 4.887331988943813 5.115870649760203 -0.14684470040210193 -0.24699585340240687 -0.8220968660847261
Ni 3.5245702133753993 2.7488092949991634 2.7996777301459312 0.2118100495298933 0.20019123434404235 0.039952372023221515
Ni 5.061765860056318 4.414786020431234 2.771414658533021 1.259493964323947 1.5654619253851878 0.3356012105466413
Ni 5.567948813257537 3.3633164371287245 0.4192543606451371 0.36544786159442866 0.5748657567430615 0.9172670209306719
Ni 5.897660392758297 8.264974616144093 12.416242422400734 0.03070771349650195 0.2798967178954857 0.5190918443065512
Ni 2.5799330760350516 5.543935389899504 11.630447713378192 -0.9311931440934608 -0.4417690020546714 -1.018238355839427
Ni 0.5312569694242327 0.29054150184670674 13.304971944086605 0.7308813250111541 0.04568490363162454 0.8097193183559795
Ni 8.037174550015836 0.047673922160653914 7.271962255529112 0.6146602630321801 0.7336357478278397 0.19460422717456807
Ni 8.758541426088648 2.827589696402167 1.5440576643253505 0.35977240847620623 -0.228211116595736 0.15545223956545487
Ni 0.4065072350792475 0.23075080648331162 4.767444972828829 0.10475574165185184 0.32056771325228656 0.4329046096855061
Ni 2.0095505993258773 6.734937516502103 0.26056565462079756 -0.2739618404682895 1.1290829839978362 0.5495565885543116
Ni 8.007185058799383 4.50828373963473 3.884066624234448 -0.6950455462594676 -0.9544595708205692 -0.4555298032841896
Ni 7.651395265371546 4.436743749213921 12.541330527711217 1.5302329269795647 -1.684552852712789 0.15392037630196073
Ni 8.43128576488587 7.622151645638183 9.237119857620563 -0.10799353186285918 -0.49846465497450276 0.10614336602799786
Ni 7.158947262651625 1.0443747082194537 0.6134456396652119 -1.3388130110702492 0.1830206361020267 0.03909953710462299
Ni 2.1925892804750107 6.8643007388498125 9.455451903910419 -1.1381844320784722 0.18848217343723025 -0.5900738319420676
Ni 0.3877967760461129 5.159929824025977 1.5557196378432805 -0.4041247093393363 0.3220227005312583 -0.35765613346415176
Ni 6.3413356772790594 2.4473043919503965 7.263069102492312 0.41018634215238386 -0.6787594075049342 -0.17741254588662994
Ni 3.5972744909893253 4.777670688942126 0.6837876877162279 0.6491618963534757 -0.9085268128441966 -1.4627435258783388
Ni 6.309217723537689 6.067027795382005 5.176630068452246 -1.5152644785951903 -0.6603302542654692 -1.5403121655924374
Ni 5.099341410015422 3.1498516570657187 9.533864827168095 1.0615776420570104 -0.6574395629812354 -0.7705737585047696
P 0.42638652930234705 5.6381244046239125 12.485469301624594 -0.32634318228348314 0.6559076997177413 -0.3904171299452567
P 4.117001378804223 6.510957767726261 12.679491395161918 1.4649477326185092 0.05205481171371035 -0.060320394156612236
P 2.356926598584706 8.860816779209001 1.1794811409869606 0.17807769027445458 0.3778606334364847 0.4052310550296376
P 6.527739876095795 8.157587314566461 6.001484793605116 -1.5708381020954365 1.0741246254840857 -1.6059560288444923
P 5.09515725291516 1.5570067209512963 12.81456417275275 -1.25624486125903 -2.1110081072285256 0.48058211826712716
P 4.07231276177467 6.443820238254426 8.264905486592001 0.4046042200789161 0.8589371748415272 -0.3520079340394389
P 4.6332445010334675 1.2599770468010725 3.9621875660944754 0.4821348074662278 -1.7367189931933833 -0.9211637848819169
P 0.3273211523573921 6.303969335174967 3.423772959230683 -0.28273650133712597 -0.7598208908636399 0.24188835697251246
Ni 0.4083910153737357 7.851143286940644 1.9360295014780309 1.5496172450434473 -1.5913596190875559 -0.8576387677450777
Ni 2.064554073206949 6.497723096898254 4.584591849951099 -0.6149392277251796 0.5202293003451041 1.7233896230743289
Ni 6.122322341061356 5.933616855839475 9.239117337836253 -0.5623989917346185 -0.2683388378545572 -0.683825509173932
Ni -0.0616189900963363 2.467615745874067 9.908596117868951 0.006425186800053451 2.0357501179254744 1.3728770426334937
Ni 2.289588957251553 5.770107273156135 7.033101461066245 0.19740698673068582 -0.4543753779647723 0.18036674341894746
Ni 0.8886103641684505 0.3687506748455876 9.192242043922128 -0.7522279090077303 -0.8328265937974044 0.7032447942408082
Ni 1.448154964388573 1.4707039327615146 11.42759886755805 0.36787626853026323 0.304300857771463 0.28511425754068315
Ni 4.301850162698906 7.514282256394651 1.3150605654266712 0.2957827929981229 -0.4772710516160232 0.7051715789498759
Ni 5.80619108014906 8.48272360923802 8.030012364579429 -1.645740507831282 0.40212027731479777 0.8979811761178663
Ni 7.090418046144268 1.0084910130878466 5.204481091550717 -0.6156010296788947 0.5514424927231149 -0.7169359185746556
Ni 0.8733927667146663 7.782186558729563 6.882958441119509 -1.7100705373679195 -0.6649548975216742 0.9460474354974739
Ni 5.356821703574462 4.8675845866293095 7.129553559022275 -0.2971897006479785 0.08702438581035979 0.39487233750313283
Ni 0.7693864459939219 7.60104894026294 11.323119555165102 0.8949719569778973 -0.14176522899666555 -0.4083102081755936
Ni 5.0238173743556676 0.8267503302391643 10.624977479796861 -1.149597301901104 -1.1622887813258433 -0.5786141680419002
Ni 8.268713069553241 7.304210281980337 4.96755137654956 0.9771418429094333 0.610427455897755 -0.45652327754571054
Ni 7.238964719197317 6.719965510878116 7.256292587188624 1.545613266090377 -1.9693102411346861 0.8714062538428154
Ni 2.7588239840587065 5.777111188302229 2.503518542592436 -0.11412664134379052 0.10262558268272648 0.9089903827441764
Ni 3.4777349418335373 4.801966088104742 9.56476391775417 1.1281746132509538 -0.10739035106122151 -1.3330966774117623
Ni 1.3032103048392294 3.9208371787514373 3.9867631218629356 0.4324870625321132 -0.15758805496153502 -0.9311221816462093
Ni 1.4766618086325418 1.3519102550888176 2.697540636129761 -0.5724607468459947 0.23445709750544785 -1.1387631874000774
Ni 1.3003905467933996 3.9398659975639396 8.14592806984664 0.045990864907817564 -1.21531212760041 0.2626343312706122
Ni 5.13956389414013 2.9009397895685245 5.050490466270478 1.1531829623698333 1.1838832196671676 0.4685097604836254
Ni 3.935399864659093 7.05494367072899 6.115536729763972 1.6786254314847606 1.739670105401907 -0.5320890278971675
Ni 8.286241049405866 7.4829010781426755 12.944418578760056 -0.6459161357226683 -0.36061058810678537 1.9436449751580978
P 0.2795871966383431 6.006785029131907 7.899092817710294 -0.1925064641052749 -0.19897587387970248 1.827590777774291
P 8.799509781696443 2.048090324616782 7.90917117872571 -0.8097519713661281 -0.8659616857884762 -0.3624823512082015
P 2.011642677876009 3.645556025528887 10.440819991423092 -2.197096611488177 -0.6034021736198576 0.12236162765907316
P 4.669064524209201 6.6232841938809415 3.5719721653245364 -1.033486540247749 -0.9443363663436382 0.08602037002587766
P 7.054316047163951 4.075987543227945 10.014314304603325 0.15166243350571945 0.329790003181503 1.1656232450157151
P 6.4500964739048205 8.170803793407076 10.207497747521858 0.4947722937245801 0.32122720121315645 -0.14966931433509062
P 2.205341863637118 8.610576896632157 5.632184720740278 3.255952226628334 0.3625756822529562 -1.2134835590321038
P 7.154854065488325 4.370925138828037 1.7893611511232523 -1.0370284919627366 -0.5449298884155775 -1.036137347607035
Ni 2.9883340970018533 2.1491831985566257 0.2040813529659802 0.8297842074266548 -2.7110390503833055 3.2260418122221473
Ni 1.4930527892731391 1.0213891321490933 7.101436932907874 -0.19988115930279124 2.0836178881410308 -1.3527591888376962
Ni 7.101033070787762 1.2564478012469371 9.333491910832066 -0.7309677140773734 -0.4992380428054176 -0.8211656125197084
Ni 2.8020936260716485 2.0020009245580104 9.15609729377144 -0.9429230309358793 -0.6425914422248095 1.0833302032427536
Ni 6.5518260674033995 2.2544693255904287 2.7838088595434973 0.17529344266109811 0.5260924439941004 0.6236205575492615
Ni 4.419052041474763 7.097094505517297 10.49436446791529 -0.021745104986575454 0.9302102113549011 0.484078818566476
Ni 7.224492993226622 6.409000774385276 11.22038394476372 0.2017125560845752 -0.4442755705266091 -0.13976233963402382
Ni 7.948233923654148 4.245300369889476 7.944237144024028 -0.1503686543949604 0.04492051466177425 0.6838864443188545
Ni 3.4924795476151185 8.715462799943326 12.51708697571267 -0.6677003214772952 0.5939878222844932 0.009065452636377936
Ni 0.11603759158274098 5.174865445675178 10.133570968355158 0.0962153082810085 -0.10159739852852825 0.32905235368453006
Ni 9.049185712664121 2.72060261854717 5.843433716738883 0.24942091790413173 0.4798349556884575 0.5165186842627363
Ni 3.64535591366757 2.7135714154199877 11.522187196405723 0.8053304452596647 0.6952831161915703 -1.4209898389803206
Ni 1.5842492220714899 3.6387886062188954 12.754509693572162 -2.5477207778062123 1.1575957467255482 -0.3996242503658214
Ni 3.0068262521862787 8.624984950646978 7.975735660594685 1.4798663016015545 -0.4792816542881488 0.9228470861216106
Ni 6.189541734476458 8.275107553121687 3.676252275455537 -1.4267079724110203 0.8960299659287665 0.46718641368651154
Ni 2.8258068816377073 8.416450199167326 3.3322072290882656 0.8278687355714969 0.226411601493152 0.08627722323169011
Ni 3.8256930846889246 2.9502218834146707 7.151586784552641 -0.888299172943412 1.78675908846991 -0.6043282849785527
Ni 5.254273470643222 4.6114959801057935 11.51099093776504 0.04099675412733585 0.7947922647325022 -0.03204468714037062
Ni 8.195071904588604 0.18455225450018536 2.7793618282254133 -1.7390982920588374 1.4645065313160328 0.2556602139456242
Ni 4.7913510634612475 0.7854426940664981 1.7429788600674625 0.0028688369073628013 0.08539044975136262 -0.3178888808685429
Ni 6.14975585804917 5.886390456568674 0.16212426284340367 -0.8081491456553824 1.1481651974402678 1.2538961585211954
Ni 8.186676302406989 0.2527294560514998 11.22243418174285 -0.004474490831585842 0.24643483869261426 0.37899320437903117
Ni 0.07377214727386239 5.235863179402062 5.838348146663324 0.3253306818585688 0.02606250141500673 0.4623668808106811
Ni 7.064658191996559 6.397412478416285 2.5791626453689815 0.3215637586169688 -0.022900044526625075 -0.3048179066171976
P 8.632188977654387 2.0539936245256323 3.8634587409162804 -0.1618825685718309 0.26895204595852396 -1.582238116402262
P 1.9308975418346206 3.5672031358296055 1.6850946849827961 -0.5037043061068873 -0.09201438282578346 0.04702136305486095
P 4.5745935336802095 1.3416863581742606 8.223502342485524 1.7954244774543917 -1.1799905694809805 1.4521593226045892
P 8.506555112722129 2.071648948290005 12.701683800581968 1.2841819539889305 1.0248648600170092 -1.481842708601635
P 6.870122174815397 8.129335158145986 1.2066736141418248 -0.44485432584821455 -1.0034313727335817 0.6723961842910677
P 2.1471184079875827 3.7517790399134014 6.025927547865612 -0.527987089913652 -0.09785772898043793 -0.5182444087045913
P 7.072344306669868 4.087257479417568 5.970212767277496 -0.4819584297893635 0.5123835790484401 -1.2484155950225984
P 2.4681706014895366 8.85618691841762 10.502538127850718 0.8222593598045193 -0.49273752268273857 -0.2557401752539402
