# total energy = -340898.38123549765 ev
CRYSTAL
PRIMVEC
9.00012458796583 0.00000000000000 0.00000000000000

0.00000000000000 9.00012458796583 0.00000000000000

0.00000000000000 0.00000000000000 13.17259208102901

PRIMCOORD
 96 1
Ni 6.312300513991301 1.8243882933935707 11.260854420944122 0.2877169852708529 0.5513638169663795 0.7155657777000064
Ni 4.620583059951648 0.5150951413000086 5.974060524618317 -0.2150835780748425 -0.7451193229874071 -0.1899901254413244
Ni 2.7537321778550186 1.591492064510772 4.6282826666993095 -0.8830304683453051 -0.7797528539008765 1.3518873277557042
Ni 3.396017082519084 4.389702859019143 4.96990040290151 0.18127588549677814 0.027720091623087743 -0.8958623300026507
Ni 5.0413478934524285 4.360389452616883 2.866922247126747 0.3010748946349976 0.6056570310923053 -0.6412603821182118
Ni 7.180596552082921 5.917033033986866 2.546762608420482 0.12452881051372101 0.05065381760112567 -0.02148516645696945
Ni 5.154812466529888 4.562271251514361 11.57037051208781 -0.233433798447256 -0.3315933749388289 -0.8132011062569932
Ni 5.515537467635989 7.83090056792427 12.443792121240557 -0.4067976281858091 0.11486249106855057 -0.11560142611710414
Ni 1.7798196754924376 6.430616154324155 0.35074386272719166 -0.0045554805811663475 -0.04739288746166676 -0.28130491109692196
Ni 2.834508297738433 1.6220744885067435 0.48227258624676905 -0.23994511720321254 -0.765199895787366 -0.8865770480459827
Ni 0.49880761548908764 -0.05457585664189827 4.779398361773458 0.1989113391903542 0.011792107538921627 0.10160665449990887
Ni 8.529301250579767 2.447988939018308 1.3445925414857336 -0.43759944405801404 -0.8687618742414329 0.3891637171541298
Ni 6.875816326597467 0.7603107409790653 4.7620893218002225 -0.689982015693631 0.21883713158000376 0.5666665087617209
Ni 0.746743052876085 7.349501893793454 2.54203394286207 -0.19794846105645264 -0.18177853616480955 -0.21786602591598606
Ni 7.521926284292224 3.780700415784477 3.8004115890609858 0.8079272594525634 -0.4495874696578257 -0.8388252345830005
Ni 7.438171123107259 3.8669666117825305 12.559658827621291 0.9815697967737997 -0.46294229369817685 -0.27357926031789015
Ni 7.983281680542219 8.841497578882372 6.903663612673375 0.45211486406536977 0.43486738983883166 0.5889520596327986
Ni 6.784870065714803 0.5851881130718226 0.4532363836876747 0.23740306750764922 0.6464264997001834 -0.37490257924942527
Ni 1.8512086652322977 6.490547985221498 9.167110393191685 0.36010150968085075 -0.47165704786335544 -0.5785622317580422
Ni 0.1878614045181601 4.815840767012447 1.2925331197317913 -0.9016856215526472 -0.10399109557168541 0.22233048944524292
Ni 6.4039757849809895 2.036584235286748 6.923804091901799 0.11103026180665396 -0.19198530149448229 -0.05522652457347262
Ni 3.453941885590912 4.160604682792701 0.4141434417015356 -0.5801102929714527 0.2767532871704976 0.06112180701198505
Ni 5.908581916820234 5.6683955868671765 4.776764025250909 0.24366216104348357 -0.11986842892357422 0.1279810307283796
Ni 5.411001018338401 2.847396476420667 9.062295840038454 -0.3788991020033281 0.4712495280122917 0.43990366671115855
P 0.13452486505820568 5.478384952552008 12.350635429712394 -0.1387138437648514 0.7969041688691824 -0.32918039462196214
P 3.8632315599996203 6.0196344564571636 12.641973968841759 0.5598001206591907 1.122850629934879 -0.6034083442674446
P 2.365358793430606 8.307070169559012 1.393779123410508 -0.545968356982421 1.0591996287431371 -0.4863915258600527
P 6.422948048013216 7.910497671461755 5.876715175018428 -1.1010237638677747 -1.3572509060604625 -0.6114517833972114
P 4.591548657417508 0.9710684629327024 12.433253875137883 0.6251621910047684 -0.3694644389529895 0.5704272613557337
P 4.139958396551748 6.186865774958972 8.053143349107236 -0.6595015877165868 -0.38305631870481127 0.6020718848442083
P 4.61881903549514 1.1476059104550618 3.690249161764609 0.7219855651834212 -0.6814230703800265 -0.3922331001080729
P 0.22954458241543538 5.431764306201469 3.478460025511402 0.12425524513736019 0.1489460630158209 0.4744312681743829
Ni 1.3920042988042671 0.9571452699009874 2.5541652110504662 -0.2789562083590873 0.7093833030383783 0.12104599417144314
Ni 1.8751489971420339 6.644738122919844 4.655984150753811 -0.07400689050476932 -1.2360496172580777 0.37063994731832944
Ni 6.017177422392744 5.7110741785649095 9.110718311369567 0.5133755106480643 -0.6565512468390112 0.7146862033085305
Ni 8.64912891187534 2.31976416130477 10.277993994527158 0.012410457849210885 0.4086696483975414 -0.11635424512272866
Ni 2.4621101347951413 5.1664496278679675 6.989785806674979 -0.32280868676766344 0.16190956515502436 0.8059379969366766
Ni 0.362188421395019 9.078065858674632 9.040403036515734 0.7058812034223907 0.06465398853495961 0.9371601603101731
Ni 1.5619806553633944 1.1815633812428192 11.443939459242548 -0.4250192934001583 -0.0488815561920513 0.1680125927289687
Ni 4.079657560538503 6.894878590877474 1.5026239324393713 -0.48766679302805044 -0.871593430152957 0.42133824500414535
Ni 5.6293890460789076 7.925401878094282 8.024084646236197 -0.3538799542511712 -0.2966675095959213 -0.7861718700533428
Ni 5.280940215170131 2.867889760540392 4.886346844511576 -0.2759873555387505 0.06817485720402452 -0.0328224458466596
Ni 0.820255172051098 7.265197724997026 6.879149072802797 0.17447377497328018 0.4828470030419039 -0.10046431336534956
Ni 5.332078924159274 4.491539270883303 7.117362575404494 -0.9407951859595992 0.16152261412925084 -0.2677960779772098
Ni 8.19932967584042 7.1175326777628 8.966755015456572 -0.7398259357989516 -0.49500395011941206 0.20278650587504432
Ni 4.563153263742614 0.15345572751645348 10.363115374653436 -0.6101680315887814 0.6981462966719783 -0.5259466624448556
Ni 8.063976799302631 6.97735573434395 4.639123316994526 0.19819940072499415 0.5301378177080677 0.1228182555805175
Ni 7.305419282630339 5.958280605844881 6.900132863722927 -0.06591125798082842 1.2622419593827294 0.03685650670671717
Ni 2.3466025333930536 5.112529880322392 2.3738333109216616 0.17257141574424473 0.5013016102026656 1.3609581797087207
Ni 2.409090399727376 5.345039103839732 11.24174085595288 -1.112857266167593 -0.7553268596480283 0.3431908499684412
Ni 1.1458958867472233 3.3574785482192757 3.751804615171921 -0.6952658898003896 -0.035422602473668026 0.31900422541990864
Ni 3.394802065674041 2.79409773748478 2.7013694518960545 0.36385223497253466 -0.4586819757599262 -0.47503804852044634
Ni 1.0145570658604637 3.387682966974567 8.320494755678022 0.6158028612770556 -0.5587117726910183 -0.5778130122968436
Ni 3.6742739402834883 2.8514645328203665 7.100184937253019 -0.025612815472097823 -0.8947737249241622 0.2086213673892665
Ni 4.206757322654779 6.934839144892222 5.938455130983692 -0.2830136662579126 0.5341844769736154 0.012658312193958845
Ni 0.6485939921335113 7.279381921647306 11.07834809066893 -0.20885816599042095 -0.06807381284978599 1.0562631718226325
P 0.29464788501027295 5.432772320176615 7.940372685650167 -0.10144390366979948 0.5341603086038994 0.6507796344625566
P 8.296387021447412 1.715549784452052 8.110049338054184 0.8478374653839398 0.2839804010465561 -0.9641320609133268
P 2.0033197741069038 3.2473080208105984 10.313744290170712 -1.6484977588614447 0.4910092271377222 0.329993891662193
P 4.00823257029953 6.179719675885163 3.7360633969350303 -0.40816699772950993 -0.4899165082941756 -0.20487501297295685
P 6.858581087647413 3.8770287512844424 10.337033913058994 0.2551796747647799 0.5970893440279523 0.041516116965915596
P 6.361468195654041 7.745417382781911 10.187445539159688 -0.20497168645182118 0.03464252977453389 -0.10879185939443844
P 2.448915951870452 8.48999770567382 5.706090809475278 -0.05339229957821127 0.5217863604195788 0.7606035346659353
P 6.718818149968355 3.8468963335273756 1.509948233983786 1.032300747469764 0.7629419529911248 1.0259704343763623
Ni 5.284909270197271 2.826228182942584 0.35815726550690963 -0.22995766697319747 -1.1641443464773433 -0.4332779338645248
Ni 1.3694229857360236 1.0615467173269046 7.0481534158858885 0.33733104875355446 0.21902790743457115 -0.6438577105317428
Ni 6.646610148873688 0.7557890782905498 9.103473210923198 0.9387984672445445 -0.5682076279965956 0.7716466798539742
Ni 2.651481760251066 1.4913476761048943 9.204494211482464 0.5393256548549228 -0.08120443669447304 -0.7179779866859247
Ni 6.336384847897486 1.9041383990522822 2.5653226657378725 0.002232488874944542 0.13348987636175075 0.04217020561014673
Ni 4.255447997704279 6.792178167034618 10.473581106154835 -0.4935764736442661 -0.4076759170257043 -0.3272831775992493
Ni 7.996295860971346 7.093826349097294 0.39390756115046377 0.4732601306844172 0.005128579475816975 0.032486916884111795
Ni 7.6009743802182435 3.830174101689672 8.13291685509037 0.2669401577348177 0.26058850448517706 0.3297974593806707
Ni 2.9921904838506803 8.221622984915767 12.378390014503086 0.24204416582408636 0.41725841850781686 -0.34592290418762356
Ni -0.028209091091987295 4.8663944678910145 10.182018463918494 0.10799070364938175 -0.2788237965462811 0.017165970256325276
Ni 8.63319869101811 2.39054114255972 5.748348195333396 0.33317897425839393 0.34031584241349133 0.2729915061352202
Ni 3.778387383716506 2.669869015172717 11.26720310896259 0.4688260061724635 -0.5480905455317464 0.5769370374497934
Ni 1.2660745529091435 3.470907120797624 12.536329604183988 -0.9893702666548251 -0.08372488912348162 -0.8019944389078962
Ni 3.0894368320780115 8.213963878729606 8.011662674017467 0.30303073280978776 0.7117165791572452 -0.5538868404985493
Ni 5.6470112903944205 7.96020536061118 3.6595704364335124 -0.4748236185167951 -0.16518180814839295 -0.03047888531514751
Ni 3.1414305529210735 8.237904210639341 3.4507189409078762 0.38267322433377965 0.813836940068779 0.4887417712597841
Ni 3.6578577126882403 4.35444937026334 9.370640114936032 -0.23857060545318912 0.857299382127788 -0.8617805578275932
Ni 7.068229994228389 6.141829150569378 11.458258657764498 0.8976448758243702 -0.41123843756598205 -0.5729297160626133
Ni 0.4476266059134873 9.015604992714644 0.4410160142639755 0.18263934150320804 0.12891048452118445 -0.5028301310320502
Ni 4.541840968268083 0.25878868785690373 1.5275992786985886 0.08786950741947448 0.62653284610005 0.2570282979377444
Ni 5.865165314890698 5.592191530371036 0.4500746398531295 -0.03100878967668853 -0.12433572066630844 0.34568764824836595
Ni 7.80967827369752 8.751514331350965 11.501464656774228 0.280239188836569 0.07123806951038054 -0.30452660062902387
Ni 0.23657997995447327 4.973855957741484 5.790381478084539 0.27692246575851015 -1.1723315102738263 -0.8623942801521921
Ni 7.831224572416282 8.7707295977522 2.6082784612787706 0.03334412267808451 -0.45180376058285415 -0.34773990279170436
P 8.4809255798975 1.5530975322074132 3.647662371339613 0.5729189174293359 1.1837433516551934 -0.8632625416897584
P 1.6249005276870658 3.075000631933945 1.4847883851666177 0.6019435867964601 0.4402607929402611 0.6847863304253046
P 4.633642241004665 1.0802039759918984 8.111748561612288 -0.28904804537745055 -0.5663296942475924 0.2006486335964351
P 8.492544740986022 1.6743022125940363 12.389982175217275 -0.22792932368925906 -0.38783034305468694 0.2579019587919494
P 6.141289143082692 7.655641138120401 1.450644611795954 1.205546306462898 -0.05645062678856084 0.33292006417005243
P 1.851820673717208 3.0840997580846 6.061395035427531 -0.9201893367837896 0.5695906243870513 -0.6002415165036888
P 6.992916950085278 4.028995858162598 5.845429841277288 0.22540475749519243 -0.2687479003675178 0.4270787470323483
P 2.220780788995267 8.499573838437714 10.135427517979723 0.8553492003799527 -0.21320435877425864 0.27655865466118823
