# total energy = -381164.836495644 ev
CRYSTAL
PRIMVEC
9.27505775053586 0.00000000000000 0.00000000000000

0.00000000000000 9.27505775053586 0.00000000000000

0.00000000000000 0.00000000000000 13.57498455511497

PRIMCOORD
 96 1
Ni 4.4164393178621335 4.9374656863134945 6.238723824300791 -0.41991411096310904 1.477028317932127 0.4918942008458367
Ni 5.495694311353346 2.789566365383735 11.496152104919643 -1.5417211301248224 0.22283314011327432 -1.2255677438901473
Ni 4.584549739369582 9.035501547076088 2.006423155223734 -0.8778288695397076 2.45752467913609 -4.03964735300641
Ni 4.423729513244471 8.255877293822014 8.942453240339267 -0.527107515522176 -0.5922829237782444 -0.32057465523082207
Ni 2.8325377078854737 3.173980408407057 2.7462601932976423 0.6850246716883557 -0.7401974602057575 0.01150182999201245
Ni 5.970141339842753 5.0297432357522585 12.489583134146427 -0.9530629475833585 -0.17903028399571103 -0.463514364151563
Ni 7.115703721105371 7.7104018731723825 6.22543359406752 -1.75842681718412 -0.8999730097369146 -0.6466321879530864
Ni 3.773037837611089 5.966477692036108 8.609105810211707 1.0021854161416224 -0.31837816180013556 0.3810467444739502
Ni 0.561034330005699 2.031339670332016 2.1883283701054186 -1.4801465518461348 -1.9177799344658777 1.2032497971192375
Ni 4.441222272138984 3.6977150937180134 8.973146261406987 0.1463803591711737 -0.2024365787347933 0.13212282081089505
Ni 6.561296419853718 4.712981463872404 9.753490259141556 -2.330063525466923 -1.8743912830675977 0.6004070955472757
Ni 7.623513132279595 1.0418765108056933 1.3139389969271573 0.5219223717768108 -0.5475066480038184 0.4288039572535711
Ni 6.501342446633076 2.7205877609836855 8.399969953316026 -1.1154054865107437 0.04891883718788994 -0.8097175185837668
Ni 3.2382194583028134 6.852542507895394 2.6513578025189273 0.15634081281799528 -0.08448285033542868 -0.2303109365475582
Ni 7.76608004477565 2.324208893477903 3.4839658231032797 0.5309950235020404 0.9220752409525927 -0.2007036552040866
Ni 6.240602023492805 6.806853573476322 8.474618400511522 -0.0007055107074568495 -0.626742905228327 0.006035664671118637
Ni 5.012046425587503 7.511322033876611 13.472493465380614 -0.3973765919822253 -1.6743136914832841 2.1574841393028783
Ni 6.836246231449127 2.48952752260611 13.218681510370883 0.3506352220616284 0.4325703662745388 0.3354947668757642
Ni 8.897228986312884 4.733173264568774 5.8104869884753505 -0.33564054842500907 -1.2810189828799163 -0.11153111270247243
Ni 6.559153881516161 0.5110000310362132 3.6463628090439095 -0.2792927657628997 -1.2386731709238539 -1.8212180414787282
Ni 5.169471980580381 8.35854290792772 11.494536389861624 -0.8924954704129467 -1.2429309177589432 -4.963778705157084
Ni 9.02837830273304 0.23331593241954024 9.615528412812589 0.26017070022146804 -0.5918710330518065 -0.4076082970125625
Ni 1.6494577180712615 0.5952936107738128 7.694708475479108 -1.021141388418835 -1.4904592466260524 0.32767732771387437
Ni 1.261305826779388 9.016218702038074 2.276416375963774 0.59770846566919 -0.5844976234058709 1.0299327614582197
P 1.1569892523962557 7.057938661510978 3.5041103210051845 -0.07178237204962477 0.32442153978073807 0.18228890014232474
Ni 5.702982576747551 0.5015487472008427 5.643256769947271 -0.5243086126208002 -0.6504682738697249 2.17329616663447
P 9.284703798389858 1.7639583058510933 13.403057600634064 0.30846733044432684 3.8931502657517143 1.0856249128142013
Ni 4.626259674018906 2.225466628795514 4.134410782200821 0.1484542109810669 -0.4779508512918672 -0.772903692189527
P 7.549943374299066 4.897295411248736 2.7157304132461157 -0.8447760528497967 -0.7376628667093618 1.083190849451412
P 0.8724833488130322 6.73324671526484 8.893379837351471 0.19414014305395597 0.24793070651185048 0.9910414837096608
P 1.8635353257299327 5.661736394985144 13.17810591528296 -0.1104183392542679 -1.1179763325617134 1.0481390000536013
Ni 8.90541886229584 8.871629826955061 6.836552308354492 1.4375006921511502 -0.17657128093225719 2.7930099329301576
Ni 3.709726293489166 0.27546272228834007 12.768467425234443 -0.8643938270807243 0.162042748298779 0.026363577595193307
Ni 5.892750258074027 7.2296849056518555 2.2837872643484345 0.39101593987152017 0.002120388777112477 0.780207939160424
Ni 5.998031438461948 2.8518298279812244 2.200790337682655 -0.7020309764383652 -0.42229161005635013 -1.1341899662070982
Ni 4.480066213947159 8.358691308851535 3.954786304016995 -0.15962025490021545 0.7022361504706357 3.7050056781595613
Ni 4.830793247264824 6.190090059049794 4.322275221679391 0.222452616845404 -0.3981129559276176 0.9937534833241853
Ni 2.4208920953423796 7.619506307336631 0.6255275164834863 0.5108190627747976 -0.21724253339937422 0.2734108530608259
Ni 4.802856773356937 2.791523402566525 6.301724653988479 -0.152803231978382 -1.0517452293476208 1.296185920428342
Ni 2.809312963308665 2.429267472480102 7.549727265453763 0.6726548372690931 0.7670868283974337 0.06077882185026952
Ni 3.2135663548343003 0.5088676952621684 5.714091313400762 0.980546240605292 0.8226152004820413 0.21201470934153163
Ni 1.145636581724525 9.110852116142377 5.088773413222163 -0.5711271156362357 0.3272952617841073 -1.6057122882648023
Ni 6.087535745636947 0.08219741668873433 13.133010584559141 1.2962427418082063 2.713963166008636 1.9756451822137784
Ni 3.2115814924782953 3.6098153715317465 13.434591869438652 0.8864978580686151 -2.416257959176819 0.1958265296174434
Ni 5.099528770175545 4.986521466691586 2.3642873454710522 0.20634774086374139 -0.43193967466907546 0.34546833314870823
Ni 0.343178991330201 6.926316317146166 5.662764071382552 1.3572133679543077 0.6642002787438367 0.7550414671971255
Ni 7.084994004933721 7.145068553904961 12.139375504062112 0.03713572851003282 0.7957060347960231 0.28226470390702996
Ni 1.3120589427235954 3.6824297985652263 1.1325884304982257 3.2718393301722357 2.7507088581691015 -1.1241472372591157
Ni 2.1202874740427156 4.280031043704338 8.96631796390002 -0.25775592013238835 0.7651561870336242 -0.01925216336139265
Ni 8.612373413052925 4.2962809448619135 8.482749843630728 0.6091665869074606 -1.9888097446201942 0.735557647440901
Ni 6.90604104093015 1.2269324628010927 10.14172191592998 0.23605349545829024 0.3772119441088923 1.286670781849055
Ni 2.5673638071462763 7.268120744919545 5.4362792189873 2.2121007982064937 0.4648716495104058 -3.303721780703129
Ni 0.22688182486645245 7.684672863006222 11.039326758627311 -0.013418073178118826 2.625707736004652 -0.42461614442446866
Ni 4.403973640261802 0.9378938385011414 10.016234094753306 -0.2765368002843173 1.5800099984026916 0.41312742705857874
Ni 4.662126322293075 7.6046754900130225 6.571324612280413 0.17122518612899543 -0.1521519715476283 0.038121746572385956
Ni 8.21444561090484 0.4748551310298945 12.208702850633124 -0.6509536981465758 -0.9039643902844948 -1.7209928407073778
P 3.04848887720729 0.9598386251100585 3.127961281932499 -0.41897668675050426 -0.1184088136589122 0.6737907506457492
Ni 6.549071893754583 9.075551246390248 8.148751304449936 0.7751210115558198 0.6849087149357816 -0.30592888029318926
P 4.805555815158796 5.892889383940103 10.751428038923402 1.6042061360329212 1.34059812799513 -1.1408180130465773
Ni 3.226829687400129 4.890060866212829 11.562900057933621 0.08794921161747435 -1.52120578378029 -0.7681404664729287
P 4.771952280972782 0.9309189950819082 7.7769457749161175 -0.8242121126555161 0.879397242468092 -0.7869264888311802
P 7.1049632042443704 8.268528472577112 10.170568273001997 0.32295215432406316 -0.32042758812999655 0.12084364835264993
P 3.210551961069339 2.6915104549739834 10.507268636501967 -1.3470875923742156 0.6618191801061699 0.3343961344949467
Ni 0.10915073447635612 3.997420034417058 3.5050341167559234 0.7743373393122599 0.40625512541877773 0.12782753586965082
Ni 1.2190115634925485 5.6911568781311646 10.722649389772876 -0.6624061629578915 -0.8496896881013303 -0.16085515574858106
Ni 0.9664888415084497 9.257073401387338 13.404333848578858 0.8548825451561792 -2.361140963598017 -0.07039526189411102
Ni 2.4784438286087913 1.4294718986332666 0.8780743536177048 0.9408952018725731 0.49727577687272423 0.8621225145480443
Ni 6.6838106575194765 4.831665102692228 7.207380246802691 -0.8911158164566008 -0.4044574100884067 -0.5329801722528691
Ni 2.1963522225548586 3.145023678147953 5.213974635114719 0.4047564293860642 -0.2903235696557645 0.4354080928336501
Ni 2.065026680037674 5.4563958917159905 6.5722743781928195 -0.28650291035809367 -2.6485383607459223 0.4933268195273053
Ni 8.397859877680553 4.980492679161664 12.15668368930763 -1.901694084647609 -1.101556496442793 -0.9899747330080433
Ni 0.196391000057427 5.828928585776496 1.8787510579496831 0.6732045391249761 0.9294278246629218 0.3367929168618974
Ni 7.203223165924366 5.881035860150502 0.9028508153541377 -0.41845835235318896 0.49455812083124495 -1.223837391462602
Ni 2.360687695562802 5.0814238574703 3.937166476831467 -0.1345669114760134 1.2330604527227669 0.5809209617982061
Ni 2.2600347689863143 8.593971698500054 9.924060425961214 -0.34032612682613644 -0.11936449270396216 -0.6623259445392593
Ni 7.010877018546631 2.498181151475983 5.746521552782875 0.772615985745779 -0.6552456406537103 1.055830198050272
Ni 0.807755503374465 2.423841563703172 9.276384071598567 -0.20691415489017267 -0.8508333147874702 0.6559298112049284
Ni 8.508112489016224 6.310406108031567 7.6144532558807825 -0.08221873689160034 1.7266438683455683 -0.09554167925275157
Ni 4.038656941121727 5.594223249707752 0.43611970739725686 -0.6848107559053367 0.48911946631417696 0.41413452816685453
Ni 6.485899475498735 4.438170778143069 4.821631345230889 -0.21709958006360672 0.8640868373632666 -1.4752192897478464
Ni 9.187556843638465 6.71287868847144 13.018057373961677 2.563664188509346 0.5524315961092615 2.4461305783665357
Ni 8.057316857759588 6.161272454656766 10.052995786099226 1.6963421320382333 1.796483000625893 -0.01631030712424933
Ni 8.637573744928 3.904845683130667 0.5980362453470406 -3.334794590848534 -0.92587687408687 -0.049525874644269545
Ni 2.3717342893291673 7.4904531539653405 7.6007428655319655 -0.5630415104146239 1.938097305866991 1.1902569844039954
Ni 1.2759233177750149 0.9493856350389471 11.326777493042458 0.7442541467736344 0.8397150933871216 -0.19655569447398408
Ni 7.9748801445812045 6.572806766507 4.392620969590071 -2.1780552785860103 -1.380665171219345 -2.587463604921789
Ni 8.198427586190723 8.176417874177638 2.6157777535288735 0.2707780434236691 0.1221597960609122 -0.21623877472520825
Ni 2.6050947420258512 7.253011675863786 11.942294439708952 1.001036904359476 1.271378631576675 -0.8993232919680576
P 4.73325674008842 1.9203357793195392 0.5326990286150642 0.3298051726901546 -0.04967859817204993 -0.7038572310138265
Ni 0.004636601363397157 2.130304536400125 5.2012687335189645 0.7247764976649969 -0.4466638682531275 1.1439964107745588
P 8.159268292419442 0.016675626307765052 5.018970256189175 -0.9395235183360272 0.9773930396882908 -1.9229326823114108
Ni 8.267526766341371 1.5036259852513107 7.868970115278625 1.2891536961719088 1.200515943127842 -0.8486802730002093
P 8.32301943678987 8.35407233009784 0.41265937635389466 -1.3752247169300638 0.06361114909274206 0.761920710815462
P 8.017285708560904 3.3221123555461167 10.864453892522837 -0.48041653922354033 -0.8743347403435201 -1.1206531080629283
P 0.882665507198184 3.5092644705903813 7.072906749689114 0.45017085296512155 -0.7332218002188727 0.39145225607799033
Ni 0.9303346664443927 3.593713871297985 11.767841733720026 0.7355620183162751 -1.634577549235927 0.25805725342289104
