# total energy = -381168.08060539933 ev
CRYSTAL
PRIMVEC
9.19835085759278 0.00000000000000 0.00000000000000

0.00000000000000 9.19835085759278 0.00000000000000

0.00000000000000 0.00000000000000 13.46271626364045

PRIMCOORD
 96 1
Ni 7.9829727574879294 2.5671861371320834 3.105054184432315 2.3887867503397437 0.6121009869454361 0.40451063192384534
Ni 3.7437747901890543 8.409178344405559 7.711821011446406 -0.12472858522935294 -1.161596126134193 -0.03462710315556617
Ni 5.5353835781869245 4.277085974475172 8.0718674598315 -0.9835834847697189 0.11049932900384841 -1.4562450626381889
Ni 7.457001857184984 6.168073745122402 2.0525126513506065 -0.1433513425368628 -1.7696347700847974 -0.6725319385379837
Ni 7.889775066613873 1.1174708521047836 6.788305665658369 0.7568664362210061 -0.9624176493253813 -0.5478411485251017
Ni 6.003552041710105 8.866989464864766 7.332104809590618 -0.5238465853827172 0.14590907596171 1.2852821290316445
Ni 4.278125388121912 7.5149790626310145 5.359749347105368 0.3572475851718234 0.535081277756272 -0.3123903196478169
Ni 2.852132649952507 8.039772574024378 9.88380092388102 1.5280019807665168 0.8100890429905725 -0.9557788038526249
Ni 7.642734957671458 8.223399252164805 3.139626186124986 -0.2440758515421345 -0.07833277157363283 -0.5371003650688299
Ni 7.352729351880177 2.817500858979271 8.199157918318624 0.7772190317354292 1.5044997838795187 -0.9392802919769694
Ni 5.059286136225781 5.829022532566368 0.5971201441749184 0.17173709276840743 -0.7536286460099988 0.13723545944711202
Ni 8.778850866961566 1.2610111172143037 10.905271347605892 -0.2801353162688531 2.17190082894884 1.2282213794629107
Ni 5.5879521533295655 6.048274423572488 3.4104421923602612 -0.06914750552993898 2.1572357707374974 0.6233387646427846
Ni 0.26051753261677973 8.536317949938644 9.954400106371798 1.8641930023783575 -0.6488852456533212 -1.257022877075635
Ni 0.13669025322697856 1.7710596721853311 8.562529570538201 1.6441106855373429 -0.5273648829486207 0.18656233070669806
Ni 8.209767296196057 4.281335612570692 12.059591713075319 -0.6028049063554908 -0.33457199795117865 -0.44969879842470933
Ni 2.708905128772095 7.051888088780403 0.5667444301428025 0.35970453135274827 -0.5146749461857782 -0.8358476400119152
Ni 3.962033259302716 1.5827970252134282 9.940667888378718 -1.6059645134849245 0.36244738420520806 2.338158129549599
Ni 4.007187963655336 3.107524861472265 6.4955184785682025 0.338889651489926 0.647207600840582 -0.20582786380452936
Ni 9.163875437096413 0.5088849635877303 2.0541278817609383 -1.9711200406499148 0.578815485419429 -1.2436474842099938
Ni 6.843149912802811 2.3112052311575346 10.296177710121581 -0.6300328888335085 -0.10846121552789709 1.0994546196084418
Ni 0.14653708781843905 7.555083872363633 4.7693688346027185 -0.7063329462478287 -1.299552780018046 0.1833289113710649
Ni 3.5758404986091437 2.9650700017637655 11.921895160264683 1.108554267916865 -2.0099910066834994 0.5902388967650223
Ni 8.305540525309823 8.119503879245098 7.508371887211074 0.08405887542413265 -1.0345082966440444 0.07883825045514165
P 7.393956360417239 8.130137172834756 0.8161917475042598 0.10055970129263328 0.5503117215527813 0.07130080442751592
Ni 6.303271106005434 7.313581170636594 9.265445466919697 -0.2956524380678457 -0.4290569538046417 0.3114374688162443
P 8.547990657175042 4.200114174511285 6.465388360503944 -1.3820332552114651 2.1645677856225367 1.793643474294569
Ni 1.314508725793411 4.578488336977167 5.396597020799839 -1.9487074772826698 0.6901272830222438 -1.6724321581898551
P 2.3257110304576125 6.740165176617858 5.116101589958685 -1.4195893590883681 -0.5390009245256524 0.005512702288113087
P 6.8062001374138354 4.314081741618426 0.6275915210559377 1.2275991724978792 0.23601801423466448 -0.8359455990423602
P 6.705772542766881 6.714667348044735 5.360073129055503 0.34609131144468785 -1.561135787206008 -0.2854850106165406
Ni 5.413845768325207 4.856867227286332 5.480981771718663 0.680920419711995 -0.9561652406577662 -0.20319788238085004
Ni 5.092501381167176 8.965586587691357 3.5905606194841684 -0.5761181410929239 1.195923181550837 0.7288910340540027
Ni 6.79341442972385 4.402100760960496 9.999418675131746 1.479427414291923 2.7819755294928665 0.2441444999965408
Ni 1.912751068772774 4.004906772643022 2.5064209115415674 0.41705838668186884 0.384091444837545 -0.6883977019256466
Ni 8.955422409995359 9.090426605510414 12.670758658842596 -0.6617428183422797 0.13790574604125927 2.1754579501724796
Ni 3.376723797627037 4.194328411822794 4.541350915230729 0.11373069145695251 -0.8901616800734475 -0.9022846885892266
Ni 2.5165124222658006 8.943418562128143 4.393490184724096 0.14078615291284785 0.48850317288641676 0.03922603538015825
Ni 1.6771169148919298 2.909346392277481 7.01793881544069 -3.765461569452773 1.8460029617328915 -1.9423915623669707
Ni 6.3124418618089715 0.49780646981663734 11.470840228509285 -1.8347615844911176 1.5309512932028277 1.0192410860723284
Ni 5.268235874273064 7.846119693450798 1.7430175797654093 0.36416925199232125 0.13994180263468156 -1.817065195652619
Ni 0.12611674891788574 6.842119697506926 0.8451343584729945 1.0983919826718824 0.8846667183971474 -0.396216253125537
Ni 5.168203808712921 5.791741616546574 10.995754605142313 -0.23214798975629697 0.556323732074816 1.1061088917001662
Ni 0.43630721582780424 4.612099111005375 8.215959625992387 0.8701631254643336 -0.9144946003918573 -0.36405895166670205
Ni 0.9852629552499851 5.555150834176695 12.135399921655909 0.4469495178143464 0.07450568451805877 0.7596949068087369
Ni 1.821264271157953 1.131424750353495 10.79033979332903 0.028460569333538084 -0.18916737242971293 -0.8492189191124987
Ni 7.584950917593406 5.625564209980179 7.934251852508398 -0.27589222472178293 0.3315116138583 -0.5391042828727362
Ni 7.463781041765933 0.3743590823171932 9.309980202424617 -0.4735468086869006 -0.4338955128438656 -2.1839698442982325
Ni 3.6257691470560824 0.272709946676547 11.928411272011147 0.010121404704718052 -0.2860172289709268 0.3617007358471706
Ni 3.7524212399937933 5.720932711656276 8.972806373278313 0.1290794059988809 2.073877006704183 -0.5387361009000399
Ni 2.5889034435033476 4.470895227013306 10.69841699388363 -0.3837633720741649 1.5810536091758576 0.8668255764506684
Ni 0.8701391554402306 5.997729485618191 3.2334217698046896 -0.6829377072523399 -0.1999040421209267 -0.6994966400522856
Ni 6.722973458867798 8.755965370031577 5.244346837264674 0.8215669617231851 1.4815789134172872 -0.24630679775518227
Ni 4.326361540011327 2.1396099959368944 2.9927754345423536 -0.5676522697137578 -0.9751883187274882 1.7252822121113514
Ni 1.4743392702690932 2.740630240874801 12.332763416964841 -2.4971590056982604 0.974285861517877 0.41239594820919295
Ni 5.691249633443625 3.0982345271075986 12.22111751361378 1.7920712447114426 0.7667207033072666 0.07679910853792579
P 4.057484546136519 4.57663946845509 2.6174348881888143 -0.22567446621681134 0.29233571498978683 -1.5191951811081643
Ni 1.0454569632523367 8.985593000803386 6.39146489401377 0.6985646151563195 1.590943357485744 -0.23573056490123273
P 3.433827159741737 9.027528282356368 1.2332578530112632 1.5095376034137422 0.10431531168032358 0.33930771286395117
Ni 9.082111296336496 2.66912226131944 5.3928946845802574 0.5459092216097114 -2.332384717400932 -1.8480721855570945
P 6.367484793331904 1.6946765666762347 4.179257833780151 -0.8794946872779047 -1.0099691738520993 -1.098282967897844
P 8.574638279605178 6.137240873052737 10.76943286166819 -0.8699093575823147 -0.43421844340092314 -0.129729380878054
P 3.184984174031526 6.404747312649986 11.756896062442955 0.9581478183054335 -0.6645345221548039 0.8385354712567236
Ni 5.372361205964174 7.725630495586677 12.359487385707084 -0.8686392326206395 0.03174798183555823 0.7127077394259209
Ni 3.058267692637822 2.0501284388087035 0.9998920124515347 -0.4512041793256423 0.153922947405122 -0.444165527311306
Ni 9.089377993512818 0.5330683478235162 4.509511743577407 -1.000594931726051 0.5622418973314639 -0.7702690827801574
Ni 1.3812335629035972 1.8643033548136685 3.2083535042165465 1.081761316093737 0.06731662296878729 1.165609361058644
Ni 6.712698900961528 1.1373300916031146 2.0084221961920377 -1.0418503388314122 -1.348048670735904 -0.975586068386539
Ni 6.240667130078783 2.5635987802982023 6.043790227530137 0.5038089500055516 1.010572097543421 0.3442722559580781
Ni 5.302058210370962 6.434448787564349 7.047785624298581 0.69470667486281 0.946379622025912 2.4826543843241824
Ni 7.248677606995916 6.387905132232457 12.883926760592487 0.28313682209933816 -0.6602847457395145 0.19702389235965423
Ni 6.046112811121304 3.860317895535906 3.2874473637229378 0.39338675409654184 -1.1182563256959772 -0.044732824131000375
Ni 2.8315559390874 1.3072788220205123 7.522359819357954 -0.06353632999074865 -2.843351618607503 2.451357116872798
Ni 1.6604219080880993 8.250129659752647 2.28261675669676 0.18383567580415436 -0.8200710939039488 1.6372458400967094
Ni 3.089477697092587 5.1286784950842375 6.658941898888279 0.8729764265434126 2.2597502817636568 1.4109841339178604
Ni 4.325552085135989 0.9602526392722354 5.869892645090213 2.0390766111955463 -2.2586524207137875 -1.3721265376207143
Ni 1.5651637866222747 0.32513042837040435 0.3553635679642506 0.9715712908001913 -0.49744624101231744 -1.8301865635259256
Ni 8.06217975670985 4.684747686066893 4.4249393463011195 -0.3414952074335732 1.3298779133641485 -0.09832824085895324
Ni 2.9655115226048587 4.596829848584241 0.13648788950814425 -0.641266809876115 0.02949081037026534 0.03883985568533311
Ni 0.5407360930971653 3.6036471132471495 10.177005716100055 -0.6839563783248415 -0.9500794394750024 0.9186518170933404
Ni 9.210308712218033 4.292612790720277 0.9526244469072673 -0.5542707062005293 0.09836706451668865 -0.1698928404708171
Ni 1.760371188490537 7.866549230702208 11.766790728458867 -1.8970928384301715 0.9813245135322131 2.076309784515392
Ni 3.2213176599131415 6.567006221751679 3.174521969767792 0.5694373866386387 0.11881453373776311 -0.7840406826429529
Ni 1.2862697886651682 6.270184637976024 9.584013791789356 -0.5160857104903758 -0.02822351362206752 0.18186441101039647
Ni 5.136938614153021 0.7721666006367696 0.14419794719573154 0.4418155390218907 0.4914977367383665 0.7732888434430876
Ni 4.924870635165517 3.3410066012527806 1.1329020055009855 1.3230035548418182 0.1227570633252789 -1.551156307395793
Ni 0.9525812146582437 6.46658782545558 6.819996743862908 -0.3672844005825352 0.298346439960241 0.5228466833632931
Ni 7.702312676166451 2.274742968363934 13.20149890406443 0.4919494795638044 -0.7497190265429475 0.8527842678662539
P 0.8583091564041938 2.267200320661928 0.829390461147685 -1.1225462113205829 0.6194052339163332 1.8847137480395282
Ni 5.028076131771016 1.8710549443420499 8.156669815879189 2.785999563050596 0.1441131604035518 -2.2128271348495563
P 2.550702692397943 1.9100467536210792 5.289770133462292 -1.3857513274930005 0.01782982909256929 -1.8406342412218109
Ni 7.711897357758512 8.127672014805318 11.25185508967799 -1.3034819398691229 -3.5011439369424666 -0.8446115022474745
P 1.4006696782625472 8.06596027891171 8.176001989873466 0.852136606979926 -0.14756049552220393 1.3714331110981155
P 4.6216929909482936 3.9893799563979164 9.992660646757766 0.3205594857221705 -1.9122985996363324 0.754480709597649
P 5.344618979782161 0.10725001147692859 9.506562757745865 -0.47575821451592254 -1.5464185356004916 -0.21780714765359266
Ni 2.8847500020882557 3.554941845464073 8.64866476762494 0.604344740038785 -0.3775109634065499 0.7917776462758944
