# total energy = -340888.3934722911 ev
CRYSTAL
PRIMVEC
9.06365094304396 0.00000000000000 0.00000000000000
0.00000000000000 9.06365094304396 0.00000000000000
0.00000000000000 0.00000000000000 13.26556932302083
PRIMCOORD
 96 1
Ni 6.456183564761364 2.179953063334453 11.390587391911076 0.07828829148894259 0.1774883934298879 0.8431585718510318
Ni 4.702031757735802 0.6521423724043414 5.758756473293269 0.21624211715931788 -0.4251239372988227 0.29326156923816593
Ni 2.6679853468218035 1.2491161144227452 4.245831016259921 0.2084645300964281 0.7949141350223471 1.2609486944926025
Ni 3.5893235895751916 4.6097366004741875 4.7763872307424915 1.478669453079976 -0.44217960722952876 -1.159256679367739
Ni 3.454918710165146 2.6726621906936483 2.6487894405501375 0.24683413101356202 1.1201208897085417 -1.2871022129595187
Ni 5.227814147281744 4.420170341598935 2.7963955275170473 -1.6273298665345781 0.6895387575086254 0.3350430240503262
Ni 5.202979743776212 4.748492032323157 11.581412591898344 1.332114516004151 0.3102447340597238 -0.2886996608990963
Ni 5.870399806161912 7.9846504640176805 12.456608694211472 -1.5350486032006532 0.1988905132547478 -2.140350564946385
Ni 2.0209675626444796 6.696488141455581 0.06969222461121621 -0.03452400191879861 -0.34944685818048205 -0.2627430889343346
Ni 2.7596732394721526 1.5846071530202803 13.468001559720427 -0.5431288306510968 0.7460060964677345 0.3577263245804549
Ni 8.023560717393318 8.849168679188523 6.728867127982283 0.5464039018579429 -0.07244494533428814 0.9393350564743048
Ni 8.807475884982155 2.414121548359603 1.0868323511650118 -0.1794905114615812 -0.04128420346076761 -0.013223697779125613
Ni 7.116706188801185 0.7050387455060318 4.801605026681703 -0.8071970661547583 0.501416281403659 -1.9423681653282034
Ni 0.6913100334659485 7.361007835548666 1.9521082875522995 1.0581809576706358 -0.8936388399887707 0.5184907203874426
Ni 7.424208673374968 4.033351847872996 3.7010675289689856 1.4944915077138972 -0.8377114326935315 -0.0800420409552557
Ni 7.471729395119312 4.007067260221157 12.676259929566983 0.3164174385293389 -0.07486023964400011 -0.41944462752585826
Ni 8.409726628253418 7.5066697693944295 8.886684036688429 -0.7083954852038122 -0.6332364833724708 0.27384665504666383
Ni 6.868017735011123 0.7167353870111006 0.20809145497925036 1.2171188417918457 1.8191017664666738 -0.9596269739541214
Ni 1.7887477625659318 6.444754300958271 9.156373876012312 0.5416522461055704 1.1585177443191854 -1.6936350175197155
Ni 0.052167655568170566 4.866473576276261 1.0694963060609861 0.47223374630243187 0.8189336378653962 0.57598624350075
Ni 6.765770689045466 1.898862057525312 6.778891230109191 -0.7365560067984283 0.7677226622092197 0.8250191819378437
Ni 3.5972089658707436 4.67373503958096 0.47321230787717017 0.658590388756227 -0.5774651420391216 -1.0706392380386465
Ni 6.055361730372636 5.592671414842025 5.0181528679641145 -0.10042626103856252 -0.269506118689781 -0.8748361054599707
Ni 5.488230965355076 3.1072733156913634 9.25367670040415 0.7822874473972721 -0.22451052781569722 -0.5318072349906905
P 0.5318051855785784 5.637500232264784 12.164115615551982 -0.9383423535437324 -0.6167300010770153 1.2035416173280433
P 4.213827264881078 6.453736379014469 12.400096830760017 -0.2691109401338914 -0.4249185061562359 0.7315043033071337
P 2.5994007003523305 8.553367367945265 1.1826940550614546 -1.5758342697584475 0.5603577929348736 -1.3497900789070432
P 6.481897142405596 7.738753614709261 5.312820316477977 0.2320094072959037 0.08468313927169287 2.16253070058785
P 4.651293439916837 1.2180459190880877 12.592978573139765 1.9318001600043697 0.446820705545966 -1.484321766269747
P 4.167620772519326 6.600458760017222 8.182574315401126 -0.4220584109996215 -1.200373246902391 -0.7721452167569476
P 4.879434597083893 1.1653589163225204 3.5098444347065763 -0.7530671170795741 0.7946696231117089 0.6561519545180635
P 0.5529089903677314 5.742303227788309 3.413217758672956 0.03133120601311378 -0.117866568002197 -0.10202085921919204
Ni 0.4476727523304963 0.21033652131075406 4.682096257549519 0.8577932910450711 -0.06737987210655491 -0.14119958630118262
Ni 2.1679165349200935 6.604800248805233 5.026032806069118 -0.514406780126056 0.6965110750614005 -1.8972193367057066
Ni 6.047847963764575 5.7350251161040235 9.13614380717131 -0.3335147603312579 1.6145661391110067 0.2620470913085745
Ni 8.405883640265701 2.4826699402254184 9.955080015528404 1.334565548647805 0.09505162699021048 0.25572963373097896
Ni 2.788405012870888 5.27450101314196 6.817534105782853 -0.5133636835735222 0.05067592908831273 2.3095286387383647
Ni 0.8368224170716254 0.24207017589234772 8.977381272293831 -1.3907881185859596 0.64731533006304 -1.0740228097988986
Ni 1.3832309570035295 1.2348499278834364 11.305488773475515 1.104399365208227 0.5923261183113541 -1.0028019666796988
Ni 4.086301696515082 6.911187904316541 1.3081404219076802 1.4588884137983067 0.7898588319866268 0.5067058119373725
Ni 5.868641457884514 8.087214737765342 7.7115535983150645 -0.4549335644610875 0.33136248987494543 0.5370903377665008
Ni 5.383917406980929 2.9279399186985 4.9756497833659985 -0.1383333204969811 -0.2282599675558004 -0.7463043444344437
Ni 1.0113674872863965 7.601384921450198 6.859585820565431 -0.2987488176049823 -0.1361702514073913 0.4334692239397244
Ni 5.313284375404796 4.222990615955564 7.178224813017771 0.4930635385635895 0.9717867492451071 -0.42349025835014165
Ni 0.6356628423117293 7.501503488373206 11.222087776856227 2.547902297689399 -0.2552508943223475 -0.38005764108780354
Ni 4.884129568257566 0.43523198508535305 10.493688377483352 -1.5880688641514265 -0.5739321891851986 0.7347865736028314
Ni 8.45536211060756 7.191852918532705 4.715366200961109 0.6492254026015593 -0.41592555862900626 0.4421790930088966
Ni 7.425151293070069 6.273686953599366 6.977915408713648 0.39589049435500206 -0.5876261417325235 -0.4729246017218695
Ni 2.663054720724355 5.435072652741958 2.397194273911818 -1.9861885049472632 -0.5094741187111289 1.8617658809941033
Ni 2.6504653096042157 5.095231061705498 11.443317900201034 -0.4914162327681537 0.6193615251625914 0.8419730361833628
Ni 1.0299117170573153 3.366557177400392 3.4474955800662297 0.7196067805385993 0.6835601713276873 -0.8587746811217338
Ni 1.3420185362956274 0.950088143453952 2.189521559604814 0.11078035057937695 0.5689288224333363 0.7576927887770434
Ni 1.716166046043196 3.4142138539084517 8.23599456752567 -1.6595581304406644 0.8329633764855848 0.3810827399182082
Ni 3.492387843045389 2.7077294560815686 6.896451314294774 2.732609063244597 -0.46985547587824245 0.8054363747099096
Ni 4.384396111439689 7.122633816499222 5.907091277793699 -0.3206767280263252 0.5629911167926627 0.4593383783970025
Ni 0.5390950800090525 0.06010288194375188 13.232631234584026 0.7903262585413485 -0.036750063035839935 0.7366102570751314
P 0.4086473905882456 5.488774784409942 7.64112721797978 0.5283359886126385 0.9824231459130307 1.2037141383501657
P 8.5866853487067 1.7790496560874942 7.8372718746887235 1.124905712691695 -0.29116097795539536 0.45858375961916503
P 2.1166615889990057 3.324483709855619 10.374617382690335 0.05683603515243759 -1.7189871231312586 -0.7175776659237125
P 4.269505272448406 6.39244797153111 3.762778302584957 -0.4870584700200903 -0.15466342511557235 -1.0871917430806888
P 7.196946690346612 4.339521975762358 10.46335052514258 -0.8533098013524206 -0.07473374136846483 0.5181711322644946
P 6.399517619244364 7.996070664169859 10.078091885739013 0.5136845572480508 -0.8000851377003253 -0.44412130433693187
P 2.637295824825552 8.798801971057047 5.734559244447022 -1.0096896949384677 -1.3455840112454955 0.051887947118542894
P 6.8545310224504545 4.263550453797627 1.5594074843828976 1.6178759202105297 -0.5065132363105922 -0.7048270511262635
Ni 5.2810721600549195 3.019945039130854 0.5352693129580726 -0.1782646094742801 -0.36515912670941625 -0.4611772313779541
Ni 1.5084815489900036 1.453329233175712 6.76818615201416 -0.40835494537059996 -1.1814121324188556 0.25603379523495906
Ni 6.729081030143863 0.9809589384684922 9.33226127292751 0.9612477973869961 -0.564125487507422 -2.605932353149938
Ni 3.0591362656848387 1.467151300820214 9.128807688121173 -0.08805976905340963 2.468341053025304 1.5000062668845393
Ni 6.55181414555949 1.7541155524219043 2.2734799707553397 0.5710021600225972 1.2785797773108045 1.4582214696382694
Ni 3.750248711560853 7.005132646044582 10.336744010979308 1.2000624005301912 0.639853474468356 -0.028705852575124757
Ni 8.24956285294457 7.260482883256749 -0.05751067778222559 0.15344857887186475 -0.43692658636070564 1.1705679906155002
Ni 7.736832120715403 4.226561694415849 8.39191836693675 0.6453510072478176 -0.6633340740887996 -1.7943114468958712
Ni 3.2139524869541756 8.553331113341608 12.273344391817021 0.24520045206488092 -0.1534686334765228 -0.24955538659946697
Ni 0.4935620169102429 4.870923828875245 10.10728953079475 -1.453847766050606 -0.8842926228871804 -0.02425758699578403
Ni 8.945859707143635 2.5772491375174695 5.438100818512468 -0.540206000577347 -0.5793196787493571 0.5249051085542186
Ni 4.138354243716639 2.840113141337697 11.096622376343083 -1.7303056334678717 -1.123366136118717 0.9569499413425906
Ni 0.8930088954552531 3.44344412810748 12.218584532087323 -0.1103193517825584 -0.05372371477570103 0.7418650777161675
Ni 2.9532818866552395 8.67593511926107 8.000332392829824 1.5132276506708198 -2.4444035683731 -1.5749212710258749
Ni 5.693613295076004 8.18962492944746 3.3483356136020266 -0.38122903568808536 -0.38734517588815226 -0.5949365593510076
Ni 2.890443594865513 8.154856764539716 3.1660538109667 0.728429778146868 -0.47316834230155924 1.5820298570461981
Ni 3.7083837079871116 4.677061399466555 9.374936566893 -0.07658082187953263 0.05208232251753611 -1.336179430102144
Ni 7.532827465933468 6.523209263273555 11.183896270998105 -0.801062156901614 -1.686052320076451 -0.9117298931625266
Ni 8.20741687619248 8.896870673951154 2.269248152143393 -0.7786287675987623 0.9251801051301615 0.7983272744689541
Ni 4.720766324175925 0.31125211695708166 1.308647986358888 -0.35464845698607955 -0.08783788285059066 0.6370625419867804
Ni 6.135266876834228 5.903953441847123 0.31069560879093583 0.16771357343131116 -0.3341045713964569 0.5890672450544241
Ni 8.246481211633663 0.017297071405093508 10.930417677699767 -1.5290468770912635 0.2912000587234469 -0.22914956924960536
Ni 0.2116561888838947 4.927725729155963 5.523823016130941 0.21934441023372547 0.4472611355174942 0.03405503270218006
Ni 7.474548190553699 6.371284346645922 2.7156211769327605 -0.36602173182002773 -0.46008271276219476 -1.2356387549729044
P 8.526566152191302 1.7887658898677607 3.404184017806546 0.002474429682421545 -0.33543563150305455 -0.7428500673372562
P 1.8930885118928216 3.4336553851198985 1.0720966675083354 -0.3861061612747286 -0.03547299609562923 1.1834255633044588
P 4.986974815183575 1.2060728362301287 8.024873134045727 -0.8122310290342399 0.21265748513185312 -0.09464950645578538
P 8.491498886803383 1.6678749139711262 12.204389948390238 -0.3108803107611936 1.2794030445430482 1.0129272280391586
P 6.591422300055537 7.9399757286604675 1.1979780895984538 -0.586089650483339 -1.3077854523404833 1.8080406235565056
P 2.140453672649378 3.3606023587496128 5.555687187285702 -3.0833023922376706 -0.5917013402431616 -0.8761985330251363
P 7.227264602655373 3.923500398790135 5.976589540275346 -0.8685831825717235 0.7086086296558829 0.07588405292282414
P 2.3150739711667385 8.593048031648628 10.216226457500348 0.8270138437703694 0.1898903666386665 0.27905313894826783
