# total energy = -381173.7704260362 ev
CRYSTAL
PRIMVEC
9.19464831468079 0.00000000000000 0.00000000000000
0.00000000000000 9.19464831468079 0.00000000000000
0.00000000000000 0.00000000000000 13.45729721783000
PRIMCOORD
 96 1
Ni 3.69099843355364 0.3720044327227481 11.685199803578676 -0.40737355529393715 -1.2802617929989177 -0.5160350597580984
Ni 0.6909612621020795 5.968981720539254 3.763817288928351 -0.4357701041587592 0.19642431110244235 -0.7731394623494169
Ni 5.297873542837477 8.796133760756096 0.026978017292945293 0.07324018754207386 -0.31958015252803673 -0.23781932910946138
Ni 4.479025757807032 5.70402873791647 0.7580748382667182 0.2343318847814932 -0.39314301351685194 1.2548788341494388
Ni 5.407188715325064 3.863085469324324 7.42767404045103 -0.3993488852172477 0.5240677002545878 -0.2840433930740076
Ni 8.389141852690614 1.5398553185308705 12.199228450306997 -0.46647293255925476 -0.8415606312362925 -0.8885943355863276
Ni 6.082967774314055 6.085625027644773 6.880137337275866 -0.12668005252876896 0.27006841895115424 -0.4041571052391685
Ni 2.0966556297707357 6.958307477904826 8.300164322563637 -1.9884454193022398 1.0279375854050619 0.2074610285325782
Ni 5.834169788584255 3.919733696904106 12.62045459325582 0.3620064400130475 -0.03425917829318616 0.37467195129585795
Ni 4.3416025457623295 0.7086342954134084 5.3057947322645145 0.6295536352042448 -0.23271029001767018 -0.11443825904693838
Ni 3.5001451208002696 2.8268670061225425 8.059238794625397 -1.7017512188689468 -0.595523285092413 -0.18275144160104012
Ni 2.1152104298447494 0.34023508425112653 2.341784950867468 0.5115500274035513 0.6539881140975253 0.31856868054438686
Ni 1.9928112729640406 6.288449772358683 11.025590452919793 -0.6420875060051974 -1.255926815797979 -0.9734895908688267
Ni 2.5383389455068093 4.59120966053401 9.442016421112452 0.1424342300392321 -0.5248048355309285 0.60260307475733
Ni 7.4949807042279355 9.173371787236091 8.26973739272968 0.02866780024833773 1.9514948102198197 1.623256724906469
Ni 7.018284168134159 0.30469409108656137 1.5814473096779473 -0.5665068432554049 1.7376718440249554 -0.019293558122289355
Ni 8.449725389701355 7.8711061782753475 2.0743613662724893 -0.30914918700269983 -1.5292006290603084 2.3672244507879356
Ni 1.6639279013845576 2.215643572168065 12.935288542380846 -0.1856840418668028 1.444372993790951 -0.31007092748602083
Ni 6.495568417783476 4.0704339809541965 1.5676001694839607 -0.8830088710787503 1.6944500572218428 0.5838849295225362
Ni 7.904124159972961 5.849304179526686 0.5819605465830421 0.38473679173102776 -0.12191014194395132 -0.7262641379541169
Ni 4.249444586821874 3.108048542823936 5.308029031777887 -0.3518187008467683 0.254428141310736 0.48890760741368705
Ni 6.729563019906158 7.1557809373644865 9.453064710393393 -0.2228627077996291 0.43622467519767455 0.5653243929115297
Ni 6.415933569695749 6.833940666308639 4.156676103240728 -0.727965694026256 0.545096753010745 1.2078782970301842
Ni 5.762617036267121 6.626739269050017 12.562508081349751 1.0646444539077922 -0.30352258484454175 -1.0256909554627305
P 5.8182170739517405 2.216158472467443 0.9604352532463667 -0.6376592950305148 -0.5223373478270424 -1.3441007418317497
Ni 2.2329295107900404 8.37906451825993 10.11879769675559 0.4756777389869743 0.6123838082931775 0.10504833319160618
P 8.070354204838221 5.4804516722079875 6.166685046203993 -0.04430267857211725 -0.605354412250222 -0.3911524654493844
Ni 3.81099778725332 5.738131688102058 7.798975082586234 1.1523422116360929 -0.9301852716542368 -0.652107866355677
P 6.0156997280596025 8.468418109498415 11.391642270395804 0.7461644764224699 -0.28416089248847837 -0.027700551239061972
P 9.134138223353132 4.18075137009593 1.4670474967340035 -0.5821286089530621 0.39142345972258397 0.8467547738427224
P 7.883969491111594 2.0968487173830024 9.103524642160648 0.16665864980423556 -0.4593558618984992 -0.46151378878176647
Ni 5.04726421141165 0.23797496532983906 9.630674051874903 0.2890179634704635 -0.9540769906701697 0.5489834896596609
Ni 0.08744202387704544 4.627068788526405 10.285438742395533 1.589646493051191 -0.2999088993513545 0.5609514606548145
Ni 3.9606682707046548 2.6955306511883443 11.419108523508338 -1.7144360134254668 1.0118334807543479 0.11765625176360381
Ni 7.955163652148803 2.420003823131905 0.784628982277497 0.3941372591093212 -1.955976243029941 2.221435445343858
Ni 8.632395465553897 0.7654103286032138 6.103261282363289 -0.04188609871082464 0.07603883333313355 -0.04873937418723219
Ni 8.48815901919064 3.2505931739178084 3.3718742615770108 0.7832958340571283 0.5245371836918385 0.0477906371207177
Ni 4.106283914298389 7.025400825843418 10.165359395256486 1.216373478985389 0.31104049048814175 -0.3521290329983355
Ni 3.535792771883991 3.58074540694933 13.867879642473529 -0.6282871097869954 1.290611511664358 -1.9008127104839203
Ni 3.776186849156087 7.829978516862531 6.214418142885972 0.4452158229526913 -1.014123048119473 -0.46917284798892106
Ni 6.46465601052439 8.518887533485662 6.302159912294441 -1.2020742887538975 -0.028907684173285698 -0.8597131337756032
Ni 0.6957544322103963 2.416491467518291 10.171442574507708 0.8505378950342384 0.7607647428341479 1.7842139534505532
Ni 2.1576621205988236 4.310313157926914 4.3111397568003795 0.4052212848376247 -1.0979322694266447 0.4134362165482493
Ni 3.3451969092803093 7.186288780102632 12.670515774862844 0.15410678128115393 0.7058092125338749 -0.14943740082994264
Ni 8.555004111627746 7.748716216042842 4.83523378491672 0.2885075994929483 -0.247641971626838 -0.24634459297165312
Ni 1.311782069851034 7.102074997209723 1.746474694558231 0.9160971689922868 0.30941709595210587 -0.18827391408116606
Ni 2.551698769346027 5.011901594422228 2.017046526697978 -0.05083842280810599 0.3537678541533391 1.097181250193233
Ni 1.0693559753260364 1.912928169374828 4.479490087541293 0.26915542021858163 0.3428146975759451 -2.6474703244927245
Ni 5.455350282613311 1.3265946481063542 7.6185797626991585 0.20930193839605887 0.3101007522826918 -1.493999655679143
Ni 8.365447244271023 7.357437961756592 7.193718975315621 1.5307885423727186 -0.6367658366819678 0.6522760165024251
Ni 8.964717635561367 0.9742925075533766 2.880171140150827 -0.9492538582499135 -0.8798988646948589 0.8969432217716553
Ni 5.3769199334402 5.088207979860403 9.551692943274425 -0.9868410724750682 -0.5934322068913392 0.7297394980972272
Ni 0.6138273583256172 0.4461840960315292 9.227574238393828 -0.49709065744511166 -1.010318329661402 -1.7476706071088803
Ni 6.325338700949834 4.1376284700230235 4.534691996958714 0.18982326084615694 3.0153568774356327 1.7166821291471661
Ni 6.2327393988956254 7.2316183957443 1.6573472916655432 -1.0070013494730268 -0.4879267315576564 0.6228944780165143
Ni 3.848300475013614 1.4018896222421808 0.24680182760489017 -0.8917074272940126 -0.21036303267072157 -0.08535676829994977
P 1.2938800897994462 8.583553494298613 6.8628173784555395 0.0882906541172931 0.07024022437348548 -0.904328458492133
Ni 0.6049719926411362 7.048966709188165 12.576153858748086 -0.6109144228365028 3.2471873359515113 0.8970062137991067
P 6.388349625086214 1.7449143627581518 5.633171101003497 0.26937782064203286 -0.14300192961724403 -0.49250740894980344
Ni 1.1906241904777544 0.3434384996851139 11.85380666500446 -0.2432178744172134 -1.1883435694313664 -0.09673672800211727
P 9.349945811329928 6.9420881184744205 9.60881929256077 0.08249873002586437 -0.5125460727682334 -0.12341629417583261
P 2.0858243341873917 4.255393524209331 6.537003180446278 0.9127714470531634 -0.12684666001362024 0.7755084768022257
P 3.3027544131744393 1.7856558489464345 3.7382754756847425 -1.5321602259092646 -0.5915977247857618 0.16712684768990574
Ni 0.09320890723007884 3.592817980040103 5.802652373473401 -0.023582415305630353 1.3762899249697844 -1.198178296133601
Ni 1.7295225216660313 6.482116647462226 5.778186334069563 -0.2678863236981709 -0.6957788248810662 1.6138506011012206
Ni 8.63601815694595 3.7772074551066392 12.734115156484227 0.9907928580339646 1.9358802436110143 -2.163985687866821
Ni 1.7922668010045195 8.174051447273666 4.230287537290552 -0.10472874506865835 0.4840999016123986 0.10243017884246876
Ni 3.2656448130264115 0.019027404991657063 7.896378588326604 -0.532687837823431 1.2557681787329276 1.555026846094793
Ni 5.879600545356158 1.4629604756076908 11.876737198158365 1.0427414831871138 -0.15761787975820596 0.2834756934959956
Ni 0.2063968655408437 0.28153920851649755 0.7396386491545254 0.42988510613289194 1.111381452953015 -1.3085351860223142
Ni 4.010199840575177 5.662560874520136 5.335764688082775 0.6842787946612666 -0.7963506103585576 -0.8050121426882976
Ni 4.245794311485213 3.2444511489180856 2.5235659042387626 0.037985992325470064 1.313215622217119 1.028273371477926
Ni 5.451332221348522 2.6065540405261887 9.604553895259315 0.009029714302436062 0.4065495167307451 -0.3594170820193165
Ni 7.294610930584275 3.4703636552701753 10.706369737137033 0.18446765296119846 -0.29608592606083844 0.20833391805583476
Ni 1.404997413334855 2.5513125941214936 1.8466641787041629 0.13534415596167015 1.1368952809534032 0.534777373362608
Ni 7.472380258944523 3.136965711422932 7.1380600918825 0.6290574122941166 -1.3254265624610142 -0.23283241741783126
Ni 4.787975132082024 0.8547492084045749 2.215770458313269 -0.7522847303875947 -1.6958906463231114 2.199682369937483
Ni 2.1434471944767095 1.5148642647146322 6.235559397499539 1.4450782473880919 -1.036993524959743 1.3035025086944132
Ni 4.036000023433294 5.11840320455964 11.642163333198882 -0.6019644127320665 -0.708668793469857 0.19924429704974073
Ni 7.731972761664855 5.52064147950408 2.935117438348201 1.0404861114940338 -0.0032154216135041394 -0.1785039791785958
Ni 6.306158664798003 2.3639808316299398 3.3955320914037888 0.4392290092416371 -2.146283128380736 -0.7824566259852846
Ni 3.6715149740111057 7.895508774606583 1.5491639803717683 0.39590720652555045 -0.9145545070955153 -0.3425074507481714
Ni 7.672841979070214 8.110580790727125 13.31489235184352 -0.23588508820122603 -0.052069981222361936 -2.1745626920517194
Ni 0.49831315401944826 5.039191310289261 8.1345190573241 0.6018484559794925 0.3569850755390562 -2.332744928953828
Ni 6.802678862417832 0.12935306931677254 3.9669417791736836 -0.035185032541565214 -0.6141175031548326 0.44028136176555144
Ni 8.140684068944331 6.03264546469806 11.40768325365107 -2.3581548843865 1.149401383840214 0.7028529581190283
Ni 8.348308420020299 8.539529518701796 10.77272751321937 -0.6188025673353278 -0.10380700458533734 0.5137915151395603
Ni 4.309412082403003 7.989579220373299 3.713904141157398 0.24872054940299748 -0.41467754515451805 0.841403536833138
P 2.0832314433940953 8.593621634081094 13.708544664295832 0.20145698843034338 0.40511998337307004 -0.7188611606218266
Ni 1.202209447213759 5.27083208247193 13.594965013971613 1.41077561745148 -1.7110647829603889 0.044094419216053095
P 2.9279161898754715 1.4048686882600108 9.844994865237249 -0.3417752005678372 -0.17070788017294472 -0.5844019783682709
Ni 7.403025027547949 4.972566889409031 8.685945096689206 0.8524340836156868 -0.10939709707860515 -0.05514476349294375
P 4.810345711160356 5.579422865466999 3.2774709695453392 -0.2197907537425247 -0.10380957568849863 -0.816172015959859
P 1.8354908422076606 4.124084753219742 11.737575278138442 0.2677035182634035 -0.30875992198408114 -0.40747100010374987
P 5.129868930869005 7.7689444420898335 8.103526656625647 -0.5720743100408535 0.2056676840775813 -0.7932611727999563
Ni 0.6350201029691228 2.430614447158373 7.724502109999772 -0.20386971163689405 0.37187330550479825 1.0252114447231506
