# total energy = -340865.10964923014 ev
CRYSTAL
PRIMVEC
9.28595519546188 0.00000000000000 0.00000000000000

0.00000000000000 9.28595519546188 0.00000000000000

0.00000000000000 0.00000000000000 13.59093406729263

PRIMCOORD
 96 1
Ni 3.510360314673837 8.453032771370815 3.4521104470236894 0.49814403841029053 0.40879820355560564 -1.335469291408997
Ni 4.145705361561731 5.223015440700859 11.181003083201201 -0.9675053482609337 0.3606663810453853 -0.5208844174305997
Ni 1.2429250880728544 4.672581167106488 11.025495836377054 1.4779868251906547 1.081829450327511 -0.004793564733901422
Ni 8.086608983732752 5.979449341891855 5.215806753768689 1.656064258354793 -1.4697202143064882 -1.9012356569539517
Ni 0.04454472654079554 3.1108320971591974 0.17743417256539776 0.1279116109430249 -0.2578137699535173 -0.9123251035443642
Ni 8.397001318390377 4.477083954710539 11.700883778780733 -0.8249081102812761 -0.4047512871797416 2.5107393154858566
Ni 6.620774543854227 2.1298638020227285 9.078104766148623 -1.8305454895272408 -0.6080507281354625 1.5908525975441505
Ni 5.463057379637604 4.882713044715757 8.959673552190734 -0.7939332591663165 -0.01595086690230156 0.8492970806486019
Ni 5.591742145199903 1.8942791215265886 3.135510451392013 0.2949790661499049 -0.21088985170846908 -0.4434805854291395
Ni 2.8348999418204976 3.0183254126064756 12.016002664576417 -0.5086845329302981 1.1336937432969703 0.47733558630537143
Ni 5.950077865959285 3.9570147542427896 4.443093644718893 1.3236303897925397 0.8153091537389313 -0.007335357319148658
Ni 5.215614534498438 3.785791028437968 12.518120256674631 0.8048805022064396 -0.829162771792572 1.88331301103726
Ni 4.1648065711707405 5.688529655046621 0.14362772448442626 0.21571889766599625 -0.2886731785365351 0.5577476090055362
Ni 1.4518126477007878 9.20265078152972 2.1368078392349874 0.3100508728813628 0.9358712662954204 -0.9409016296304764
Ni 0.969880864765464 1.1634465985038178 5.975321734856752 -2.7822262120510923 -1.5457924719807186 -1.4773083110663912
Ni 3.293774698280776 1.394267584041561 2.3743360701303327 0.8631167601405134 0.8285462212544957 -0.11241094420426448
Ni 1.548572299682253 4.0746028034789985 4.727116652722799 -1.8394073107932452 0.17145607119287892 -1.3671943904264194
Ni 2.654018822727699 6.713504091328979 4.62638075477411 -0.30410082594551496 -0.4490092285568525 -0.6086767917552355
Ni 5.114304764525523 4.046401357887087 1.9821836867393854 -0.1344257579124588 0.9803626638395762 -0.587335092854666
Ni 1.0702527532748363 9.084923442967241 11.362999445499659 0.4750856139289302 0.13144893467232202 -0.3909555189472299
Ni 5.68982040280338 9.094255827827258 4.102069730023717 0.725524431574615 -0.46250057817506796 0.12520166821102954
Ni 6.244674791018017 6.099507455180565 12.251887281421789 1.0034406287049622 -0.4790196588760137 1.3359284904336024
Ni 4.145993226169354 2.8048598771218374 8.850103925170071 -1.0500009929630045 1.1003575910386856 -0.2254381818362892
Ni 1.5199808439767892 5.959958122169292 8.089459771943721 1.2818422501121602 1.5047275836196086 0.16043452327139468
P 2.947807869694072 1.364979681704753 10.514014287171536 -2.1259901824596548 -0.5355299352579165 -0.9851431159473549
P 4.128433485104388 1.2285690015120727 6.400256325482841 1.395455442154642 -0.8660886982846439 0.8452267672339702
P 7.559956041110024 6.315526628313467 0.38150325009993535 -0.04671925843340986 0.0769222643793514 0.9051118736253766
P 0.5635646140839861 7.067930424997748 10.678954207170612 -0.0436151655867894 -1.48041317524396 -0.10283332781815838
P 3.0876914970883895 7.047324890665035 6.72020019354048 -0.4239885381427988 -1.0618450367857843 0.08829733898551245
P 3.8102316622206187 3.0213247760987993 0.44266333607359426 -0.477490623825997 -0.6394071309595568 0.023979907854365157
P 4.256431089990426 5.97349704468263 3.129502438452281 -0.3234326935049075 -0.152069439136151 -0.7607022650273286
P 1.5288860749029147 3.8453232864852978 8.067945142608227 -0.8599108516087062 -0.8771747808954765 -0.03882879994173958
Ni 8.747703984070224 5.2358672025379365 7.544639786793497 -1.5729692895058265 -1.5786977073491715 -0.8750731611714412
Ni 7.229153177176462 3.970878685184088 0.4057052348369116 -0.38417860523471253 3.1461162422400974 -1.6674285343276767
Ni 7.454978318878694 8.63309672641617 0.42501723562634103 0.1785446026085441 -0.5742782596707078 -0.6808065198419502
Ni 1.5738858132428553 1.6540050337127288 8.30942919036961 0.22801417009358152 1.4583006596156367 1.6314078932586935
Ni 5.508242837079237 8.915807628966622 12.730301544571068 0.5638992304292288 0.1529209885031689 -1.19891620274089
Ni 8.893196328335637 3.44436503188763 9.668739796495217 0.19879152578303827 -0.15679229853311707 -1.5387543341870145
Ni 0.6888665062089669 4.9576507022484275 1.9397933017782156 -1.6041631986101277 0.12538627341800987 -0.558333049195361
Ni 7.617853971062465 8.34278991260652 11.380001100664042 -0.7879528732131654 0.2863314177772359 -0.1324254396529784
Ni 2.4389839608337653 6.767715497112837 1.7932962171726499 0.15974315363132488 -0.4825955491527301 1.3340125043578122
Ni 5.713657449505532 5.457866530745316 6.678788548245226 0.8461284531126331 0.802344108937831 -0.36020692491046347
Ni 7.652657730719524 5.5691308445689165 9.878841959048215 -0.3691361090792933 1.0458946841041148 -0.36191208052702833
Ni 3.7692806002975607 8.342854914292111 0.5677182217933248 -1.0113372578442197 -1.3120475700509466 1.0514762919569505
Ni 5.472826204386596 7.1707352337392845 10.42143331497814 0.2502585833140787 0.20084506587795734 -0.06868522118153977
Ni 1.9386102711004385 8.756497783535334 8.69132059339208 -0.19610652275170742 -0.9227331862515658 -0.31219157337344944
Ni 3.6772567854092384 3.424084505982878 3.9608192100409476 0.5879961234774325 -2.025259759917112 1.296958022707676
Ni 0.7389335902385702 2.106453909254468 11.175607943297052 0.05228775366012285 0.521003202396651 0.2949590115452469
Ni 5.0872733492742706 3.130899046097004 6.4444676862360994 -0.6412254151152182 0.9039170819863271 1.2249599351028193
Ni 9.179157315165698 7.255599577257385 12.670881646580263 -0.7220822386622854 -0.6318581149677053 -0.03614893911673129
Ni 5.920604244520785 7.240500614289836 1.8181138607317346 -2.241567697317359 1.1607877713002848 -0.8351763249765036
Ni 7.073604143554435 5.495762513445543 2.5783494319343627 1.5891404999490502 -1.4596533169887893 -0.20665215947803764
Ni 8.523643173834065 2.0993594395698385 7.658980537536623 0.1498793734633677 0.021795498608536655 -1.198860666912606
Ni 3.485687532014072 4.86038032273731 5.66408994985948 1.3343346635839213 0.8494570032652338 1.8499010112357173
Ni 5.963681790158215 6.634053459625196 4.368167130332324 -1.8699898115657925 -0.4561597235587047 -0.058786474010589077
Ni 3.407583363797555 0.8221608198752572 12.844791799191057 0.4222365884486986 0.47635625311123775 -1.724799616047978
P 7.031687342302579 3.6816211842989968 7.840759608486102 -0.44419278100481563 2.0690906410591334 -1.6360333078458469
P 7.038726096256702 3.2685819021362734 2.266940285194974 2.027004253412045 -1.6443518550138712 2.5034525520164563
P 0.10878124943398028 9.405743905184865 7.62716406963028 -0.574888639561197 -1.4052099504382447 1.5720997424166796
P 5.6295545543043675 -0.023812903218931848 10.43029397331986 1.6462462438231067 1.456251747506408 -0.26530467901392374
P 6.408107600506864 3.922805295711147 10.764889221309968 0.10459633325585213 0.3904184154968373 -0.6462274963155
P 4.027495153334855 7.251439469379488 12.128522439527455 0.652091925516077 0.41875222944452395 0.6385671515567648
P 8.636356096650863 3.9668392947222895 5.329765851757839 0.21912946600944197 -0.8588950087496822 0.4564746836959622
P 8.078038047189672 9.17238785390903 4.893959264918709 0.22228086715423007 0.7131731090981137 -0.9600992856048498
Ni 7.663197289740537 7.8002765586993075 3.1593753559594187 1.3764714448529713 -0.025056942968627812 1.1773932410674495
Ni 1.812859867344872 1.6365567241087775 0.5081395339705722 -0.8956131901063221 0.9069306720016702 0.21433050195890185
Ni 2.8621913638141185 4.101819937831942 2.0959394223121826 -1.8010487656197047 0.7452985288777487 -1.614935349524967
Ni 2.0845483412099113 6.637080680982774 12.96043722662357 -0.04094018985778755 0.3434633869035375 -0.5565744146330415
Ni 7.1466103224295106 7.640595275064635 6.10442251120684 0.8032493943609199 1.4499368610319738 2.2046499983554035
Ni 8.195774671707234 0.540066504742422 2.2682319615472406 0.5808106614725868 1.0258033126708785 0.7356064984009654
Ni 4.158984277332701 7.16181143090299 8.53502496898125 1.5559861246842688 -0.3062073307655565 -2.278196918504618
Ni 4.250237357949002 0.5226553389588089 8.689743838218716 -0.8512724592074179 -0.5504256214228263 0.2531287057730221
Ni 1.0190407109833026 8.456347857336015 4.158485621544658 -1.7593763255815829 -0.5012954395550786 0.5777129963838696
Ni 2.7856472360518136 8.938131064989985 5.784749793037673 -0.04746205013670536 0.3494157478322305 -0.07416475623887227
Ni 8.255696939868116 0.6892741596371805 9.878217014271021 1.1920744972287083 -0.3954742327531899 -1.2341392876092425
Ni 0.08967539684742894 7.5311602943927 1.3380039821840084 -0.16005502844478886 -1.000417268497606 1.0931173645365044
Ni 7.1815626573679205 2.029148333175226 11.62300711646379 -0.7942883285128901 1.139587997294218 -1.129283015823784
Ni 2.718156914496987 7.19070003717116 10.119877495179011 -1.182810041207647 -1.1800972702621741 3.551232883179058
Ni 7.033228810846622 1.6978718855323491 0.4236039132624658 -1.0003499055947804 -0.5575007831020528 1.0530444077750187
Ni 6.40686328252553 9.112502729568485 8.014464541489527 2.004271073480587 0.6563514721233793 1.4532368719394844
Ni 2.445112691189597 2.6122598827122814 6.363873024865894 2.4646677179387746 2.507877420557029 -0.020507375924732424
Ni 8.886621872135745 7.343203277525441 8.874566845244926 -0.3070673647730066 1.883805634402962 -1.5757476235819121
Ni 0.6298570474328998 7.57288209058778 6.414539981593962 -0.21598346418129255 0.23850067144720216 0.1939426823311692
Ni 6.47446503554137 1.4618693370574027 5.84154640871708 0.20089083151422824 -1.50102365240546 0.15801511519662464
Ni 8.004056843030714 2.1370139874378653 4.2011072267874345 0.46004903131078184 0.5352954506496072 -0.42406798523048256
Ni 0.5961118866554866 2.585702051170344 2.4571185025184676 -0.12081433777661128 -0.4297431812383889 0.5726949743439879
Ni 5.074839455415999 8.301838850683462 6.456617429868781 -2.6310404610714753 0.16874612846088358 -1.2101606653064578
Ni 4.870009858160033 1.9301971957937964 11.150749441535595 0.4721717827162449 -0.7935704765102591 -0.7433318920696812
P 1.7359443013791829 1.5643212795057237 3.9957344011590195 0.580954900359935 0.13302887756493217 -0.5472551941146446
P 1.6390546460265332 4.60765376915501 -0.05542693730443079 0.3886371552266984 -0.6767868571595957 -0.4275513157933927
P 3.055237084067735 5.100301544257954 9.340927010098895 1.1983523598176202 -1.004118371498277 0.10692395294776423
P 0.7684703561716456 6.070070977562404 3.7482302687162954 -0.8055734145084062 0.7891036989881571 0.40379740790690455
P 8.625240808414604 1.0959098471735684 12.650889913878641 1.717797473698532 -1.497530294540221 1.0097732557912094
P 1.456307049961731 8.830850425897676 13.498638182989495 0.5249511313008056 -0.7570834373278188 1.2811333969705938
P 6.622966029254191 7.030368736680567 8.563267272775535 -0.12274420780947247 -0.8127861302067615 -1.725209707002203
P 5.201945608613916 0.3112930723008315 1.5443109748939332 1.0853433770180405 -0.4707659035076538 0.3597322992668901
