# total energy = -340873.25531018636 ev
CRYSTAL
PRIMVEC
9.19061801436620 0.00000000000000 0.00000000000000

0.00000000000000 9.19061801436620 0.00000000000000

0.00000000000000 0.00000000000000 13.45139846592709

PRIMCOORD
 96 1
Ni 3.207452153412323 5.231226234713308 11.796808885353181 0.9228424581359203 0.6699749764440849 0.10256259065527498
Ni 1.7124694687586284 3.0684348657022467 3.3163343237964322 1.1294347109103 -1.624656433467473 -0.5391935001524327
Ni 0.8319963175554491 6.81594611341706 0.7870900389966629 -0.7247654419214035 0.26900089691858836 -0.9731059822771628
Ni 6.966846870187637 8.769016770524365 8.044514840036602 1.539779175907103 -0.8333084185298295 -0.8439921234959206
Ni 7.658146774126317 7.1212400617942455 6.315633684734017 -0.9699504673673166 0.03633277299276323 0.7492654839452967
Ni 3.9930569885418725 5.028407676919711 8.19449745407002 0.760007038732517 1.023460523470315 -1.7252107354434676
Ni 5.656816181955836 0.8457427248824332 6.587970077000642 -0.7667631265094278 0.23549505185165895 -1.2413265493863008
Ni 0.7594308741570838 5.920145768592693 7.94138323932856 -0.7988705485669338 -1.633514398078735 -0.30718769240095484
Ni 2.1788106161668632 7.724236508089239 12.012166203269935 -0.3344856088849595 -0.20783435271159692 -1.0383456681122634
Ni 0.044719709013598244 5.39640921183966 12.383303577047922 1.0129213145018878 -0.06621567659512467 -0.8673847913882481
Ni 8.986843607494913 0.8521982149582996 8.915062123811056 1.4592391122695063 -1.7180234736664088 -1.4804345154001988
Ni 0.7947678812651408 4.479902404684815 1.497033111527165 0.29268101414434755 -0.1493235009598977 -0.6093357654954732
Ni 2.9088857374034953 3.611554435795261 9.529979720700307 0.39016001962912805 0.48544973077207365 2.4413277576612535
Ni 8.641827808166852 0.2466853774577645 6.358570413857641 -0.8608937843472658 -0.6548268079487367 -0.653845417872074
Ni 0.9481868673648562 1.1588725941575166 11.926803743382907 1.4620426431565723 -0.3648739913688297 1.1633763579630674
Ni 5.2961763320455235 0.8888540757478585 9.055077512634798 -1.051941404518827 0.6231181639915463 -0.9908437658765581
Ni 8.5652883415498 3.901049711848393 3.6843652686939476 0.7953663920684173 -1.043409455788416 1.0332595118386076
Ni 3.6859157259487865 4.707425343634347 4.36110447655177 0.7108287772356532 -1.7097211244483008 1.6841892987257834
Ni 1.526524885593862 5.393982888690416 3.5724354893845 -0.0348153079069723 0.861760246112619 0.1307007436523878
Ni 1.7716110955214432 3.605617296574006 12.541827951440837 -0.050395421733416434 -0.9252042734998774 0.3648559936467007
Ni 2.1940946138835002 1.7967290544869092 8.435344950980816 0.26814831911030595 -1.820890225825664 0.5253913041620177
Ni 4.788992078291688 6.948906783872016 3.7744627349691964 0.1291205436494615 0.7728229595502626 0.1302996515592272
Ni 6.657692862254836 5.465412371705272 4.721037567938684 -1.2563122241618556 -0.38171420285462 -0.9626860724954195
Ni 7.226785118786346 2.371648162823799 9.929903029083393 -0.33586629128256995 -0.13132012240394156 0.4456593382480132
P 1.8008188794922633 0.43454528541155496 10.03256407015037 -0.31954235731156583 -0.6588598403675299 0.8866984041151955
P 8.245785697760757 4.321281528803008 10.413615363553694 -1.3123267918542625 1.2294043440274183 1.1924102833015722
P 6.685963203190721 3.015993199453821 3.205427460269223 -0.7056292353125848 -0.8134731289714571 -0.39891154056951295
P 3.7120078904211455 0.15345207232447788 7.632095048373112 0.1000123134295955 0.08919182577532381 -0.44994793832103797
P 2.6156682610645916 1.7805076137353366 13.413976240869074 0.1276249329405415 2.1630186959678617 -2.4381087365033234
P 6.515872436057945 8.338500652039432 9.999217750898852 -0.5646196535350212 -0.9867282010462877 0.8196571462949819
P 0.4909775179910477 1.9549087807052166 4.9580507390242365 -0.43326636390029893 -1.2484996700959723 -1.4283732759285852
P 6.048814420446525 8.329117031072093 5.018555334434903 0.6720120614787717 0.20244300649269653 0.2772173712911096
Ni 8.235363536960596 8.390455215534413 4.126821838070915 -0.6995992270684209 -0.004220980059883053 1.3708314729583748
Ni 3.4201781973986654 3.348188086686446 1.3213057383813918 -1.3369929271423748 1.072048459681347 -0.5735796909417864
Ni 6.695512255281874 4.208926223880645 12.087762712481256 -0.11634987424735448 0.6295934873032447 -0.37391656118707217
Ni 5.252006221987702 2.8344693035420323 5.0644652284781495 -0.2653856687635042 -0.04730752683671208 -1.169665790516205
Ni 5.208801126818783 7.188883010197402 8.553891975242747 -0.08670094103267005 -0.34956821424969475 -0.49860786542058644
Ni 1.6131372695274702 0.0640604455108271 0.5458335595853311 -1.6899742808386768 -2.690948193170701 -0.20683239380964377
Ni 7.920235627334583 3.6297059063246406 1.3263412779778714 -2.452440065524331 -0.5149117447869326 1.1502318501613094
Ni 7.253290861068234 3.46888847274333 6.132223874010771 1.187510789117426 -0.5885699937030315 0.2197128493167377
Ni 4.812253532423262 6.566668981686241 6.2374003872214905 0.5021611299894836 0.22397959501289166 -0.5060897756199285
Ni 3.819528930281001 0.15513763166376307 12.645968682004135 0.6589056060038007 -0.22876184689288342 1.139821453461263
Ni 7.407187759303407 1.4058612620089364 4.520813521603539 0.19654361028912604 0.7998318840389386 0.813651049310218
Ni 7.709899144025526 6.340267298131433 9.030529371984686 -0.20030847664819695 -0.6545468148144726 -1.8159693914852788
Ni 7.792403321717801 5.866003838016199 0.4463322529831649 -2.854330743326826 0.8254786380727653 1.7549342306498292
Ni 4.200764955105916 8.299890865865294 10.343036012702873 -1.4110509826000537 -0.7892489663167698 0.7603117144571294
Ni 3.8624491162922436 5.334280634230237 2.314259186911593 0.08458158069682208 1.1971393133461254 1.5420749139198153
Ni 5.561389995370241 5.2576400708153015 10.137027391405098 -0.42931200723824126 0.12651987280182084 0.5390286924397942
Ni 1.855245719226434 0.43078816077742305 6.444094628621285 0.41483001157198235 -0.7734495373906679 -0.3755510114667016
Ni 8.519767210647514 3.776140022752291 8.35232334149573 -0.11663629513952171 1.3017222768655388 -0.025962485502032707
Ni 1.0720120635381902 4.868270349069626 10.436792263999765 1.8490738873487313 1.2788651697617073 -1.4946210913132258
Ni 6.678362562113356 7.72986116629885 2.439774537733207 0.11325889402685654 0.26589397585849045 -1.0619378536099067
Ni 2.6691300859098583 7.541738406670557 2.0581442353965405 0.44824329692510545 0.6555595723497033 1.2802157702523307
Ni 3.4302143522432638 2.591735891819779 6.677462800612178 0.2530230334330933 0.5621765913111674 -0.9367454413702576
Ni 2.9690934758530987 1.2001108970766696 1.8893024732485453 1.304987834990688 -2.108218203188214 2.542436389478821
Ni 7.506446433590649 6.79030428922619 11.213260705785896 -0.14820429975378993 0.43555104616941764 1.8979711272700668
P 6.859408545889687 1.772079817038911 13.151069422659736 -0.9275396065012735 0.41605848466244477 -0.3964155136205367
P 9.131182263020943 8.035090780350108 2.250176683917591 -0.7679167804978969 1.0720929397660373 -0.7292895550440021
P 5.1364801538589395 3.031984874755654 10.13215820199423 -0.8792090377166858 0.1786407618667762 1.551400562196115
P 3.176939301686985 6.185524863041221 9.846302410664965 -0.22846179915396136 0.9429939933831308 -0.17519136986559505
P 7.459234228978282 1.7508311082470496 7.782158539844839 -1.1796797231087812 1.0658251044794547 -0.8951719888038454
P 5.577657389211761 6.473770215047773 12.430841129537118 2.6350781214759587 -1.5927667838477277 -1.6291036706055493
P 6.215633327575017 5.093569158465686 7.04861304125535 -0.48022962002371494 1.1741585361802358 1.093621814976749
P 2.565855111561179 5.491605632975516 0.8009687912226965 -0.8242871888678255 -0.6108784273922446 -2.382198041378633
Ni 4.5209568952441765 2.997373007406973 12.448932861049567 0.2025743898642382 -0.12739867586234835 0.16295420436945485
Ni 3.523499124837292 9.069412119513114 4.636051004327429 -0.6209630653217563 -0.2770463929308841 0.5635724432174294
Ni 2.5782624458470846 5.567924524760818 6.210295416646682 0.03410388366224449 -0.4995871986147202 0.4193230143463294
Ni 0.36525262107927164 2.1778823637499176 7.049178264261708 0.6469026680056537 2.2266743251452943 -0.40100081899837386
Ni 5.360611754770325 2.126240281266583 1.2239384932764015 1.3780948393890071 -0.5148775491148874 0.7485630585616334
Ni 3.893559358186902 7.008535513388278 13.371375888363868 -0.5980396237563635 1.1718160040899883 1.6549959649912789
Ni 1.4607476326425852 3.8560800180254793 5.435803876790106 -1.4345860896075164 -0.5741314496801984 1.0939660856900448
Ni 8.274846431843743 0.2211437310029799 10.867627296928935 -1.0331276142464336 -1.3522603948244065 2.0494412422593222
Ni 0.8715141367869567 7.416966576844299 9.90517934762968 0.08673770780787642 0.8645362661958594 -0.1166254965062443
Ni 8.615000394255327 3.0158921026559358 12.765672805070949 0.7974325305688267 -0.9941008393612752 -1.1642448766109499
Ni 5.161304013048739 4.990827239960402 0.5332819325969897 1.103241340344384 -1.2052724839762208 -1.861623698989284
Ni 0.838613562507932 7.3739820565071295 5.502644484242776 0.5258340481263911 -0.49306970921117665 -0.2021496436219938
Ni 0.5041026395419376 1.9291015253905337 1.625574932852741 -0.27858416973164923 0.5466245025091813 -1.061202775216095
Ni 5.524223136220463 3.1480531893458 8.039685170283088 0.6814850339662134 -0.04422683102885931 -1.0921411166661643
Ni 1.040230906530294 0.3126878005497855 3.3270423128160678 1.0210182325774093 0.8550411822212306 0.806272754568276
Ni 2.673412913892993 7.222336859679399 7.6085275466624855 1.158383018513534 2.635159625446171 1.8544024986504966
Ni 8.33834441153361 0.31930688362586623 0.09748212782985995 1.4625630344364167 -0.6597095899623348 -0.2957203151913036
Ni 0.4949239693557646 2.6138944717926065 10.279854190271847 0.5004099516263317 0.1970524316047445 0.06921101177802273
Ni 7.502705852068898 0.8745084401279551 2.2253188194412297 0.060980653448430455 0.4531687592511808 -0.5065818847649985
Ni 6.265667051910179 8.419111562425858 13.352840250002524 -1.211120715226882 -0.35607310524774805 0.23498674475667272
Ni 3.6122896852344253 1.5446579748872629 10.825120688727225 -2.010343762037228 0.19535216108418613 -1.1134571045351211
Ni 5.749816045392188 0.7179977301365519 11.287768126765455 1.840894951082365 0.8611511517737105 2.1228048427531374
Ni 8.53862635876209 6.151105998670321 3.133100053876787 -0.8019774696270318 -0.07282649704342296 -0.8699687500653405
Ni 5.328031013997338 0.44699949184920695 3.3198589257954283 0.26569934334918116 0.531254447811014 -0.631101696417655
P 1.7435337575633392 3.9251934653069656 7.757690357571235 -0.37343807888875685 -0.09074862873948243 -0.6932447456053029
P 2.7786454898734485 6.876163042484653 4.530861624251524 0.2803047519671818 1.0146588660182847 -0.23218887029656143
P 6.031664727278007 5.656356651056358 2.3417676256161437 1.4111126890759247 0.39353870629337384 0.6630371116736711
P 4.52066279546851 8.6560456941967 1.5017138932692475 0.8092557484559999 -0.3900672028050056 -0.30840125309308175
P 3.764670131501321 2.1004514071878795 3.6123999726503 0.022587398382212714 1.0547215383671256 1.2372930027468754
P 8.693028740986687 5.469382718676761 5.365332056169763 1.5392287027202718 -0.5278505643357877 -0.7303506493186648
P 0.10342478142190907 7.856498691576989 12.27729347478555 -0.9804138287924857 -0.3579852346687964 -0.2237145142769631
P 0.3437759849612692 7.97432241420314 7.6726376215104555 -0.2916158061046268 0.5766742707067102 0.41486420724402745
