# total energy = -340877.57908438664 ev
CRYSTAL
PRIMVEC
9.18954999789093 0.00000000000000 0.00000000000000
0.00000000000000 9.18954999789093 0.00000000000000
0.00000000000000 0.00000000000000 13.44983531586056
PRIMCOORD
 96 1
Ni 5.685105985972294 4.793535834304657 1.9110064604301926 0.9848453822012782 0.05259011539189007 0.250423133916401
Ni 7.236026358029056 3.4039472039782286 12.772784517621368 -0.2627243198812572 0.807646494987351 0.7973528263708268
Ni 5.099658127567411 8.752008060567777 11.167169781220188 1.1507270446301732 0.9446266438905474 -0.9479868186120318
Ni 1.4096402286663456 1.1571573393953878 7.771799184359578 -0.040483561936343185 -0.7013036113540373 -1.184754052307895
Ni 0.33748806569804474 0.20825726041179815 3.3752500768948677 -0.18420025823242467 0.7702778245309057 0.39989318775649196
Ni 2.6857930524355145 1.5754013335496773 13.1092185419218 -0.7454494526333162 0.019940961898301142 0.0062030434869183495
Ni 3.9321165965477753 3.6275657163538244 0.3224842872335245 1.1473879529546112 0.9443877884068639 -0.20188019201069102
Ni 8.89202004604302 0.375932548583033 5.799125328961535 -1.2715110433894812 -0.19699303912171878 -0.6287769049392203
Ni 8.748856044880064 7.0709269007536415 12.369598520277249 -0.09916487782763565 0.716290828791489 -0.6181945014376837
Ni 3.7248830520182263 3.9565424207400306 2.6755623262981034 -0.42218156684104713 0.2532996841332476 1.5164759824047882
Ni 5.7695855201330914 4.7249450322839674 9.770363678237404 0.33547136983699644 1.3765724892072098 0.15869260087962347
Ni 9.021712166744788 6.074301812229021 1.8432326094142786 0.1698031089704882 -1.1106743995836612 0.5110782299734553
Ni 4.345260390391041 7.015955011995903 3.464745267505678 -0.8607266626417821 0.9439851536518065 -0.7123688680292636
Ni 8.994152705965037 3.4566952216093587 7.4732803248578 0.5610129100203693 -0.8778080436041011 -0.18715137044094862
Ni 2.037654083180531 6.953695810000972 8.901235326893282 -0.407605211688769 -0.3743312801269876 0.04574223923212122
Ni 1.9262032194470216 2.1556662856925475 9.779873024691183 1.0453915192154513 1.0753978357695544 0.8232008977821822
Ni 4.459679478810065 3.098266009120753 8.830799263210514 -1.6118106878530565 -0.6150027339732634 -0.0014331329021007575
Ni 0.7351713604363254 0.3730883828240026 12.012276648576892 0.618229211330361 -1.4245765278903142 -0.573930903633618
Ni 7.065808321342398 1.8695588325692718 5.8304635327464975 -0.7781302306957889 0.8718425700492856 0.25404633249128505
Ni 1.7535499519812252 3.646487000030217 0.958386451562094 -1.3169020699297707 -0.8853699151117591 -0.25363675575769223
Ni 1.8334806588375963 6.196872031595575 11.082354828480378 0.08113116025437639 0.09958191076039624 0.5466988073905423
Ni 7.203164526835864 4.74583287968389 6.078922318024306 0.06613828638996996 -0.7949308471928955 0.626048964485096
Ni 4.43945327901806 6.085007638107117 0.6514416935645 -0.5684433981564855 0.7774656005285966 -1.2154440251925842
Ni 3.3491315375723594 8.523169883729729 1.468923854335674 0.03921497963656473 -0.08758874295426206 0.015617137711966652
P 5.702630458031974 2.9647234669229166 11.40733040274871 -1.3506634826509318 -0.40001917181139496 -0.566253075373386
P 1.321016207405959 2.511761352453225 6.059043483226456 0.7536057631918635 -0.08324614971485018 -0.05265285030902544
P 8.474639869599068 5.009012405282834 4.084527123031368 -1.3699405857129892 0.2664279939850896 0.7126316347723468
P 3.4966054377368847 1.2293228764088484 8.414607295595777 0.17568913543762002 -1.211274724306243 2.0745771180950014
P 5.208058060664416 7.214311451119237 6.943020309638238 -0.6175442694481944 0.5037672981343388 -0.4491807211377103
P 8.050827008078146 5.438384944620276 0.0009520373913911275 -1.4708985508853054 -1.7250089038453067 0.565937086794864
P 2.798594780035187 5.585316661328315 3.9409900261339463 -0.3064495286833497 0.8206562769834577 0.8627472926162367
P 7.549252173526804 0.8952827299120579 7.722061663344468 -0.43999056999800995 0.2566066370192936 0.04408593457562085
Ni 4.467251668100667 5.1436301248435345 7.33543247843345 0.7574634463750568 -0.0882438600397577 0.49334250325658896
Ni 3.596146644527895 1.7325977777305328 6.4060353816482145 -0.13138491420360598 0.8074294938805385 -1.0651594458709979
Ni 5.339836209241141 0.3465655032966563 7.525868444317017 1.3113199478563031 -0.21425362597437936 0.5044977485424602
Ni 8.949592577481877 2.082067178861934 13.430615705377319 1.8494996620322408 0.7489299549827488 1.1338480094866474
Ni 4.737075238429106 2.087691183529225 4.27118342695471 0.4275137776872379 0.7283829840693328 -0.24135793839033914
Ni 2.345485632763736 3.827217882042662 7.469648614654347 0.15306394183893637 0.22881635427990268 1.3324873259625374
Ni 1.9088257801891009 0.15290768114454042 5.533167802364353 1.6134027149305246 -0.5407855272299009 -1.173708593127011
Ni 3.331101640256631 8.338368031018575 7.3630590229290025 -0.5020791117986385 2.469476709291644 0.6790597123541724
Ni 7.881877129306661 8.115659284103865 2.157138451620162 -0.3333756636502323 0.3471200098195183 -0.9944199132635907
Ni 6.153966022132204 1.4798208228560563 9.655919778033082 -0.6596124022628382 -1.449443466335323 1.5232287277475896
Ni 8.632047673432451 8.256581035039993 7.689634497871478 0.8445713930381583 0.5605423981418539 1.6292275977779234
Ni 2.8002488990549788 8.960978430068108 10.187389138047113 -0.8280453703586771 -0.0698869547991248 -0.39006900257721855
Ni 1.1366186948996428 4.356738138478372 3.1611822639485463 -0.11021007989820372 0.485344572652777 0.6614952211078479
Ni 3.430468245595553 4.044137212388103 5.21398991526039 0.47823418686024094 -0.29985207797149005 1.052836919749903
Ni 2.543400973481793 5.871304650300161 1.7655193409994392 -1.2739255663682447 0.6030298778821034 0.5671797009527136
Ni 1.5580974106926357 7.3458231027427745 0.017791887967879942 1.1441416781031715 0.3911838329079521 -0.5043763924732475
Ni 5.679445223104564 8.974174624026 2.4365991031489087 -1.8421614764996148 -0.1339408478562403 1.1520655609359385
Ni 7.358780368397808 8.402878672790443 9.914290412059485 0.5227749495850933 1.1396892987587728 0.20997196787988998
Ni 7.581011258706801 1.189320764780223 11.762849284717491 -1.4208576842778302 -0.497657328581859 -0.9911798090597381
Ni 7.044993990343354 1.5742066920353834 3.4060764227387046 1.826662352422751 -2.1564793521874472 1.000727086428541
Ni 3.0262475049090516 6.676686011486549 5.9401196773435325 0.466655480883706 -1.7278980524676435 -1.7215469134386354
Ni 0.3078866868838642 4.602191021915216 12.128833226351492 0.32289404739261807 -0.9926623071425356 -0.40446743739073565
Ni 0.31656897382774785 5.925137034844266 7.673481106688202 -1.1134671318374503 -0.7276152526653726 -0.16701809002618334
Ni 1.1668063670108384 0.5333559746516043 1.123885654267292 -0.5095774770582127 -0.27467506448523016 0.5079934204005444
P 0.5095044973412214 2.4420769939694518 2.4242924576416596 -0.3238720950351713 -2.050225428723514 -1.2518552168317665
P 1.2583618547562998 7.686121332864443 2.154797873207157 -0.2656849451714779 1.3995468386151964 0.8567561080298083
P 7.816952957779844 4.902735258261228 8.744693178680254 -0.3377334263982958 -2.623044587350192 -0.8263016481946931
P 1.3074248627933387 7.616198046077811 6.921931211090908 0.47844990241547275 1.022970985428406 -1.930136913369334
P 7.537691719488483 8.27873704035509 4.2953528626988975 -0.08597743260308417 2.325654083545317 -1.344803424325729
P 2.31727371392618 5.2565053688440875 13.014908027053377 0.36278805537407843 0.102322706730327 0.44498416655785944
P 3.1325889787814276 8.70073037095424 12.412812379669303 -0.2004853685456934 1.3239713180717263 0.509626070907961
P 0.38869407682072465 2.4497226996609323 11.281856285547411 -0.032602102305737395 0.5463709917374784 0.4109175638914536
Ni 4.159043346962954 6.872101794574698 11.988040129116902 -1.4719609307115489 -0.8380587887306212 -0.9729249766146083
Ni 6.4829519160685205 3.7154637631555243 3.895677273496779 0.6102760179215555 1.490478529899762 1.0083398657787925
Ni 5.119470797604468 1.6554790732078073 13.379129412976285 -0.0472537907806412 -0.08591752589942624 -0.4649402979648122
Ni 3.920280456006156 1.6105054149696973 11.267317498318455 1.0455941221445604 1.0672224990476136 -1.4037863306178402
Ni 1.0128170758183566 7.3220589261584355 4.466071729866549 0.3988251515032938 -1.1415186386580276 -0.25404941781507856
Ni 5.815266773729667 8.418804163130993 13.37366898230095 0.11606705289961301 -0.5010781813379499 0.7330888741854342
Ni 5.682817787994915 9.191479915476059 5.097003266540645 -0.4003981524173685 -1.2675669711400686 -0.18882618704021026
Ni 0.7343580852515946 4.468363603663971 9.566639622894844 1.1581541903321797 -1.158329025347147 0.4367386387196156
Ni 8.536935829794439 6.25830417408061 10.180973913115354 -0.5278983868545876 0.42563070173191214 0.1954570620931666
Ni 3.3623369210803618 1.8349785555055187 1.9242412504985469 0.6339324809982307 -1.4528175250138784 -0.12517929961352636
Ni 9.046036905885833 2.494292017694204 4.523112186354038 -0.6838651041626157 0.9139582682724131 -0.1372835390762281
Ni 7.038441841114957 6.737934362969385 8.082799290820695 -2.2107589394666185 -0.4601755295863172 -0.06277579767564027
Ni 3.4235301352625385 4.113784812671436 11.528997289339454 0.23604449659722573 -0.4516541223788673 -0.4108545718640021
Ni 7.667512493891788 3.7017805230418044 1.5346668147772886 1.8136448571171604 -0.5829698739074347 1.2081968567118677
Ni 7.721427584386882 3.2879842711407323 10.501389632619128 0.31733506524760186 1.0725038020512112 -1.6216423292314974
Ni 7.006296794830342 1.136195975594585 1.1058842445569053 1.9732892803870918 0.14005493117377815 -1.1121751524989039
Ni 6.333465504429916 6.201384100699562 4.111278822356452 1.2126836888386276 -0.10112302999527102 -0.5958091917639481
Ni 2.2458617200217357 2.215867028462849 4.061541301341342 -0.2691075976997817 -0.5526861353222288 -0.013778027620698852
Ni 4.285813190729756 7.267013520999818 9.126439955617855 2.5828325339076805 -1.6082067725518816 1.0948050366515727
Ni 5.661865613744223 5.161990845963221 12.219780365879673 1.2792063551512098 -0.20062446522671898 0.44193766642205184
Ni 6.726226876129306 2.939020295265378 8.09447369528038 0.23246809209987707 1.8165892844574647 -1.361262598323017
Ni 8.035967505550353 6.881208638733662 5.626416005240068 1.292752983487393 -0.8225732915005125 1.6913757891718935
Ni 1.0546754765691921 4.938749105142134 5.706267681965494 -0.537956285311222 -0.3942982101672177 -1.5432499080645228
Ni 8.914598770663176 1.3506525065105575 9.3523025561303 -0.8957743982745348 -0.5810130072913801 0.732054519383649
P 3.2269564688605343 4.863955356797226 9.59489748948295 -0.5467635991902067 0.9898230379215276 -2.2489452207283525
P 5.411441183697894 3.2924320133939493 6.122055309375392 -0.4081824243484777 0.810763700460094 0.1505440036305601
P 5.968805776966762 6.956158609430438 1.743072026945857 0.599470185555303 0.3689052240154098 1.0190629086232514
P 0.6065755530626765 8.050670785726277 10.2735227912277 -0.1825166998824147 0.3586331526654404 0.10459607614553598
P 3.7091045944794367 0.3346016280085085 3.7215288662280934 -0.8515758493804496 -1.3296143752901166 -0.4064263608893194
P 8.013388780930198 8.887406891887824 13.202869247092332 0.23477231475302152 0.5618544320850581 0.7704441749054409
P 6.163256657293366 6.837163125056658 10.745315212827697 -0.6574151375012033 -0.3945470929532302 -0.11313290997195356
P 5.637632770104277 2.4438230084903423 2.1437024104043996 -1.6381323564667207 1.5110003040021975 -0.8312525644420652
