# total energy = -340870.3171460472 ev
CRYSTAL
PRIMVEC
9.23190871371581 0.00000000000000 0.00000000000000

0.00000000000000 9.23190871371581 0.00000000000000

0.00000000000000 0.00000000000000 13.51183157815607

PRIMCOORD
 96 1
Ni 1.0682333793439338 7.694749682539015 7.863791468677024 1.0639751957549095 -0.26356224240152026 0.6755164750876044
Ni 1.417559569948069 1.466174800787187 1.4220121194797264 -1.7249582531130292 1.032442415253951 -1.0088075494438302
Ni 5.6453398222204765 4.331408426630382 7.7818555100240765 -2.1485361860809706 1.6779955112102456 -1.663929520035483
Ni 3.192043191301754 2.770588098581016 12.197062894468694 -0.5301465594588161 1.8612521745824782 0.032912691567620736
Ni 1.1625280940782197 7.335933089864502 3.76291026284314 1.4925292417812037 -1.7054541216418306 -2.3853543276194276
Ni -0.16384145200742017 6.431104493249848 0.6843013792448434 1.7524662287253112 1.205798017462388 0.43706542593141495
Ni 1.5968155397929513 4.9233122483641525 1.664428192208358 0.42261068395866574 1.0490368292775223 1.3387965560100168
Ni 8.98491814531865 0.5738711346091885 10.933922690581518 -0.003281498964749187 1.3355975894567451 1.294258878608958
Ni 6.091379487619636 0.1552123870121062 7.180930267178269 0.6262981043814246 0.20101810112071186 -1.2600806900653523
Ni 0.21673567249597414 6.68769616167796 5.711829874546623 -0.03427871867721193 0.038890763527926565 1.154741565106205
Ni 3.246603771297801 0.844626397255564 10.909061160644232 -1.246173593065957 1.5474307789150898 -0.874304658436533
Ni 4.337935386030924 9.22721881918942 2.9422960599310133 -0.04341050577515105 -0.7980035725809482 -0.7524112286631299
Ni 6.956455485678795 0.09367802323788374 12.444842706110641 -0.19232263022924298 0.4923932519694423 -0.6520309903711544
Ni 7.041342885520361 0.5472555420324363 1.3080442074575256 0.13159780154536047 0.8883246268647087 -1.5364452264378634
Ni 6.56718282643796 2.7134702798947985 12.968196836703184 -1.0143860719728726 -0.758697318782158 1.3980080333731666
Ni 7.199236218798262 0.6497629626828784 9.44837749910944 -0.6507498096658857 -0.9989391412901828 0.1149401383840214
Ni 8.55008601699482 8.518577512844818 4.348661017475833 -1.0261923205791812 1.6935715112716314 1.6768490563106282
Ni 0.8988924793663535 0.8288462958364026 8.941360154026373 1.3853114117421044 0.8030591327269847 0.4141957204220931
Ni 6.714071724630364 1.380622703524349 3.325869861975308 -1.0570059635259281 -0.2800278441567112 2.379594799427831
Ni 3.306841975100544 8.148424136374171 11.943189099940891 -0.15447830568795975 -3.406078940215818 1.581502266677502
Ni 7.857554391207425 2.893086294176203 10.967364356398384 0.9777961886639807 0.3534374673971139 -0.6388006077238095
Ni 7.03036614616075 7.369371062917917 10.765754242999792 1.0976275937020321 0.7789984922333553 -0.3543916037802671
Ni 1.2374265687834534 3.6750751145764062 -0.16173657684006 0.9923337201585233 -2.3623131295292477 -0.07186953244679235
Ni 3.3867903038257166 2.92477943649878 9.474293313012131 0.537706631194261 0.3591028932130073 1.500253864118971
P 6.555089026134267 4.983328886359804 5.557254489229903 -0.7061866504779516 0.30963795371366026 -0.5411722211453583
P 0.6708412564640925 5.000020177160627 3.9251195134049928 0.23419124543857087 0.44448331566204097 -1.0971606813679426
P 5.271475218481063 1.832792356253014 10.948110287762216 0.2806942740961166 -0.9568080164480877 0.29330219266811425
P 1.2659716302636193 2.328942821689153 11.032707805672837 -0.4450515294606851 -0.29054339897605447 0.6311320354349582
P 7.698294735452465 1.2953383316117455 5.575818934291503 1.1383325276205623 -0.8441638731870946 -1.6115327516013214
P 2.554339870860641 1.807746188143153 7.820702458343089 -0.32407032708890643 -0.927988521113234 0.4086171978930511
P 3.2923663423706278 0.6675620825191524 1.0386488049521685 0.6028087630102328 0.5497540492770984 0.4768360209611336
P 9.060278215455321 8.908736435314015 13.520884433772792 -0.2361961916837416 -0.297494633482907 -1.226474829085449
Ni 5.514062081519326 6.160664961878576 3.4901599847420863 0.214878661152888 -1.582126273414746 2.1204810797159674
Ni 5.543428782867453 3.9626029088195365 11.27671822902166 0.7081180631727094 -0.19279442765933893 -1.3315203340635777
Ni 5.079839259164996 2.0738928820020455 1.7959247291440095 1.6233212595958173 -1.3434546236073186 -0.6120415944624105
Ni 7.22971998109047 6.8835326394201175 7.781139113914484 0.10831260576517475 1.1659662301774307 0.7793473909323416
Ni 3.267744842057691 3.127207497001882 1.5471857221955314 -1.9095166660158207 1.275241971186823 -0.8049977445105942
Ni 7.9291570745321875 6.0961985439238555 3.844197218319484 0.8902241578802669 -0.5106375428916108 0.8981781226200208
Ni 0.5199826375613157 5.2977492304385505 12.15110922288725 -0.9137587506670972 1.1806294886165603 -0.9442162958260061
Ni 0.9139829572109457 3.831463646747818 9.474577655797896 -0.6134274190663436 -0.30052236456563725 -0.5981098148726667
Ni 4.725195489190687 5.373607823641176 1.4117970125819892 0.1808611665568627 -0.20804903982556427 -0.85114878914536
Ni 8.769233064024629 9.201378706937486 7.2129668365018365 -1.7248242986383262 0.5254111016563596 -2.530029531174036
Ni 1.9596757084468677 0.4044979229514076 3.2665797751887395 -0.1724382326004901 -0.5544357710234838 1.9025842005620461
Ni 6.5787134803152965 8.069759042948398 3.021367357336453 0.9546200076578332 0.9427271128749892 -0.9185317465757084
Ni 8.934890432459328 1.5647069615820794 3.306209589359473 0.5962596490378054 -0.15382601681594155 -0.13161477082622497
Ni 3.671483902119814 2.0100357700168234 3.9775862965240347 1.03354027630382 0.32879370070650477 -1.1227596128829698
Ni 4.0739951183343095 5.600574297279557 11.715919819699488 -1.0079680842616705 1.6747626060952445 0.4672900291439113
Ni 8.371522440297095 4.875915629464033 6.852133071791935 -1.2207464112421038 0.02960008225461999 1.3719766423064113
Ni 2.9252041042957035 3.985239548777287 7.437709343351545 -0.13971246023269487 1.482570587906595 2.51390897146309
Ni 4.038221472397814 5.442607108732625 5.696817867925376 1.5694463639542326 0.7693612262539072 1.1988138728350708
Ni 0.6189957807957672 7.881363483561031 11.60955438443308 0.42582507713090534 -1.8079688897783057 0.26207563055366473
Ni 2.2843250072862933 8.0129366453383 1.4435907827086198 -0.10979741784081737 -1.0516485558687567 -0.1978150208023819
Ni 1.7956708516567184 5.86038790181911 10.415514093441407 2.656081977421135 0.9107834700888572 -0.8406676871083779
Ni -0.21120575922733922 8.569694590922333 2.058027847023499 0.31875585685452845 -0.1799016308570708 0.22569220682862418
Ni 7.0771719229086285 7.474587125560041 0.4935618382566307 0.11264645725383825 3.1121450275009757 0.5602770602956093
Ni 6.3673673960768 5.751728337258454 12.941996680014727 -1.353654446958456 -1.9920292799987565 -0.7088096899230953
P 2.481370865058821 8.395239213564412 9.834005400823635 -0.9501892255799893 -1.2046001404995448 -0.835215148634239
P 8.03580408301177 3.458476074328138 8.481024878115559 0.6088187166497386 0.04426385491438183 1.3797223476901013
P 5.04362248161432 7.617930970838997 7.901138231843862 2.1439467669380754 0.6615489571639186 -0.1760228646279549
P 5.46844722098456 7.57780909593835 12.099629330800623 -0.7457361306357996 0.5373489907445261 1.0459641038894696
P 7.190290499336982 5.936357277925282 1.890319148491486 0.18190734843318995 0.4712212458775175 -1.013617312127648
P 3.522019301419981 3.380964969480961 5.60145132859929 0.5617883547338131 0.4117434022268586 -2.9401947902804975
P 3.7280385743796756 6.708301781737381 2.6156342050105157 -2.710898411040383 2.4517019018067256 0.9258501346139927
P 2.4807153995461775 5.722638593169191 13.175346095279039 -1.6799762890857002 0.21510337556918438 0.44390918832612586
Ni 8.344509875649306 3.62456734246839 4.895634063104229 -0.3926154231481561 -0.7220094764428211 -1.396159667310518
Ni 6.561948334245445 5.44791545619417 9.44868861443023 -0.1908434745805552 -0.7587135167320739 1.6186832466031735
Ni 6.874503832781178 2.700204027195252 6.82694750186178 0.9407604760669217 -0.24577586495237672 -0.16688464977211256
Ni 4.642773008953004 7.95087975553569 10.04119620298832 0.5255926215395464 -1.5054199817009428 -0.2999266399631673
Ni 6.173829663583207 2.631777120438788 9.203732843637821 -0.8466750696447225 0.7924934413959964 -0.49840346271926417
Ni 8.832536261492125 6.268050523048461 9.689671894939675 0.879961342501678 -1.0234001025460246 -0.4270946878719483
Ni 4.528389661042508 0.7455670944779687 9.0518457901138 0.9771752672505302 0.4890011955687579 -1.4968479237612156
Ni 4.555817661578592 1.105244101036684 12.904447738048919 1.7627231305666287 -0.6917900154366473 0.563467542208449
Ni 3.393621916211009 7.6462267707861855 4.82839899575174 0.3185694518753352 0.2815527654416699 -0.5885751359093541
Ni 5.727928476813478 3.112814951449625 4.539853845177718 -0.28078503403771 1.373663543090531 0.9025502835457876
Ni 3.52525970134868 8.997796657855787 6.980482451076038 -0.6197325353487649 0.23099484998846026 -0.4915525012357018
Ni 3.247536194069307 4.781851712445467 3.6445054955339504 -0.6438129733367365 -0.2902842317773969 -0.8714399352942281
Ni 8.74605174145778 1.8300781751161546 13.098774798730274 0.8358964909719797 0.10091554197015522 0.6323345403834916
Ni 1.2999265902002455 4.338701634447113 5.861932400132705 0.8132412154663091 -0.11000773407941056 -1.2698318559148454
Ni 6.68355103470364 7.304904644963197 5.641608284752727 -0.5820129093108041 -0.50869636000484 -0.9744578683193669
Ni 3.21087628490445 6.737234583379955 7.858373261502797 -0.5164487502567493 -1.9856835402863866 0.386618839245089
Ni 8.226784576815193 4.387132227113655 0.3431168088604228 -0.5876860484361813 -0.8283631587094121 -0.3390400610248613
Ni 6.492155105011922 4.031269845200349 2.315968297302275 -0.13791628756422056 -1.0197005422072503 0.8377996215319635
Ni 4.613406307604877 2.163525482878801 6.9638087009016125 -0.349104901460031 -0.5658100742986966 0.40849635604447065
Ni 4.729266760895976 8.199301184827338 0.6036708124720044 0.16734924811335694 -0.43998157113694547 0.5097415134399027
Ni 1.847249525165672 0.4082673112445356 12.726888593010006 -1.3752704825663344 1.6665453603917748 1.0744478131514592
Ni 1.574926684434131 2.9459758987104427 3.439909782884813 -0.28614912656310076 1.066419029309712 0.20448729061623494
Ni 0.32791831768487406 2.2941477580673078 6.7340403429944 -1.6374882951248184 0.21904307694322275 1.1059510259660632
Ni 2.200130000591885 1.5278439504273895 5.6997360742429315 -0.12190885639237067 -0.1441347576701066 -0.6186236185553023
P 1.0357832205137973 5.553196142196694 7.648669533809359 1.0447618560512524 0.13388582624858877 1.0748296219709104
P 8.61079504813763 8.317275745194426 9.171939073511192 -0.5481239698728432 -0.03674337816762059 0.7440703128976024
P 8.016850974596899 2.7449510883189143 1.6611582501720465 0.4604017866645103 -2.406069705789908 -0.13469083864838738
P 4.725721707982527 4.006740663973699 -0.1642227298337885 -0.0017624912170614807 -1.400476292408001 -0.3365993127938526
P 1.3564720305514792 8.811330567371833 5.3524962949888995 0.001920356951164435 -0.8168145346398641 0.7127982422571981
P 5.460867824000337 8.860619727540852 4.705130858976912 -0.06779536237741872 0.22602182225390105 1.2665189894915283
P 7.749513364524897 5.1265065572834425 11.42297012551868 -0.5649526113944077 -0.26517920917965293 -0.7061249440020807
P 4.097831906413801 5.157138030113711 9.577834707428996 0.187168082611497 -0.6565615312516563 -1.099056612839075
