# total energy = -381170.3167472639 ev
CRYSTAL
PRIMVEC
9.20362089818455 0.00000000000000 0.00000000000000
0.00000000000000 9.20362089818455 0.00000000000000
0.00000000000000 0.00000000000000 13.47042950074648
PRIMCOORD
 96 1
Ni 3.8120845682769517 0.05954190525698323 2.367441890146017 0.4249573298139714 0.21285700273716887 0.7774666289698611
Ni 7.056986793003212 0.6999031591994892 -0.020347365156295566 -2.1381209042849174 -2.1502315715055227 -1.7110560412096405
Ni 1.9972409639529018 6.072346611222351 8.10798600206533 -0.6221087488904253 1.92448614284146 -1.124997758184869
Ni 0.6465525297434106 8.636907973039925 0.27016308883567036 -0.7082625591703737 1.4723293697945612 -0.8208791916275412
Ni 6.984830404896934 4.444511380614046 5.697803416673556 0.574576764747733 -0.2004077212302226 -0.20678482840116
Ni 4.703979861926823 8.862672794499998 0.21433576498681126 -1.8791154280161446 0.5435075541467543 0.5571405715491566
Ni 1.4145045010272594 2.6905681359965317 0.6296362744705359 1.1871467209097877 0.6782415873282513 -0.5568865465568216
Ni 4.808118832771532 -0.136200704723157 8.564485600288714 -1.067714865303 2.285267966418787 0.19295820693071286
Ni 7.382914621065403 3.3112971461291525 8.977098652460318 0.10367407855189886 0.48113182012301003 -0.518307657842359
Ni 2.9441923180175364 1.8927154410290512 6.9908569358831585 0.7227898062522713 0.042744590056378 -0.5741471334094822
Ni 3.9086581627156205 7.143197110272535 9.216131413855852 -0.33909045464682247 -1.191012117402465 1.1448960397706927
Ni 6.494617943199915 0.2674259319705164 2.5681240834803205 -0.4723928975881154 -1.3944285435520243 0.060687290577727745
Ni 3.530297306204263 6.695753875046162 13.029785199501697 1.5031818363990435 -1.0138859924080024 -0.767457324362975
Ni 6.252019699055355 2.9269263251492488 12.879239731194044 2.3266421584901993 0.7137539213022482 -0.6372484327453413
Ni 8.041875472549233 5.460876443747245 3.447810773963995 0.2271057993466992 -0.9337099969780436 0.3706564023785617
Ni 9.207670525133135 7.813460008260766 4.715511998954522 -0.5442233492668562 -0.17254647604358025 0.3115040603881216
Ni 8.456820722264984 0.7584851267932728 1.5679040121859011 1.9931461672120188 1.2813555402837287 1.4049320141865096
Ni 9.052607919672095 7.630059453950334 2.360746255918043 -0.9974898104381661 0.9635000837562825 -0.9973949367315145
Ni 4.472876940326234 4.711922586791072 8.845949815266694 -0.5461208233998853 0.12262645128468559 0.685738924146561
Ni 0.6924960850734774 5.069197947747395 0.5360124405405483 -2.450124787127593 0.02078196974235776 -0.6540125395775576
Ni 3.25347079581388 6.692072426673393 3.1699829096162193 0.953853561805454 0.6727139726418027 0.9214373502582777
Ni 1.0727004268574998 5.906239660643004 3.0609126386761853 1.6613453042480741 0.06497743331264938 -1.0829519939677283
Ni 6.901325952181596 7.057732286298697 5.708552325559949 1.6701675305253947 -1.2308066236915833 -0.10047691177083988
Ni 5.8003243909584326 4.330561349855907 3.6912879639075546 0.12599613908786686 -0.466817460382867 -2.620750906220009
P 5.250592112694667 5.870962181610943 4.873668861772875 -1.304936155817146 1.8367930130988495 0.9642395330254684
Ni 2.6513699144474714 5.320475206430759 1.2071349567238208 2.4428791613087735 -0.7726944043921983 1.0090782866067138
P 0.7227667943185725 7.144255526679706 12.189014179404474 0.7484980096516529 -1.3666320901650462 0.435665717370411
Ni 7.1442923411634345 2.6582082047998905 2.9430731577122144 0.9390548062297247 -0.3682791603956367 -0.6651230476684222
P 5.43414912856094 3.8512827898260125 1.3643116339129238 -0.7665026737591896 -0.27095904908622365 0.17785246163752597
P 4.333708988214625 1.5017732347037545 10.036574396400738 0.17698162899679842 0.8595902350444938 -0.14517939688453707
P 8.790295519491355 3.4130523791524943 1.6059849141538263 -0.24933195773475123 -0.3403945181702267 0.6986350633829388
Ni 6.877534592072576 0.8112531670443607 8.613154347776725 0.7938617824984328 0.48563922107506036 -0.6641213458767853
Ni 8.859828875632033 4.914595523332951 7.034029280950623 0.9169731438393369 1.2531243133521774 -0.14434070303332563
Ni 5.048959185318095 1.52740531899916 3.9025589231240354 0.012725932207100665 -0.22605756058784293 -0.1522069931552798
Ni 1.637738326731054 1.2080948943870202 2.5529160202524106 -0.31839410263973555 -0.040196883933859805 -0.7350251719761987
Ni 4.632394098318325 8.166943477393136 4.621973758699202 -0.0576022238945008 -0.11815401733562876 0.04045116603651098
Ni 8.596264783004552 8.667528419880433 9.177107140742404 0.8889465767194238 -0.5788882476388933 -0.1803744567284313
Ni 4.9767107610025 5.885918065625318 1.7960801823301384 0.4270628061927484 0.5848866313141734 -0.4155136679025683
Ni 5.465248163689909 1.7702612645298146 1.0889080033186165 0.22994841100181687 -0.9577793792224215 2.4417393912773755
Ni 5.764752396056551 5.146177033221999 12.62177855960652 -2.2737836199282713 1.5910683130993823 0.5004498037253317
Ni 1.1733788362318065 1.2609512893990547 5.0668887592555745 -0.34941111984654016 0.8984030941466333 0.936592203621845
Ni 9.290411077311123 7.312598957145512 6.981629385536811 -0.04964157428652741 0.0005964959334183276 0.7860361158064268
Ni 7.290749561053126 4.8540080867381015 0.9768281483338435 0.23407580290662913 -0.6388751697154867 1.2738350635369675
Ni 9.20454129401628 3.582435818783607 4.6157640756564335 -1.5283609067678323 -0.47368204871318426 -0.183656984134445
Ni 2.397607678112488 8.344923098974665 11.985234047264482 -0.5186339308335262 0.8888560738881466 1.1080675580884336
Ni 4.860496639495107 0.7805084713212717 6.368576195261415 0.9433835155120657 -0.8723004835223106 -1.3759914198927592
Ni 2.4364653656870674 0.41944305926518327 10.068082072299084 0.1953133374264507 1.1905719445412528 -1.4382576249218326
Ni 8.405482924706718 0.4724089773663075 6.492585783698146 1.3993072118005643 0.4787707760900013 2.1633729939834874
Ni 6.123886888441121 8.115007444474294 10.158522373748719 2.658012875895261 -0.30931913692166085 -1.5467406948266005
Ni 0.4257935577082102 4.113834484150982 9.219323229595043 1.0409442820773749 -0.38392740845585493 0.7430907225931526
Ni 0.20560521017078903 2.760129103000007 6.979447207013853 -0.04272556389298448 -1.8495114891067825 1.0456020925643605
Ni 8.66249403923067 6.108700913903448 9.224213113396175 -0.20917004080388496 0.8174861067855921 -0.9098015657915621
Ni 1.994102529215116 3.655567790708668 5.713267340563372 0.8045529436636918 1.1326866421886945 -2.037267068790633
Ni 0.8350095533938406 3.9160394667030234 11.947853540849477 0.39554519520044135 -0.1803873122442377 -1.3616456926940486
Ni 3.5204954499117647 2.5859689841052256 1.7612049015328024 -0.4430967197271595 1.167520719148744 0.5179412756418758
Ni 4.170050200803169 2.0581413236594366 12.68351368773158 -1.4435582111991396 -1.0182854070272787 -1.3365941490420594
P 4.440581434476116 5.785893113337178 10.955393042362763 -1.002914580998163 -0.5365745744723469 0.5449358019528486
Ni 2.39311631109771 6.958241144024608 5.62926589231771 -0.37447346213180666 -0.5012172780189755 -0.05270890035794148
P 8.945569808233829 0.45071512246767154 3.5795237931207464 -0.28839807049827754 -0.3794637162575465 0.9227200736254431
Ni 1.553985376250554 1.556718851667335 12.051400718868265 0.4638213538690205 0.05022290071129414 -1.2175698132863353
P 2.594850478304532 0.8797612398132233 0.2973202131194958 0.9672369250908955 -1.3970600676376004 1.2277256707734145
P 6.39610238474461 7.5992365274493245 1.1792120911784594 0.17541916960568496 0.014783843177393893 1.3085300438159917
P 7.073461274471354 7.76078768566737 7.769770419696926 1.543822492738541 0.41240546129088973 1.1466397619346769
Ni 4.504279694945955 8.85334952649596 11.290954300454398 -1.7608379977287738 0.02355413317085621 0.5949764114500076
Ni 5.202162659350887 2.3725646255567256 8.085234651121615 -0.8200518106302392 1.3028255372320465 0.2892082251043987
Ni 6.494360241813821 5.917771797670703 10.287488112057291 -0.535782931808987 -1.463279857997783 -0.13685622173082237
Ni 3.9717950023086135 5.316039061141572 6.634697974145878 0.16593616981591425 0.03210407962339632 -0.7523073560954141
Ni 8.209280133679982 6.723429163188454 0.1559848082784189 0.26469866999880864 1.5536361363948532 -0.22027026448210452
Ni 2.717488727222407 8.482959005711647 7.542470434265409 -0.2529934657467385 -0.43064101046230996 -0.3694757518068992
Ni 1.4895508261061603 3.617639668848213 2.7262533354358776 -0.5579316999918842 0.0766021620357713 0.62969607431938
Ni 5.132482045275298 7.417777937155528 7.066170165969084 -1.9740402996205033 -0.4534212415816191 -0.3076695171333798
Ni 6.618314608524962 7.184917123956942 3.408355771390934 -1.024698252532158 0.6333933206653092 -1.1124487178752647
Ni 5.529526252278459 3.5736739716564165 10.730099446294403 -0.39311807381618746 -0.3698490759859179 -0.527071520077918
Ni 2.0797146111238645 8.707453727483115 3.967984703242797 0.9829720764379652 -1.7594876543484663 -0.1660752664969398
Ni 4.922529044576268 3.2383124321390024 5.562142044137008 -0.8366634510449913 -0.49744958344642715 1.567183793172301
Ni 6.238214267657469 7.766107378566021 12.58105805915532 1.0232044415954509 -1.264876825902415 -2.1117755815221693
Ni 3.210618736754846 4.208972313724271 12.329955669269662 0.2361720233140255 0.460829104009916 0.05673653346009583
Ni 8.211829536678126 7.306294476807143 11.150241980750414 -0.7203110056944756 0.024300524418577503 -0.16709650867260256
Ni 6.986155726311131 0.048634694090561176 4.960768248824222 -1.2179199975369026 0.579743396550337 -2.0362442839530734
Ni 6.227501252892711 1.1744648635017734 11.034800963401302 0.028420203013905895 -0.24378351711269625 0.5685686108804401
Ni 2.355860053565285 4.002212969488619 7.820123429815478 0.3780640076965424 -1.4338936915261822 1.7210404061158617
Ni 7.878354739451756 4.883698967864484 12.055482524751573 1.3333350186748132 -0.9043515984205844 -1.097355313877252
Ni 2.338722911390044 5.404688337957855 10.274017692461328 0.006048263076608938 -0.7429007180695335 0.926438917237927
Ni 8.684895652578971 0.39494209998231083 11.732245835449875 -0.37495862929834134 -0.8733880601595345 -1.7983172256211544
Ni 6.536429993093641 5.250628927178394 7.893995372863465 0.17961700973711647 0.9174721949629425 -0.29372282514530057
Ni 0.3920586055443393 1.7805969308363643 9.676415541006444 -0.16018538337506605 -0.5838476485266977 -0.29867425561330496
Ni 8.679594366922183 2.1441031431635986 13.12903520690737 -0.5336843974087454 2.5831477511552543 -0.5289553673641922
Ni 3.4347177028262417 4.3639244757341284 3.753831169950438 0.07908996145463153 0.12439845558344381 0.25198533619719826
P 0.5965584608412043 5.619013058599548 5.02469936090364 -0.21910658319130655 0.14209612997352303 2.265469186525305
Ni 2.5889693645290333 2.8330217807808373 10.075895026108192 0.34767305410951094 1.0014480237549654 0.33755396339763805
P 7.179174064495422 2.5011300063547592 6.842682320327568 -0.48384896194385696 -0.42447859040534 0.17683044813091484
Ni 1.5134710369082285 7.643082577569006 9.815242038781479 -1.2567521399127517 -1.2131817115209687 0.3581510708226993
P 3.1361154253109285 2.189164071246294 4.501306005022851 -0.46838043399461265 0.15175319344731286 -0.24679273625266532
P 7.853744257079793 2.452525684213273 10.87299394452135 1.138138666442201 0.9676927816813914 1.5056770920170712
P 1.366682486664987 0.8875760343465193 7.829296678798326 -2.258317405971872 -0.5065003807947858 0.8264404877654025
Ni 2.307614672640144 7.724571437300252 1.3194798759914332 0.7989631082807401 -0.21886155706003596 0.6100063091999365
