# total energy = -340860.3174135053 ev
CRYSTAL
PRIMVEC
9.33853718688653 0.00000000000000 0.00000000000000
0.00000000000000 9.33853718688653 0.00000000000000
0.00000000000000 0.00000000000000 13.66789312681282
PRIMCOORD
 96 1
Ni 6.50262897473977 3.122862906711015 1.8772850652779132 -1.6736508610883045 0.8533002882707239 -2.8588399440510894
Ni 0.5382938351621014 8.247478639343614 10.024238085925745 -0.7422875099655668 -1.6090652638974352 -1.0388033244749721
Ni 2.623139098334611 5.027093387534775 10.993318647063395 -0.5305913603057185 0.37653137310209994 -0.31071678860013585
Ni 7.864075651664184 9.08865672581605 6.670178209542186 -1.6108727494198192 2.0668617517286147 2.988816407942943
Ni 7.3519782813559 4.150606291504273 11.839361177619088 0.7065170372341767 1.400810021598336 0.8120147992583757
Ni 1.4999278466510864 6.928634369614095 6.41596921623754 1.1013574930581096 -0.43247446412662294 -1.4822497142320665
Ni 6.820662201269648 1.9872314004090754 7.275241652596171 -0.37728290655614377 0.30892498680703573 -0.10350052908851208
Ni 2.7730693147997623 5.780283775499913 2.3085751384143127 -1.0825568154118388 -0.27227622523575046 0.31015166012528517
Ni 0.10859037951417447 2.6114285725515343 1.4648289541824304 -0.5875235547163882 -0.9311180678811513 -0.0667203841456851
Ni 2.3426281147045764 2.7306630168883173 5.926043401203723 0.31163827197314065 0.2956277554774973 -1.1158132634721234
Ni 4.20128653346979 6.847407772117122 11.865658498675822 -0.7737385293859965 2.4752020418111953 0.8432801850305606
Ni 0.2747780555772193 9.306459431429051 3.4872395584810025 0.44737092162248115 -3.4200287175276904 -3.027892548008798
Ni 7.395748005714179 2.2569470349121277 13.558960371198323 2.3186889650813938 0.497961232975523 -0.541171706924726
Ni 3.787374544408133 1.829699614575962 3.8182356086468365 0.8312528215523813 -1.3817290937074846 1.8998351770619992
Ni 3.355906105209168 0.929670999848046 1.6560700581329062 0.30046528607545675 -0.4065608295846546 -0.38982886154195445
Ni 6.972320047136609 3.6748451698578326 9.557697836016317 -0.009153641474810043 -1.0795221423505732 -1.0250756904762346
Ni 6.901431210438573 5.900713552612001 9.126475934202258 -1.2508730554241554 -0.35141838008455606 -0.5971163406111458
Ni 0.44477772256901366 5.289478270251768 12.471351359144304 0.6712605280247278 -0.6949923244240289 -1.0824429155417938
Ni 7.395187693475754 8.024306274779043 9.284422351091806 0.569156107952794 1.9988136499104416 -0.1670995939963961
Ni 2.667188978812102 8.76276045087361 4.930528242510925 -2.0592242897880144 1.8997798983440313 -0.7608904697787348
Ni 4.9157500072224725 1.5222095966657765 9.090720542560915 0.07289488838751317 0.23979007968258706 0.4798609238303865
Ni 8.850253206903634 2.3234934517623715 8.863218832100781 -0.3867283682397598 -1.8400284893170116 0.4431286014063594
Ni 5.270194190712651 5.240553673299982 2.5318539623041842 0.3349671765070683 0.32102074162930516 -0.2130719469614524
Ni 8.337212644327334 8.597206861493717 1.3782980674950374 -0.30898926438606783 0.8263031908565898 -0.2536840640558599
P 4.552070010335593 3.944850299017404 0.901730096225266 0.10378977819415675 -0.25129730899123814 0.7428022448184562
P 3.3869660802925123 6.535425917762231 9.577379737244716 0.5845331046294965 0.30681154000845867 0.4587220849692422
P 5.840536018205185 7.859042180055668 -0.16051264694153297 -0.3667336702853878 -1.4707980207516993 -0.7717950325063805
P 5.978092672738457 8.578221615148426 7.368115273822532 -1.3495645931597984 -0.3493113610438823 1.3520703903007878
P 4.22574416267703 3.3270313478556806 10.197177524461809 -0.9196023539320679 -0.5824191436102872 0.6807563833303051
P 2.949623701127395 0.3972576416282121 9.251387275368014 -0.6891289236647163 0.22268478746086812 -0.40238021584440375
P 1.3433018989367596 1.5166998596546 3.967474773351264 3.3242443261365135 1.6702894008152394 1.0925190688308732
P 0.276524362053643 7.933647754601921 7.769500548940473 -1.153787942943684 1.3114793562523026 0.8137433519137082
Ni 1.382682510760711 6.322852793041195 8.736667643783903 -0.2222988648763591 -0.7389296492369274 1.3490056353325348
Ni 3.8650898518776433 8.576139121328946 6.886417644009982 -0.025166471963298593 -0.6882714607604276 0.6303735600023789
Ni 8.290557311941168 4.7411660522666335 0.6513377631180217 -0.7427708773598884 -1.1901536260569117 -0.05940816675498801
Ni 7.182194334575899 6.666044039076343 1.4439993467189909 -1.5512264985120963 0.0031403454011945916 1.2096495299979941
Ni 7.20472822509788 2.8840111380078595 3.7841471459148064 -0.26779582086689363 -1.712660666692599 4.249977218446351
Ni 2.4245644410368863 3.1303524136312926 2.6197520108533334 -0.9090214930924281 0.6024308108455237 -1.0999271883694863
Ni 0.5258436972243038 3.3837162693096494 4.467474068578228 -2.0850224817980414 -0.8014989873287164 -0.6014825879996415
Ni 0.9956935247553628 0.951186055949825 10.535034597987154 0.6545319024161372 -1.211325117928204 -3.389416391958472
Ni 2.581610622930031 8.585066762994515 11.34219145919617 -0.3248270027492729 0.34182199464537255 -1.0968817166749432
Ni 4.907466724631093 0.07628464355406585 12.091738883757818 0.3175698069662273 0.0758215751160049 -0.21469508438717216
Ni 7.3836545999015115 9.474413024896863 12.615615885025251 -0.07715906298050583 -1.3210410317988086 0.8686240631119878
Ni 7.1906270337641915 6.820316675389286 6.6939597286483945 0.8722665449605816 -0.4050076261649218 0.9315021906934473
Ni 5.031977442546376 3.5450488398267437 6.280123381738925 0.27165941758735795 2.1291523822377205 -1.4972932388287505
Ni 0.471956601547536 6.468795454076223 1.1693454936879557 1.1857470123487837 0.48959306351648585 1.174596652158919
Ni 5.254654864633672 2.052638515707856 13.785983948548333 -2.982542402008773 0.862093975302954 -0.8838899881321229
Ni 1.9612422510834753 5.148625112049098 4.42857532527932 1.5210674584302126 0.8946739661215044 0.5380192773386734
Ni 6.478937105591711 5.109197807538611 5.063845201106783 -0.280149200225924 0.2271942452954474 -0.8918079574276189
Ni 3.339488956623324 5.521195396452316 0.10863240293205632 -0.9441365916280063 0.8060380128496505 -1.12502758298154
Ni 3.962602858438161 3.5278472541071046 12.362609695325755 -0.4099796254582165 0.026370262463412647 0.42974935188597607
Ni 4.818180969438113 4.146021069686497 8.3773113896702 -0.3443930978066585 0.11150822988433699 0.6757612441085588
Ni 3.8433964297132994 7.0431435140734955 4.235898888144747 0.13090488924339394 -3.4650942424077615 0.5645972849375179
Ni 5.820336762009974 2.4153659817894133 11.298591696216882 0.3576263086674809 -1.358413558909996 0.4262364536367111
Ni 5.137895132683264 5.270250221936494 10.817741071738082 0.42813572754195295 -2.5826674690847264 -1.8894132103977268
Ni 5.918241987137389 8.032514849071966 5.174117451189963 -0.8792175223571181 0.3298745924755093 0.21137321910279083
P 4.360611318465862 8.923448662316519 3.493527195649859 1.2269363421028998 2.585808585816869 0.16090940602528417
P 7.116413677784835 6.908715269538095 3.7345604466679485 0.7277574346701917 -0.6929398127703744 -0.08358887776624958
P 1.6997538679479598 7.82335962900532 2.866977645959747 0.6154542196883852 -1.1386282044841098 -0.6796433527717843
P 5.736822222872767 1.876905920663246 5.15204395055722 0.2736450805588191 -0.05469559177066709 -0.4714804130761751
P 6.869222595266458 0.44161382612937533 10.629492968994525 -1.0745390873136849 0.024882107953660373 -0.9584468376030914
P 2.6724839294652156 0.9808639275117216 13.243286993045944 -0.16891787815205747 1.034559461596954 -0.9529847860472554
P 0.6212695406966893 4.440213010471402 2.477319705992036 0.24209275967383465 1.5531088031364735 -0.4932951949584214
P 3.519274476859206 5.798895480352921 6.1928267349923525 0.30429854377861787 -0.2728786347064397 -0.5422736817396532
Ni 0.23993503903077731 1.0478399170780912 12.529234414934772 0.6110203522867477 0.08034645956955194 2.2065006784108965
Ni 3.169620963007559 8.288941744987044 13.536640333180673 0.173861595310578 -1.017004483432326 1.1912525155480451
Ni 5.759346774857442 5.554309849743218 13.32428292867143 0.3732892120157184 -0.07422312028063346 0.28294476069319013
Ni 1.8126474454532362 3.481976358854733 13.71354398080359 1.3421788422186884 -0.17898657524196915 0.1643955648016717
Ni 8.839625951448179 5.959947894750804 10.302816926186946 0.5215914707999534 -0.38766502112141626 0.5337432756711388
Ni 8.929303925208055 8.002173941361267 5.369691636450923 1.7221590931013373 -1.815691198123228 -2.1289970876067787
Ni 4.806507797804264 6.480842167202355 7.858286692387526 0.49108070380560587 -0.4311205212018897 -0.4455415817232262
Ni 4.719995588191486 8.340854673877095 9.326081566018683 -0.03477597002860462 0.7783642010834659 0.8809869555527151
Ni 1.8424373794628177 2.2717579550811546 8.352175782654468 0.7243903179701718 0.9332878218389603 1.3650151233869137
Ni 7.79308409105577 4.761916282162962 3.0431295413294452 1.028779364580067 2.699205805193803 -0.8636497498258481
Ni 8.273271679385767 1.1135552041080052 4.619624989215001 -1.3541259872782356 1.0676868402785418 2.7740408480268224
Ni 4.173849910861592 7.591222268625953 1.9080648842420451 0.6868159592608235 0.1310864091265807 -1.3605421752172244
Ni 4.246485054036051 1.5944431827360315 6.8346709410839965 -0.6055667853713441 -1.4189527539456337 -0.06948432004406743
Ni 6.613253287679426 9.097752461153144 3.2369536846990594 0.280653136445536 0.1483192280650994 0.1175202404063718
Ni 3.9533110138176175 4.246316960364524 4.191478267736165 1.4941539218688202 -0.22027129292336906 0.357014900335727
Ni 8.998679918862345 4.25272319695718 7.798476162496877 -0.72612247016993 2.0686682088097346 -1.3911179911215525
Ni 1.8810428926902818 0.6808148561278162 6.815385927691149 -0.9342005634612169 -1.7203580353368566 0.2955220831375685
Ni 1.6537522331732892 2.79379152908417 11.25272173481824 0.8274730427949749 2.715705602621039 1.1041664232618147
Ni 8.282796987438985 2.095829250753096 11.00221640540958 -0.7976965828634908 0.274466805129166 0.40481016544213505
Ni 0.1489711486837142 6.47280168658096 3.785322867761768 -0.8636965439033836 -0.4884710340969007 -1.17312289582687
Ni 8.31190520822515 6.987289722439856 13.075991766458278 -0.7105518694251827 0.8281736684064254 -1.469485729698179
Ni 0.9695176046836207 0.23846235169745097 0.8594330592003137 1.4622527022848493 -0.3115698806290505 1.3535022376513077
Ni 2.0710447727401085 4.591413268010316 7.329585402747256 0.40902600329569555 -0.17524793413514336 -0.3146503193265871
Ni 5.938030347691089 0.19624936150826236 0.9978395206285295 0.17298999133890208 -0.2744035559913984 1.4746703592229118
P 9.669308298495599 5.122374483678899 5.6870870408827265 -1.4027764012960873 0.6233698749910361 2.5567237526357713
P 8.961839389185918 1.4837161458859973 6.950861956112403 1.582793988905732 0.709588734180965 -1.1734723087464884
P 6.725362428050908 4.81329691442651 7.265729418495181 -0.1679169476913689 -1.239687214010665 -0.05670439467057976
P 6.844895705581518 6.3634380761777605 11.384617368035961 1.4304175600521234 0.2282622815486456 0.058293336424254445
P 0.5193328690138085 4.010593601659239 9.801259962937163 0.6964696803005037 1.0018797119757454 0.17417706966846777
P 1.4511620048335205 7.0100103837079795 12.930852219631658 1.1805140460846184 1.5252822678425086 -0.09898927148171985
P 9.240305233145705 3.304348040736786 12.83692614525079 -1.098980765295817 -1.7619566847142494 0.1277573447533477
P 7.762817891643527 1.303118172904399 2.0684169083418964 -0.16187536948297926 -0.7611031000101731 -0.0753052976012187
