# total energy = -340875.36155728553 ev
CRYSTAL
PRIMVEC
9.20055587513576 0.00000000000000 0.00000000000000
0.00000000000000 9.20055587513576 0.00000000000000
0.00000000000000 0.00000000000000 13.46594352970079
PRIMCOORD
 96 1
Ni 7.116538012121863 8.632302001162497 4.965674367602873 -1.6061581175529693 -0.5317432145219746 1.343105724908332
Ni 5.152936962821843 2.0407017080565404 10.661822273588154 -1.2577019054205307 -1.1567678515076143 0.2809611546042581
Ni 1.1614965826659533 0.8494422469882638 12.431153584267179 0.4962771604048808 -0.344898062467535 -0.3321299641685893
Ni 1.1425802396583868 7.895107456667722 2.0618648268240523 0.7780273865693375 0.644070083652865 0.22121925865893513
Ni 5.620564418902861 6.28552539873207 6.457135088134516 0.473923475300029 0.10783695168033687 0.22025252387029165
Ni 3.433343857541118 6.065714916828486 10.6391189817567 1.353327145526024 1.485787809292312 1.604887478370662
Ni 2.5725674456934082 9.0212371023098 5.771368891163765 0.8915745012605742 -0.4278490495394696 -0.7489173565772586
Ni 5.056128713247128 8.142289592485465 1.1790392826720462 0.29100928286887945 2.2554956202523604 0.15747801174623202
Ni 1.911820320483588 5.626489576926631 1.9536524881647659 -0.4249123355086489 2.2488997122023977 -2.4433288472516823
Ni 6.433755555441653 6.806920903712026 12.6575424636661 0.3577314667867775 -0.2115917628715001 -0.1927088099240681
Ni 8.879143716410551 6.117182826743042 12.516473099642699 1.843082445651987 1.4967913594916673 0.9782900975812635
Ni 5.055328264880563 8.950954055502992 6.713620826116292 -0.692995091488342 -1.7265489946389165 -0.9034887361996568
Ni 6.064776460122857 3.3587825522233565 7.634436385789963 0.6636701172719797 1.3188671640759413 0.061538068613797244
Ni 5.688363315606536 1.2655180680956937 8.221052791699897 0.5446658361209136 -0.37355095031753727 2.014514605585466
Ni -0.2625893867907345 3.578455025787877 2.179113031469589 -0.034336825608656994 -0.012816692148694055 -0.21659024452735604
Ni 7.697580721244841 8.481339279339467 0.9249861716801541 0.7375348257719299 -0.2998281667120901 1.6416408838406114
Ni 3.0785612200339347 6.451687438963903 6.696869373920827 0.15227692716126676 0.3967582416719361 -0.9015408684446667
Ni 1.261276611808491 4.727264041815974 11.012084677963228 -0.3803016387778096 0.5744132425866753 1.579142508196074
Ni 7.532495146057698 4.467412740472249 -0.08641346147649091 1.7434591401306943 0.8826975104859186 1.354464601564577
Ni 6.007061372726717 6.140791453278749 1.6577248869343832 1.0054615157897329 -0.7391042271415786 0.36962384734898923
Ni 8.798215626384017 1.428570320420641 8.839826060667102 0.31617884015597164 0.6863212790125922 -2.081914275186363
Ni 0.8283628532797837 5.93871044266679 7.645397008078345 -0.05382038825456537 -0.4375043132410465 -0.3787327516287929
Ni 2.263870392877324 6.081181051359478 12.809573370033478 -0.2607013759139575 0.8507104160563607 0.47905282610679434
Ni 7.60616399744952 5.125224888337996 10.826201246079295 -0.5297354400633264 -0.852126836787913 0.6902715219095918
P 6.975070264026366 2.9902450835895618 9.59374445568953 -0.21467965776820447 -1.1609075847076007 0.47313080419540443
P 7.542698562592422 0.3334060658419207 7.114758624603544 -0.02353022191145625 0.1434521297807852 -0.1599421570160084
P 1.4658877753032722 6.497993836997504 5.181708941349695 -0.7060426687009196 0.12477357953467545 0.284632175697942
P 2.1440791545706532 3.60264328734765 2.301747241560957 -0.3173564054038406 -1.3743867944098007 0.5031852003786237
P 9.325039459367119 3.144400398322916 12.065297157633584 -0.9726575818858345 -0.4311693721619542 0.3327683690835366
P 5.32072750145462 2.3059905379593473 3.772012641379307 1.0783265793805752 0.029290264323685044 0.22754365821506617
P 6.726646053157057 8.268981247745284 2.8580119334885663 -0.24852257445957845 -1.1877979813405415 0.08935380527448482
P 4.650761419195392 7.575314533390975 5.01710087501571 -0.32399242266311945 -1.4005097167490976 0.7965069334307637
Ni 8.689465055202387 6.233707867691889 1.722495880679017 -0.5548453477570766 -0.6441618720357228 -0.2151961923933068
Ni 6.099112934881728 1.8749260911740833 5.83603223840393 0.37510569639916685 -0.8539878012560519 -1.054100359843359
Ni 4.031582405711344 1.6287284148416563 1.7875364507126204 1.1995674631716438 1.7952635263964951 -0.6275558880479256
Ni 7.539193150780222 0.8039951808792294 10.501483265209187 -0.9979595509857329 1.22576880415736 0.8645550352489367
Ni 4.9450412008573625 4.36953722640878 3.3808813675297147 1.1841012492152445 0.375481848791663 -1.4659198667237916
Ni 3.505301405528558 2.0752037928222866 9.096083624861626 -0.3295146380329293 0.184060904441083 -0.2191047834190936
Ni 4.848554970740462 0.08090232846990907 3.8022705096910694 0.6890332786271166 1.08791756550312 -0.302357360891847
Ni 3.101783423220266 9.09442752479287 10.822323211751627 0.7001916092367813 0.9861419895255145 -2.222951367767752
Ni 2.73414760906835 5.012794094781351 3.8520675986473694 0.2762439516342468 -0.030905174219288713 2.543988821567606
Ni 7.49863710020758 5.966882544947514 8.695430695672282 -0.7944531362255286 1.7891322166877768 0.09585766783127361
Ni 1.8088660995426014 0.5211765317486425 7.918298377963866 0.1427180798282381 -0.0015226072921135068 0.1294056789900481
Ni 4.175561905577787 7.678314757111648 12.499829293951702 -0.9813162860020972 -1.1297666403284221 -0.9623541430772974
Ni 0.20951137958711064 9.137274513793958 5.850036404596447 -0.6239581433943382 0.578279667520617 1.5277492413257623
Ni 8.483703822215412 2.5201058757375985 6.5181899773359815 0.5734987011922058 -0.18462886112941107 0.6402152286831491
Ni 1.4197469872765476 2.4903052750559316 10.41920637368221 0.04586616640449521 -0.9425795315535316 -0.20390570708115208
Ni 3.942475021456343 4.217231223418871 1.199464516853368 -0.04307626236418388 -0.6612347683576096 -0.4006012695671101
Ni 1.5642233171636173 2.9090041746611517 8.0135425330292 -0.5014836443064847 -0.14389821617926832 -1.160348369770021
Ni 0.9225765460801144 3.0508859477738377 4.282654536579475 -0.3681464914725144 0.11744336442184936 -0.8962875904655274
Ni 6.474238001566796 8.239088641504242 8.70229891067965 0.7947554979572957 0.0374728001344774 -0.40276485287733216
Ni 7.608491738101716 3.7499809901312924 4.658260792340075 -2.7617926267870887 -1.7180458422639122 1.3333859265174068
Ni -0.10439318788961655 8.14942922389299 8.504214621566954 0.13172507115184412 0.17972293918736146 -0.6704346896893227
Ni 6.800480514555753 2.948741375755354 11.758111756158037 2.7259113395094476 -0.4303561322320395 -0.10405357337850467
Ni 5.123798802167678 4.420581910750209 9.779816498970183 0.8527148480808991 -0.006932208343459029 -0.30842902100722364
Ni 1.2970667744054918 7.80552164350397 11.093756172909515 -1.0554561025403046 -2.541805954983674 1.0524643669018325
P 5.830125481492034 6.44017754348605 10.489080915805394 -0.2395669079281874 0.9413196910045014 -0.06363017525613558
P 0.26326378754095564 6.070784423150066 9.750824627155424 -0.1679370022960269 1.1360455313585982 -0.049667028207824135
P 4.064419189852396 6.237811315640028 0.5585298687994299 -0.04287905875171325 0.08638958043983831 1.0041469107433676
P 7.574293271681907 9.170092896823137 12.493810290257368 -0.21169666388048058 -0.2837729130214403 -2.436964338486235
P 5.8547093669571195 3.3284391187413744 0.06304220928397135 -2.934000745654644 -0.9871627174805451 1.0645770910049663
P 1.0111042953110503 0.3750717034606295 10.03742010449837 -0.47692215291703677 0.11865486823144725 0.034684952976695105
P 1.1988048369926467 7.942297108071325 13.482102727176901 -0.6070505690057223 -0.44624452132752185 -2.1123849329713944
P 4.142016678629544 4.22994639172454 7.739820473554052 -1.3894940823648845 0.6652580305843897 -1.4869288648752907
Ni 7.972336923207368 1.3860269497654918 4.323725818284619 0.8868786384468016 1.1068442272042938 -1.4013633229986446
Ni 2.421761133321316 7.445954716909269 8.86310898752262 -0.37495348709201876 0.41033546613573846 -0.16302208149291278
Ni 8.396556156375109 1.7800315572343752 0.1148045369885281 -0.040732187612039526 0.18423753922826333 -0.11143161101013067
Ni 4.738847541741327 6.689337798830363 8.461083335387396 -0.5185277442729651 -0.36951611812653135 1.7167968003481593
Ni 6.684535108630971 2.514539539395392 1.7272626887102525 0.043279636624241585 -0.01729092586996377 2.713944654065874
Ni 1.1250163783736378 0.4425853829302415 3.6036479880560286 0.3716485910885019 1.293920521432933 0.44495279909929175
Ni 5.696330997048439 8.67684189245609 10.974569411127941 -0.4318054630840563 1.2084184858043705e-05 0.47610197100858653
Ni 5.856052648124 0.9011291301341329 0.029093997985664657 0.8164047007959552 0.9268304962493908 -0.31940351774085635
Ni 8.756399099647934 3.8870140702648985 8.870084849034457 0.7295669770751049 0.46205320622500423 -0.349934596450178
Ni 8.135361573864504 6.627620469601397 6.363950937543596 0.3027193722169561 1.279148762440397 -1.2181220862453797
Ni 3.156499129380771 2.663882963373416 12.690520936368591 -0.3315524943985645 -1.0733545800872806 0.27588708251546035
Ni 8.042095538325738 7.7758774522732415 10.680742296818096 -0.4624023620343069 -1.3768298566336545 0.5905985940972861
Ni 6.5700249894324445 6.277677324517355 4.345015904724069 0.12617637341947302 0.1296329645095058 -1.2651352217701244
Ni 9.016830036015723 5.233092206149625 4.257284923637323 2.5667677671353344 2.7287318396773776 -0.5620182113564322
Ni 4.64842447798726 4.596294128045201 12.33827857235576 0.2691039981553559 1.2969066006444505 -0.43495686422884444
Ni 3.830817074598451 2.0217945656049117 6.651355143753449 -0.5135937973064574 0.1463101680548706 1.1706325253048484
Ni 9.0600174455865 7.754145739148789 4.02021695896171 -0.0845926364404156 -1.8176724902193144 0.13713132976907996
Ni 2.5065902590653635 4.862944640226763 9.061691026711538 -0.11642623601124466 -0.5471726617031673 -2.50123677531206
Ni 4.906178052577228 4.166839778549006 5.566807410671046 0.02229300707024548 -0.5320190938911805 1.3097094088360732
Ni 3.9491638256229287 7.137377271320373 2.918878211293311 -1.007089795421775 -0.977665062402755 0.9131321728266919
Ni 3.2367463782679273 1.9097961981773308 4.422377859269216 -0.13610931626246883 0.1829026224669237 -1.6901110635268572
Ni 1.4823751715433302 1.7812000278384417 1.460220232845752 0.2933114486394949 -0.6279073578500735 -0.38802754666715755
Ni 1.2466661289796899 4.10187465307409 0.13648104677735423 -0.3476851382943689 -0.5627584319565663 0.28146200550007655
Ni 2.490121263937181 4.136284732280461 6.112057197030243 -0.22057416887576853 0.13511249956683827 0.19598259557933345
P 7.194025094227761 4.775438152704893 2.8426203234606686 0.3440593686163235 -0.15485780051456555 -1.2175045072660386
P 3.0595068686873055 9.269284090385673 2.5959644594425524 -1.9687677383676545 -1.9438509205213168 0.3535791351813007
P 3.330159622701693 3.6763397404072835 10.749539453840994 -0.5090629993156395 -0.39539401433455773 0.6301928114501405
P 8.698757616699293 1.104554341968566 2.21354519201021 -0.43334375410545367 0.34057423828120054 0.4791870376918134
P 1.6324270383285444 2.0217393622692863 5.926281411650778 -0.38045230542306085 -1.2900278712467461 1.5779240624079405
P 3.8629454159323138 9.094445925904745 8.669980117837879 0.9495793599101323 0.019393574035263376 -0.46125924956879916
P 4.070528358994918 0.5580937624479909 12.494914356969874 -0.0032136218412912396 1.785545527777783 0.9143503615045092
P 7.571514703788774 4.763072605524849 7.03218547517538 0.8701307295645015 -1.6165870261957773 -2.3673998000235357
