# total energy = -340860.54393439816 ev
CRYSTAL
PRIMVEC
9.41194548492969 0.00000000000000 0.00000000000000
0.00000000000000 9.41194548492969 0.00000000000000
0.00000000000000 0.00000000000000 13.77533359122412
PRIMCOORD
 96 1
Ni 3.305776371117481 5.4235205349740205 8.0774556929355 1.1403529004847006 0.15099343246315286 -0.8845571894024765
Ni 2.4166016629229494 8.467616590954558 12.038415458984515 -1.7603867691239683 1.9816798184436322 -0.975357754425817
Ni 2.5919462038358465 5.1457552053217706 3.1844573374130714 0.4542316532980564 -0.36859540608447483 1.3288098771109502
Ni 6.583947506674172 4.114714245641458 13.023558126221682 0.04044576671987228 -1.2701043928499416 -0.5046288748036857
Ni 7.127515583504152 0.16045107867239422 7.706293747696193 0.11668848853369582 0.4750892134733559 -0.029314946914033385
Ni 5.374700774710188 4.412291720147259 1.1664647346092027 -0.6579496698484345 -0.5705244490552304 0.8628377954475139
Ni 8.256572541524074 5.77720261540477 7.408649448378771 -0.058956681039866204 1.0347733773799728 0.5055647563543939
Ni 5.80661494446289 5.734180613444874 7.667874186987311 -0.22578810897654017 -0.7393471963903202 -0.7394271576986362
Ni 1.8338893055960956 5.297099285723241 9.810337883976091 -1.3303422545950767 -1.1077919358295438 0.8496146118890207
Ni 3.944282740174429 9.322616525769876 10.166085886399882 0.09778059588559934 0.07571847387923733 0.17713101009046914
Ni 6.292525444393656 0.23515274731284366 2.478775091176434 1.3961925774309825 0.17944654559752324 -0.2923154032748127
Ni 1.130496985650607 4.134375799370231 7.421832760158519 -0.11158973385454976 -0.01048264469887872 -0.48003344485250876
Ni 7.234247043190264 3.536434914550244 10.66493216394904 -1.0028058233344408 1.510079334849825 -1.19569718158296
Ni 0.8133059583370562 6.775075879852819 4.398077800357314 0.2636913117802168 -0.5543177573883808 0.15467962306548846
Ni 0.23620406160269716 7.415728172437848 13.28078470884333 -1.1731342086807797 3.494946549882503 1.8248502389146768
Ni 7.398400781143128 9.29102062540248 4.752573072861862 1.3066783353192335 0.17129203481118888 1.7232556685996256
Ni 2.2208332007120926 0.342676692793097 4.942851547380046 -0.5048618167500983 -0.50158623132262 -0.8216196693379915
Ni 0.41809931644341913 7.722350526375602 2.1342263624634454 -0.978225048671283 0.5178350890813146 -0.9936745504571339
Ni 3.256335422463941 6.399332199642155 12.066447996861863 0.24963509079746687 -3.181321586496637 0.7029632584446475
Ni 8.79453109895609 2.0685573377260615 3.516415706900124 -1.010354582215976 0.0957674221103125 0.7507772926041328
Ni 3.983794086537947 1.0966610423021441 7.630762886674936 -0.7856054560269115 -2.145428493689925 -0.12488053742618492
Ni 6.26655788731482 6.444076587591694 0.02460094262147775 -0.20865864838510514 0.44609925399890915 0.008953866759178126
Ni 0.014575338489410223 1.7345556349146831 8.037713753912165 -1.303589926201897 1.2299329628373785 -1.8101018769609083
Ni 7.661191705825306 7.173991769388634 4.05471403555742 -0.48223482337920176 -1.3304042181812634 -0.2437812031198511
P 3.7348857811712013 3.7524578830436854 9.379114551008305 -0.899345917675877 -1.3555827743294202 -0.49330882180517627
P 8.500548987554355 1.5225798028996391 5.864021222422634 0.17830883244865423 0.31459349794672276 0.37883688130682497
P 0.16912795104317255 3.7582274055117266 9.338766482707742 -0.36486422117681677 -0.219955304344847 0.5624128756916894
P 1.5792208897066071 1.6034378249599022 11.697379268256965 0.7064082795704544 -0.8694517012196058 -1.63799094579285
P 1.9131378850102982 5.286586142824706 5.5022128684210765 -1.0365692929381307 -0.5516073004357532 0.49645456652300957
P 2.0406603318610146 6.509301368510984 1.6728217445066431 0.948672788935463 -0.3320106649819056 -1.5159167674672087
P 7.676184934685975 0.3276335806223464 9.839335146246544 -0.9201494846847895 -0.4563762104448849 -0.47186427877815507
P 4.196089924693143 9.244770326205165 5.6452142005098676 0.3565870687696891 0.33892384716197116 0.5140766504801468
Ni 0.22524196891341908 0.45044534885111387 12.628591488933157 -2.4610496615702133 -1.0859573564529557 0.5846516324852318
Ni 6.3678021828918485 6.047805454684785 11.530449947635544 1.3123355336050109 0.6336360328037345 -1.3328791620843174
Ni 5.268985805116325 5.665802830850552 3.854255601004271 1.367241184503955 0.7007176569435803 -0.6026596390268781
Ni 1.9840004211634492 3.5698473203602696 11.864212587036338 2.030886104964954 1.7318362111797851 -0.00914489972406167
Ni 2.837155614700243 8.028304632197157 3.0203111290164477 -1.6542079218723449 -0.4087730067446251 0.9673320559078632
Ni 2.230894570236295 4.310454472016419 0.7295509395138844 2.987262947412894 0.8882600921753605 -0.0960967804252732
Ni 7.197022799534306 4.06599801677591 3.919867212875334 -0.06194893089897074 -0.002029885945835214 0.199344827183347
Ni 5.611166488392186 0.284335808665202 13.791037322899859 1.7783186710120404 1.130762171472472 0.775914968212025
Ni 9.13201522152795 3.8523374465524163 12.137501595504576 0.32433232250104144 -0.19866477039718686 -0.11729963975513347
Ni 5.011249095059494 8.133887834556838 3.932623222338525 0.22776682996946582 1.3690952069935582 -2.227997157721776
Ni 4.114535418680784 2.435284374340668 0.4972236581796802 -0.36669767484112975 -0.9086083168144095 -0.5371800692668296
Ni 4.378766370993649 3.2516012139787462 7.2798366238276175 -0.4289096295935001 0.7733047842826876 0.7762083310827277
Ni 0.39154727756154184 8.595722578413787 6.4301186727138715 -0.022422333559258156 0.8191920337331053 -0.13166670711008294
Ni 8.843068500860966 1.9453737976579992 10.719510152346555 1.775664006998013 0.025805391098878135 -0.4380779263563294
Ni 3.997083753299569 5.067476056273324 5.696802955080548 0.25973566956657845 -0.0756865922000374 0.36707768388836776
Ni 1.283064618940895 6.551702182081172 7.519954172285472 -0.7174748217972611 0.37258987195584864 -0.24395063881817988
Ni 4.407868105856917 6.409553572236433 1.9263701389055983 -0.639623360735421 1.0951801606028042 -0.9390671475248987
Ni 8.185295879777785 3.723422031797508 6.508335702923349 -0.4494938815027549 -1.5355085735562073 -0.4197942975557931
Ni 6.901148887127552 2.4260136082215484 8.289692235835314 2.2005056371697265 2.592884004606412 -2.364723795853269
Ni 2.4765463425297254 7.576917147621652 9.458295364416358 0.6417890009281721 0.7534137017857153 -1.1826460048259568
Ni 5.559598440101163 1.4470677657689803 9.424160121207398 -1.2071144222809664 -1.571954989308699 1.838755536141859
Ni 0.8902796705725874 5.873035042435103 12.053678810675253 1.012123758301257 -0.9637649073818951 -2.6794376214279403
Ni 0.5891548338837447 0.2100153238093458 9.584932147214476 0.16914464945088287 -2.441553757629131 1.9647228788743194
Ni 4.140935925243355 -0.15446790504607494 1.7056477861245667 -0.6916069528915637 1.405226919719109 0.6295356374821158
P 7.157266742593024 7.790728308969922 6.612118400147408 1.1001938117673116 -1.7019044566173593 -0.18717553881066473
P 4.269794868326471 6.963907738378609 10.397291263854495 2.226100197809379 0.854689712419083 -1.004601996002915
P 3.8868510499623787 0.7120588391764384 12.692908958325663 -0.7413169185221814 -1.6015244754356999 -0.18094344185802386
P 6.008134105251192 3.7326080904089403 6.044919752256234 0.9741547352566513 0.4966348008546157 -0.5093085396675422
P 9.345092251142932 8.654697827654807 4.010991784867308 0.6769920311918664 1.4930694305553898 0.11375511693698474
P 8.926025386722815 4.244326144348463 2.3105779815232927 -0.608129661002514 -0.32602513682243206 2.1757924506937623
P 3.997902592540547 4.317381663756187 13.05991176493752 0.6623999923103043 0.28175459703983086 -0.4273767378887414
P 2.4350114279270088 2.363094753900415 2.040595389438454 -0.7569188867254965 0.5957073760787611 -0.6131456261598666
Ni 5.970053374573061 1.4804236999072147 4.3842751825769195 -1.1396065092369791 0.9116103368655268 0.7445109999794468
Ni 5.378145546689475 7.080578212300041 5.713443274368471 0.20671000929916658 -0.5818735555194624 1.7894913997994086
Ni 6.226387704780401 7.818314720640116 9.580027582519376 -0.7420548251294704 -0.2106628232993275 -0.23025385805737764
Ni 8.619864218104691 7.7431697493761025 8.745146621974342 -0.9553401736533095 0.40475385828290295 -0.8449835408749126
Ni 4.9218638505587 4.555814474005593 10.907557054634442 -1.0072597453407364 -0.25659018195906136 0.31243299996029417
Ni 4.3858629777487925 2.2408241725263167 11.347223843729601 -0.8244633094343736 0.8996649915781925 -0.0732828678545512
Ni 0.5187544242447549 2.974833550528148 0.9102433477454455 -1.2233810206514737 -2.5548640737192128 -0.5273096042306531
Ni 1.0508154567526689 0.7892104371781131 2.5682864557442286 0.8371637877201775 -0.8453303826913698 2.1625075606593986
Ni 1.9584375777324545 2.1178288713642264 9.38755894833021 1.6153446691482438 0.9670065542476444 0.6729823958118409
Ni 4.924998028343134 3.4875680945599186 4.045870571754857 -1.4901360589586787 -0.41585742439523216 -0.19305642307147397
Ni 2.783780472911889 7.510929999133175 5.827737232102006 0.040710076124852466 -0.534991289145627 -0.44653145644032133
Ni 1.960141139831501 2.138412795732262 6.364424235724181 -0.12432929290840523 -0.33059501558130167 0.9900894042090367
Ni 5.201822163465525 7.994751047207651 12.320946997735977 0.19636851816384246 0.28177773696828246 -2.023065066258639
Ni 3.5353148930597107 7.810860459963625 0.07183573129702608 -0.7460006971510958 -0.7347446646213024 2.1879553113085413
Ni 7.926740330479975 7.789796526385362 11.358409940716985 1.3351365906599264 0.8892134572275654 -0.4231848112945809
Ni 9.469075806561374 4.2288905540587605 4.5369745831013875 1.8462261334872914 0.4866486361761812 -0.48878907955795176
Ni 6.783076033356628 1.4340792812569139 11.64393071329528 -1.2157520433513063 -1.2619547671596136 0.5816354713667273
Ni 0.18481295788328758 5.334634123574053 0.5373910171305106 0.352987781454205 0.14240594790445796 1.8745332079621004
Ni 2.393175331074737 2.8713586239153517 4.153139453517517 0.011552994944922039 -0.08089539009448649 -0.0940373267930832
Ni 1.8367128891856752 0.49289322214779485 0.5025602311639857 1.4858700845934731 -0.18501735481708137 -0.6835244329937454
Ni 7.480444708311014 2.875161049815985 1.424493214970291 -0.8756251770201694 -0.3485541711628836 -0.22918067959785693
Ni 4.2702560536461025 7.636664176377158 7.749492694227701 -0.030816471160224342 1.2728156211335175 0.745157118203878
Ni 7.285495085341135 5.772214284396512 2.0610240167090628 0.7624788973117771 -1.405573247314934 0.4949486714014444
Ni 8.513198642035672 0.48538060741045314 1.4381998309086403 -0.6907314922651459 -0.33166562293766105 -1.5911945542646015
P 7.489282524946399 8.714313089176132 13.25961253789413 0.3881507025085831 0.2562191717728877 0.19879101156240603
P 6.277503979697091 7.592531564872028 1.80470662800326 -0.7445554800641371 1.2731449794484784 1.3048626222667332
P 8.16927674887957 2.250913777886415 13.09583716014227 -0.4518958060760282 -0.5924202206870571 1.4041367719787234
P 8.194510174225114 5.598460362239078 12.820647879918248 -1.5982306351757765 1.8858396341138555 -0.6898714582576958
P 0.6085415588097987 7.3103332089841375 10.195179150512383 -0.7919491388567522 -1.388975747967569 2.2180197347940895
P 4.6869793436868665 1.8752548051834377 2.5574043645899884 1.2007249738148549 -0.03789086150850249 0.2786682448050233
P 6.943352049846468 5.319264416901441 9.40346984185749 0.3062260998186339 0.26609992122170945 0.19032951105861415
P 2.054881781207197 9.337732109919425 8.086630457212573 0.706183565154158 0.5171691733625415 -1.3874533977857717
