# total energy = -381179.8936238802 ev
CRYSTAL
PRIMVEC
9.13478363157287 0.00000000000000 0.00000000000000

0.00000000000000 9.13478363157287 0.00000000000000

0.00000000000000 0.00000000000000 13.36967920289776

PRIMCOORD
 96 1
Ni 5.899709022059603 8.739439151280846 13.12235300812771 -0.8996462225251152 0.7129897894427141 0.20450168879393815
Ni 2.7701596185121073 0.022196610290458062 4.958599784703176 -0.8387349888620393 1.3480021337686847 -0.07224028552264979
Ni 7.992049439463611 2.14299279160072 7.063442066728576 0.3045726233756109 0.28902670522121193 -0.04285386194073265
Ni 2.156914201569302 1.4505122630650789 1.7804670354090224 -1.1124443469998906 -0.6311484904951904 -0.12305865372609773
Ni 6.831630494228104 7.391592719342339 11.509247994108705 0.4110728585223953 -0.5898552881733583 0.4464784917151988
Ni 3.3141085682490945 8.41657936523782 2.61604486007251 -0.20479145212021502 -0.8705030253022557 0.7690838042228045
Ni 1.1317905339221628 4.22851866055554 3.5145814391884014 0.01470413897939403 1.1298414594304156 1.6191087641763664
Ni 7.253730567606221 6.370150369423112 0.3512735299454379 -1.3165125478008357 -0.45387349862768933 0.7940551294561615
Ni 4.279335460854243 6.482371184032058 3.6602967642512847 -0.5493791824361829 0.3077103976736442 -0.8852668138749915
Ni 4.9721631111607545 4.1705493248202234 4.4901662627406465 -0.14930884567187835 0.39266761654233023 1.0078940364906255
Ni 1.1560799230996301 2.1134509019429806 8.381505450726422 -1.3788872533833156 1.390667019627063 -0.2488226221985005
Ni 3.5534307596971835 4.5371281844260025 0.2255158797509002 0.4641013470032846 0.6098456152523561 1.2006236723503
Ni 1.5070108986659199 0.14387466619892691 11.961384148928879 -0.5312737310847238 -1.4857222461616995 0.1253201960667648
Ni 2.3222537819048266 4.229496082384043 7.829631162873462 0.3018112585803899 -0.7194000638444319 -0.8293651176113652
Ni 1.6989783727405632 4.761706835395553 11.952211912872807 0.20652848941597982 -0.3953539051252417 0.822052643110352
Ni 8.007825210471315 1.608406994893783 9.565042705901883 0.02714287896337906 0.47168018779180704 0.608843656350403
Ni 5.866851206011709 2.7075498127872626 2.8887327615279768 0.8029521748354752 0.29823793940683474 -1.6926834522397234
Ni 3.193474618088269 1.739600754715816 7.502047780311568 0.815612543911963 -0.13178472074518593 -0.24073341743246282
Ni 2.332402526311057 0.5571222209415102 9.709020595153726 -0.052737953823664016 -1.0913296765084624 -0.19239205001459767
Ni 5.184866543653168 3.2987986711970314 6.942794414392584 -0.09439908100787613 -1.4636781218774666 -1.0250875175507763
Ni 5.540209619622887 5.155315519211984 2.335281810052591 0.8409014003857389 -1.205458888955414 -1.2741711067201476
Ni 6.152861275641835 2.203784775420218 11.908867365431258 0.37039697806958793 0.8097874525897536 0.021345298444995497
Ni 7.414183038799231 0.7100147453563063 3.5841967103364123 1.201355665420318 -1.4109535377902411 -0.04513160223131582
Ni 8.136707870082029 4.259165859009999 1.8732928778097702 -1.5509786441673483 1.8201739164849298 -0.286803472317648
P 2.9099492095548984 5.093902370118298 4.558552905515446 -0.18821400737750812 -0.5408266648804815 0.15107262244052044
Ni 2.9648401232696044 6.576112331733889 8.669060212236921 0.21670928660372352 -0.45819860836560444 -0.04556817554810216
P 8.016603737360953 7.685842363638908 4.323927819714237 -0.6844163486803955 0.8776216386249079 -0.2842192565302396
Ni 7.260673003023625 9.075325138514946 6.48948169946483 -0.5390826856061812 0.16348513717226038 -1.4406567212816286
P 6.3465278194370525 5.463879369165227 7.609700289720194 -0.8773290470851536 0.18338059054460676 0.3602524334364183
P 4.2490627885209875 0.9318392591175056 11.974339098809091 0.012472935656030132 0.3648652496180813 0.13392413568569195
P 5.044848583024278 5.944049260896544 12.479953929823536 1.119351358532369 0.29163508937833643 1.400478606400846
Ni 2.3912670708238815 2.0418890084430634 12.850587719800085 0.1674729181754148 1.213918332576677 0.26874070127866617
Ni 7.98187329070705 0.5404019133257012 12.185526157249809 0.36127598960492624 0.41205347726810965 -0.16229677329111403
Ni 1.6204101003391354 7.190335170505197 3.8802687439300505 1.2617521642305045 -2.6663656187353304 0.6270398676434555
Ni 1.4079259026493764 3.5819221492588684 1.4404895786703753 0.5490079151396932 0.8102389383048756 -2.595557437673517
Ni 0.49755703853853483 8.076728881989043 5.811130853960293 0.2908575877823636 0.7009182029901607 -0.25298626665788687
Ni 3.9856978470484186 3.444315771459181 11.700260883313454 0.47227874060775443 -2.0333268531959625 -1.1582197534627923
Ni 1.7988854992670622 6.98876703903096 10.674939904343926 -2.057549987409385 1.0370542029943495 -0.43258964954824847
Ni 4.344165018955969 1.838932389885346 9.687054181406054 -0.5088333998033366 1.0147781652049683 0.9238865831297186
Ni 2.7460985989207383 7.098055588154397 12.71127587793141 -0.41647628892615374 -1.4593105889373899 0.6546388603076467
Ni 4.126081199015067 5.383182692221358 6.854166004984333 0.6017468974046217 -0.4694844656920689 -0.734725895568225
Ni 5.805712100421341 0.33777414697196617 2.057780791200506 -1.7735760141207326 0.43833015157645155 -0.6472045155167887
Ni 7.240503401179378 1.910759192105138 0.7131214852055942 -0.7724421791720761 -0.9407183099750767 0.6010604128605584
Ni 1.6618363432574559 5.901727809200716 6.230578186226286 -0.5150402999449968 0.060412953870418534 0.0917647287088226
Ni 3.8742991629494283 1.3865505093905297 3.050786560258712 1.5998766554196318 0.521281138648386 1.7816407934067382
Ni 7.1096933022619915 4.393474579986419 5.833739442984073 0.09411780232203146 -1.3283581342855122 0.5186627271889325
Ni 8.643112859864376 5.66120896112147 4.63506676512033 0.5223730861609842 0.0772487944808347 -0.05341801060982414
Ni 8.873126706983077 2.250627944920802 2.355390208847761 0.05964676512835533 -2.327194431449244 -0.1757834949236392
Ni 5.939472734391124 0.38377600291736214 10.532138575199664 0.39861380682343606 -1.9853852923196775 0.24557197647168674
Ni 0.686377579716737 3.3671542557081215 5.966928239510265 0.03217992716665426 0.7931033070658534 0.26440170758368015
Ni 7.47248122673853 8.142645479320597 8.729384495144087 -1.9485346991502315 0.40740877940724674 1.5807291359569033
Ni 1.0423244648721004 5.01429273240426 9.636931624649094 0.4935638752387759 -1.1065601203049718 0.5082176205962086
Ni 8.818318006319368 3.2572993500111593 13.005168352195323 0.5803550619924069 -1.2298455453298949 0.006420301704047007
Ni 6.046788170290668 1.1373170779057535 8.3207664486509 -0.26830849883725405 -0.47299993504449506 -2.0035519359263754
Ni 4.602377942566148 2.178682390516239 0.6047025674660211 0.2227963733380679 0.07552229870803122 0.45665466091725226
Ni 8.907957636254865 6.614624578733589 2.232455206737405 0.1675081422887244 0.466539524131132 0.31210621274849476
P 4.937213429704196 1.072588002421912 6.308950974262014 0.018091310284072067 -0.12475326781970127 -0.9704631453376771
Ni 3.1700164942042015 2.43271158330909 5.236128207905591 0.7459171362983541 1.1546832010644437 -0.0662331600966214
P -0.11251952202756296 9.02655452970769 10.419525878380973 0.7926885881259381 -0.9685168202445835 -0.17583157455275525
Ni 4.411397025103452 6.9269245551154075 1.0428186566564184 1.24356803712231 -0.632379277578498 0.18335410818204553
P 0.6318474899480678 1.1485894006755897 6.083564808436017 0.5569431108263698 0.1250556295514685 0.6621061152189694
P 4.393227940833432 8.663757470447706 8.781405259900703 -0.696186087621814 0.4109813272498535 0.7097257739794616
P 2.7451029075253475 3.385268531277478 9.732270445975272 -0.9367359282885609 -0.3443074800713877 0.9463978768583572
Ni 4.633847271530563 4.345224653835467 9.00528053254507 -0.7869054057852577 0.38968487976492244 0.14522490541049182
Ni 7.846532339201461 8.667877257780928 1.231700400883695 0.9847641353413814 0.45216345791511803 0.013644330256311983
Ni 2.283558839236248 5.829133685171633 1.9191239133047642 -0.19122991138569645 0.7282048066202556 -0.2577502637054335
Ni 6.443502680478043 2.061821105917766 5.060811617092583 -0.43422949914451664 0.7925656893948285 1.0510464035083833
Ni 5.618549522438215 6.747919338747731 9.68681393660148 0.3060952306677244 -0.9277131559646603 -2.1733725283983603
Ni 6.17564342555105 6.499453229072246 5.208011344465108 -0.3707029393457809 0.16293132155131937 -1.0693354316255583
Ni 6.389844962528271 7.319619760587444 2.6894446720013505 0.7435949159230807 -0.03022743142597375 0.24705498877511645
Ni 8.1979931322075 6.298195680235105 9.876930703550379 0.07669523597020984 0.1598143731888925 -0.8044146183136146
Ni 0.1144222974189381 0.04091743548049253 8.047477478444822 1.497904132939872 0.30205937003545397 -0.4445367946077957
Ni 7.878440137771184 6.823062067357678 6.825395091049262 -0.36245381196311127 -0.33118662641871344 -0.294787261854073
Ni 3.7797632890879727 5.530563288306073 10.881568705846112 -0.9276182822580088 0.5576781892201815 -0.5973670231693712
Ni 9.016908198390876 7.549323025069051 12.762909327870004 0.6853943963229486 -0.8498264707895105 -0.7107033074013825
Ni 2.4538951461156135 8.500856877291717 7.425573200275495 0.05954083567811037 0.3346905258069139 0.013024694394442085
Ni 1.130228485953247 1.9551907787765186 4.078246905510814 1.0073425348625296 -0.2307608796007832 1.158376590755631
Ni 5.210352589461793 8.70754962227801 4.495340204083301 0.14364856206230742 0.8860867386731256 0.5521824562129328
Ni 8.471260178933314 5.20188464520925 11.882863377401359 -0.2905274581364545 1.359201087808298 -0.15520284255881012
Ni 0.6922749959081522 9.02026979869825 3.299489260825394 -1.4551587715525456 0.42554508399664137 -0.9630925639052188
Ni 3.503609650793871 3.6553109994475754 2.619561751698432 0.03163382485519713 0.24761677481585742 0.2134275305286582
Ni 6.2254462648874735 4.684225602223955 10.894616830517453 -0.784882461817958 0.38226647581366424 0.5616824252835682
Ni 3.598099850738107 7.2351869572149985 5.696178739101605 -0.3010085601734364 -0.07755989796335029 -0.20774025033589386
Ni 6.788021038066678 3.5354626406629306 8.59019231893853 1.2228120355218812 0.3017678069369642 1.3100693632786533
Ni 0.9169678316707524 2.2788178866288367 10.901635998115786 -0.23409611462160326 0.9771557268665042 -0.3741680150762459
Ni 6.374681222011311 3.9993543482971257 0.1447881445433221 -0.9284253515403367 1.0448575010888521 -0.1971943564992475
Ni 3.4854497013072954 8.953384914321637 0.41260172555309593 0.8843486729360963 1.8581989895784512 -0.998669432568564
Ni 4.02074801112286 7.8563705009705975 10.803208706507206 -0.5058905151249288 2.0975278133539037 0.9465416015250729
P 7.955619923089132 3.510259773141068 10.704500063568553 0.9397518322967492 -1.2411923378012817 -0.24563316872692534
Ni 1.3314312260897256 8.310122598982007 1.0985974713218758 -0.2807570090132519 -0.24564705268399634 0.10402143458898858
P 0.42090615718199237 1.1869920302739625 0.4361694668384911 -0.4317902935754047 -0.41238180714180594 -0.6210407126372273
Ni 8.792749747459748 4.91186440564723 7.740415386889764 0.26739627143562983 -1.4319867043114565 -0.4337013945551885
P 0.568943544196328 6.9595174624434275 8.11038142419656 1.1134779304707276 -0.39925529706217694 0.3470922419053764
P 0.42344288654437773 5.423585839393955 0.46633982959717457 0.4149845348719757 0.14987217437451608 -0.1450950647008469
P 8.048639422898892 3.4470470717089228 3.9565825517775113 -0.21939351830410606 0.2746935764279914 0.8954722936530836
Ni 5.338668892498982 7.478245275091664 7.2534382545360145 0.645187742197076 0.6496036118765844 0.2847044236967742
