# total energy = -340865.44097626465 ev
CRYSTAL
PRIMVEC
9.25258611168784 0.00000000000000 0.00000000000000
0.00000000000000 9.25258611168784 0.00000000000000
0.00000000000000 0.00000000000000 13.54209504018888
PRIMCOORD
 96 1
Ni 9.187707093557187 3.8000556690897813 8.969484847365344 -0.10629917487957176 -0.4853319742472867 0.44336668555909453
Ni 1.3737592350579424 1.0754188447162083 5.805347401376912 0.6794721173012427 -1.524844666084458 -0.0873822833704108
Ni 8.023731746050979 3.8891858322259285 2.4938986047908576 -0.012957845712248653 0.4382913279187161 0.963620668494547
Ni 1.124383531035786 2.097653823792785 11.944561423177314 0.17629051646704477 -0.6124851097577323 -0.7541107278527399
Ni 1.8671256379174497 8.238336231027601 9.774318284648515 0.22451926956644558 -0.15327502940847795 0.3402297104575882
Ni 7.419667401557415 0.49988577511588933 8.782481752366033 0.0012009622866366414 2.901936775240564 -1.097699327480232
Ni 3.875862108057336 1.3936893057934623 0.09011648882807201 1.1288063332976817 -1.6917316298494154 -2.4346714286870004
Ni 4.447126034371968 2.4981705238524126 4.461917218716351 -1.3401934363575436 -1.069256755868823 -0.9988594370921831
Ni 6.884951190844131 5.929519884335081 5.088036027743426 0.17399323579243584 -0.19375782001387276 -0.5177751823776567
Ni 1.8384148628513786 5.20020328007052 9.591351167761943 1.9669209149669027 0.777950253474499 0.6065486896686393
Ni 0.2335722867444094 6.545529317649237 8.964948304337662 -1.0606057650620444 -0.10682882213079667 -1.7055117143526433
Ni 4.7421910091889234 5.994130693966526 13.135182368503461 2.1465996311798903 -1.719375102598297 0.6094676630876471
Ni 4.206281214852202 4.4385951498695775 9.115739552615707 -3.6671438701167816 -4.562517947629104 0.4331717473039637
Ni 7.03988574723516 0.8872193903175933 6.2566237894843875 -0.18635741378474358 -1.3453706096831088 0.47620070136997994
Ni 0.7068846342129392 3.981535895369485 3.8626799484580348 1.610305821172756 -0.4590743261023384 -2.701853013008663
Ni 0.6741795176721587 1.23274056835411 9.560949019933359 -0.35175365193678776 -0.21725153226043878 0.19054574083447828
Ni 0.28822916411156896 6.01194192245579 5.440401343812935 0.34906350669913433 0.8124107491452138 -0.7905823404162127
Ni 3.501715278748047 3.6161050022871506 6.6066602296002594 0.7872982703483021 0.9547655320967623 0.031101863611127076
Ni 4.083443880086762 2.67851268202605 1.8214659753985813 1.6951038887557581 -0.12244210318802137 2.5873247653510796
Ni 7.378909759222243 6.114904702003081 2.481778642090553 -1.1262964223916343 -2.276255221397215 -0.6589613989424007
Ni 4.832977385259916 7.0069835506077185 5.621919505696174 -0.829544580612023 0.6334342012055736 0.21882144785071994
Ni 7.119846597419172 7.578534307095425 8.798299048523123 0.477760589657932 -2.89474385703655 -0.06901226550365534
Ni 2.1094231134750414 2.2784863690365156 7.821955046621119 0.44087914325055044 -0.01824609069438148 0.358970224289885
Ni 6.0459636820168425 7.809663911075593 3.4807785266309006 -1.041784004369851 0.43223972240799746 1.01470103211013
P 8.25658233106959 4.317765626315654 4.9211027175316815 -1.2042895512376615 0.34972119488779124 0.7347783460727152
P 5.120760574715286 5.81255794182454 1.6747375377333333 0.5914267464255363 1.593872615317397 1.1084447389221943
P 8.685115862228175 0.2806142856457692 3.8433142854824345 1.3883376001629382 4.996996586669949 0.5262374542123969
P 2.304069769957459 1.9792207200719623 4.192158992492117 -0.04484158179472277 1.3291338361092722 -1.7826296396825683
P 4.208982970030833 2.2890898328540206 8.750130084619169 0.09792920564832167 -0.5915810126152133 -0.6317501286349313
P 0.7584890833834191 4.05841563433951 11.042224232221484 -2.1735211381610826 0.17291697200912157 0.6099278905535174
P 6.768091026782101 7.854141093074499 1.4564523739551383 0.9584218979024267 0.40269646153324196 -1.9576148070746284
P 3.266792114414322 2.847844262588141 12.052316117132182 1.8155009364892927 -1.6494832627031657 0.9175994645694262
Ni 8.696783373461923 2.607887691346281 0.7776141791170863 -0.7154271952396131 1.5500571607943434 -2.1437246236249403
Ni 8.331306217448446 5.195021831782734 7.184785873861718 -1.153969977047503 -0.5057136232274323 0.3304816299318889
Ni 6.4220165440891375 7.266870192585098 11.849617860113996 -0.25228846925991394 -1.2871186680197508 -1.0458720583962955
Ni 8.44891584099496 7.085241924925744 10.780590701964222 -1.420187140573367 0.44069890891894425 1.4124972281282768
Ni 6.361023495672915 3.068823779475985 5.745640462446408 1.1248427206642433 0.6256599565767934 0.3594703038547551
Ni 1.6326003347915368 7.959972174352527 4.375789519811252 0.9067740918191479 1.708840264505244 0.8678599312524538
Ni 5.7384169683780595 4.920886207013942 11.106495471938354 -1.4511005423227719 -0.9122220023075966 -0.8150677271520866
Ni 5.1971776843739015 8.908334504983241 12.643306557285316 0.20966189283863892 1.27492803949083 -0.00048593849748303404
Ni 7.276483629676187 0.2683666372555151 11.031553224524512 -0.01252795726368165 0.5274440729259884 0.3194410558470111
Ni 0.4550310875988735 1.6531688339768014 2.526751762711289 0.7529197928684324 0.8068198853209976 1.9450989339958051
Ni 3.3230108283368 4.818052963673847 1.5223613214343987 -1.0437645251349894 -0.31517636703338625 -1.2122998231366475
Ni 5.469934673794692 0.30745326251787775 1.6932223545000098 -0.9598773994020308 1.367237327849213 0.7126069521819985
Ni 3.4067004707707715 0.7037979714472152 11.189535582819106 0.07478413499042605 0.5089526989900203 -0.5896102620420878
Ni 8.032225620208457 8.60527529566513 12.985271041175718 0.6478318646881424 0.011874382840082775 0.8678951553657633
Ni 2.4282672348984433 2.9687107964869774 10.080898103026453 0.43037207307163944 -1.0058834338185 -0.4257636277653506
Ni 5.46468845740331 2.2653014336613455 11.93785792445499 0.012592234842713797 -0.38932981041834885 0.7555335763421956
Ni 8.984760867228083 8.402088502094093 5.740074106571528 -0.8931493019468618 0.17559400462065244 1.603290051976555
Ni 1.2872383012381448 3.713220147338225 5.960471635785619 -0.7735300129196161 -0.7063288324827707 1.6873304154579263
Ni 6.516763027065796 4.631196984795565 0.6226157798810829 1.2907950884300738 -1.8719682754484017 -0.7879510734409527
Ni 2.58213774387323 4.8016481282912675 12.053520803859094 0.5468965252236453 -0.04339970714187364 0.30578669828837013
Ni 1.4872977206640527 7.713575803095847 7.354576382700728 1.9420418923370357 -0.22097448963798072 -2.0258624264981173
Ni 3.0120499103798157 4.476928614612966 3.677207231220867 0.4357569915326367 -1.4232855769930328 0.9609415790004869
Ni 6.577719065137107 2.8892495859592877 9.969447000873421 -0.13306538722982245 -0.28881433210008967 -1.6733783241532083
Ni 4.2635084606735525 6.8467657674803934 10.24643704849361 -1.0413649145545614 1.7301297700116398 0.738556839278541
P 6.845664709719239 7.761957576483049 6.276598272633802 0.11702453171687588 0.5891055544915274 0.8505013853693482
P 2.3530622140357207 8.051711566805023 2.132176148268782 -1.2816604731186572 -3.173919380495295 1.4596402043626668
P 5.775029452083005 0.5342267489018138 4.422997140006096 0.1051429497879415 0.571703556964996 0.6943554621709783
P 7.304842806465587 2.900648772192417 7.831881221126721 0.030587385868553772 -0.044455659210213765 0.19160683510914098
P 3.3509073758147907 6.916965139193666 12.164985784891469 -2.815841586112692 2.6228383848766565 -0.874918380761132
P 1.928368506161834 5.26018779658787 7.534145024665687 -0.700195208781207 -0.06559681206420316 -1.6880251275321057
P 6.052986394964038 2.2362020499736905 0.6930048296120326 0.15428650139212782 0.29869533865922754 -0.04859564952051631
P 0.2947059744713015 8.969688404262364 11.158293300161004 -0.7288720078906092 -0.0628984392964336 -0.06981650657250557
Ni 1.2840831693343322 6.678655528300423 11.442420792797614 0.2582642272273746 -0.22984556687536548 0.9290614424624386
Ni 1.796491394651453 8.806796623715092 12.681630769442476 0.9002923407495462 -0.6375340823065602 0.6637562492278827
Ni 3.759575604341453 6.517975115861689 7.846411482539469 -1.0707094291549497 0.9282412605539884 -0.43757578990893026
Ni 5.540948273096045 4.268440089133177 3.142389242059072 0.7232088960675609 0.790406991180613 -1.199353804498941
Ni 2.6396333146951982 5.79349761419447 5.536008317308815 0.5201035734005172 0.9529264220054944 0.43564771964828203
Ni 5.469388771207229 4.880544931059037 6.974517150791626 1.454827613465372 0.7881590756867006 2.153527468647975
Ni 0.01740226417797834 5.170123122242677 13.131674713064355 0.38299384089799204 -0.6354646013720412 0.20843393396880877
Ni 9.225975790196978 2.009162089106383 7.288396334444981 -2.331779993937397 -0.27738706409975455 0.3085375215606299
Ni 3.824528759663342 9.219091866043206 3.795592221493303 -0.8821794331989193 0.566161029880212 -0.3914969932729967
Ni -0.14826806801361864 7.2554247434208285 1.1625032610373027 0.21148763319346803 0.05273872515461239 -0.099753403341254
Ni 1.1167779051562143 6.269163819599451 3.0638986278267195 0.5054146039297748 -1.3236715274431203 -1.6449573498083543
Ni 4.527466240591336 1.491507647397879 6.6143787370318154 -0.02361532542609481 -1.0665288154146988 0.36177401228726724
Ni 7.992115658909256 2.6307600845023646 11.859178557463583 0.06920098447569371 0.9627287528078969 0.1021311595448112
Ni 8.476682852265755 2.205612999903297 4.825319019638844 0.8674660382481448 -0.4224566748793047 0.11091610482629286
Ni 5.44127941424599 8.67650170444973 7.794856997334621 -0.8702106908728173 0.03880694556486865 -0.3828614290851858
Ni 4.038661362742325 7.9650981071229445 0.8482632265210481 -0.6347156390211585 -0.9232368653608616 0.4250069521049842
Ni 2.178854520531374 2.771464163274439 0.5418777124539034 -2.334659629478037 2.16834910704184 -0.06561018180064185
Ni 6.583594457392007 2.169185567922916 3.352968852026431 0.2986284899770341 -0.8608441620562528 -1.4754527459148912
Ni 3.8191807648234484 6.802085028584468 3.3332515907741596 -0.20225840128571618 -0.5626249917024956 -0.7367984618265375
Ni 8.385424594297124 7.731313010895286 3.5677324814861775 0.3207800863734089 -4.01394840557841 -0.27926036986306746
Ni 2.129251405762051 6.39860750093182 0.3437243257910024 -1.3065770338546787 0.8668818836099005 0.8153916861504087
Ni 3.214820337570583 0.2326516544147046 8.405672953998895 0.5082800984030278 0.3422811936699783 -0.4271347970812644
Ni 7.751446638527826 0.5001726052889631 1.6139600745762266 1.5335501642782556 0.6012712433197839 0.354841289723176
Ni 2.3110924829046544 0.7140007982810396 1.6487636776735604 0.5039781285935643 0.7445392821142209 -0.34371124124828545
P 5.471914727247524 5.786928277972456 8.972802824786772 6.289830302796606 4.159817886551436 -0.9277684346826279
P 0.4349566765181941 0.9318279590409393 0.015659076932587484 -0.8810969987680181 -0.711839992108987 2.238263315534474
P -0.017456854436724657 8.73925274424931 8.342092882473269 -0.26579910215183905 0.1591011491719518 -0.2992596958031298
P 5.255505987956406 9.006273130208623 10.423147566572682 -0.026775725431947433 -0.11895954395605965 -0.9389463056763185
P 0.9990479979887342 4.483886559456564 1.6335968383283128 -0.35464640010355053 -0.1118195904771687 -0.31349692244843425
P 4.875243199150285 4.579326986400336 5.059029169918053 -1.8454895124315829 1.5899650527328746 -0.2523589174865331
P 7.398978618751184 5.286141300957941 12.152608600294018 0.6896452011795026 0.37697026041173143 0.8675277447240156
P 3.19501055045603 8.85876840055883 5.894779198824099 0.022830624741270355 -0.7891911164956408 1.5968113862307467
