# total energy = -340871.26104092505 ev
CRYSTAL
PRIMVEC
9.16607180983656 0.00000000000000 0.00000000000000

0.00000000000000 9.16607180983656 0.00000000000000

0.00000000000000 0.00000000000000 13.41547261443244

PRIMCOORD
 96 1
Ni 4.945773904318084 7.842115031125436 0.7599525780806329 0.3123183287593008 1.483944071215354 -0.168543011311142
Ni 5.635108317159032 1.4677630413964626 3.8091892784114836 0.05648122291618014 0.4945786896565353 -0.20461070356797662
Ni 5.276669088196261 5.151148904040368 5.439035046871641 -1.1484151086675447 -1.74600633203258 1.02403465080623
Ni 3.378082350604728 2.5961981130652223 3.7036896277909563 -0.08385678671565558 -2.502792292724638 1.107450750440041
Ni 1.0622743670362758 2.3023980208533894 9.952147457643754 0.12761567696916087 -0.994810720944106 -0.4393017714611015
Ni 8.699087727012035 0.5503410200761203 10.373741836369378 -0.7431542288412362 0.823046631592505 -0.5939901362773383
Ni 0.5029350144944157 0.061620749381102846 1.756313724416965 1.6693620039049637 1.8244620023373224 -0.7218739793062213
Ni 2.5762619073883517 3.4694222538553103 1.3939074196762853 -0.32194608165705196 1.9579310527634668 -0.3448816074073028
Ni 6.632303576008741 5.841427422253599 3.7925006118938382 1.2298144349816433 -0.17825586772353172 -1.935636503031324
Ni 2.59663808450085 8.351354469649532 -0.06251260814540607 -1.185637483354113 0.8546395759074379 0.3313781736042293
Ni 3.728886241945048 0.07200865829769944 4.195756431218215 1.1792755456918271 1.662040787653202 0.721875521968118
Ni 6.128976253650892 0.2086564533463378 7.905361841604046 0.22332807747182185 -0.7723349641702505 -0.5581001072489485
Ni 6.3691089967877454 -0.11474638362596488 11.011527179276463 -2.1830725292949436 1.188382907309734 0.3226269097741605
Ni 3.508130574118954 6.263112545087823 12.772066462689768 -0.8721978965061753 -0.39372871081699284 -0.1276727554593414
Ni 7.944050913117381 7.84337078293129 11.931627526711187 -0.22967150319134638 -2.3409542042374976 0.2638787452006746
Ni 2.74491762437889 0.9267356666482818 7.789049892952973 -1.1825015088282924 0.1312378471027804 -0.26926443499262015
Ni 4.6960534503131806 4.0258852931367555 12.667290931723711 -0.5763693378717817 -0.5336280902495132 0.015450787337431455
Ni 8.284387150718397 1.4984052186736023 7.464515962748245 -1.1494566625581817 -0.12927918071451286 2.06058671735318
Ni 6.497058189911166 2.4006766402866804 6.0545505022787145 -0.5901802756129448 0.36453100620711415 0.12297483576303983
Ni 7.862051236802307 3.0206697216584204 10.808510609770577 0.935880265156485 -0.5150618972115517 -0.05020181766537161
Ni 1.282764218786678 1.197033951340346 11.917916916848446 0.324303526145635 -0.4902378961893364 -0.13696060851917058
Ni 3.4189446976886315 5.83736685254562 7.832167093644467 0.6336234343982443 0.47302178942136597 -0.5489840038802932
Ni 3.975609390544739 9.051715666595893 9.755007256624966 0.16180389281509552 -0.43997308649651323 1.0016259440937267
Ni 3.446736226705768 7.099562406716713 4.867334330202964 1.353344886137837 -3.068484610498548 1.0076520956831485
P 1.4850410863164172 5.7804547141328895 8.841319492864512 -1.07089069192782 -1.0752998767391093 -0.165695771670334
P 4.3916207150736835 3.654622730039758 9.833192013950287 0.4654028394235275 1.6052065522729773 -0.6662509906252784
P 7.077123863499711 4.053887641800131 7.2524039004179155 2.079503094641709 1.3540329133437972 0.3202810352498032
P 2.259766621955401 3.717245331044071 12.615520959464876 1.835826278310206 1.3142780020433622 -0.6064931538403555
P 7.755193174374281 0.9273406273722695 3.5485135356594553 1.3668007545324268 0.7148985764296526 -0.630309796643979
P 1.7392345832502003 8.167703059561356 4.865603775889495 -1.2588828131025092 0.7580316601737009 -0.0746568653839424
P 6.748474367157551 1.4940605007467809 9.567672918977724 0.8984236629719237 -0.10456753690044572 -0.3406287456682199
P 6.929742598636078 6.813370153912606 1.7311189434771883 -1.1124222355127036 -0.6252457518575103 -1.0067668648647177
Ni 4.715091380975645 7.076711390278811 2.8992715198900623 -0.9959836582062845 -0.5407914407671719 0.35070901272235727
Ni 4.629287784956709 1.851913101128716 8.711913810967733 0.6963318691710588 1.2133197797607296 -0.019394859586844018
Ni 0.5485948834409737 9.261215398527185 6.415426073066273 1.2617714475042143 -1.7578372632292372 0.45679838558396807
Ni 8.785752933759074 8.227475012305666 4.2774160462778354 2.3498491927342817 -0.46501820239059916 -1.370536053205143
Ni 5.8730595352609 6.25545887532222 12.765546635978064 0.09221904263742182 0.7096234440736423 0.29704391909873357
Ni 7.878650992425669 5.225128267726815 13.327627560528176 0.45970013261179543 -0.3086074555666169 -0.30453945614483036
Ni 1.5535941356301257 6.5409911709728865 6.298430335475662 -0.22943136215608229 -0.6056467466796601 -0.2173122102950451
Ni 8.047810843352865 1.271224134673032 12.546176878174196 1.1758346383310783 -0.5221157187345394 -0.06655429088146601
Ni 0.06774185197927032 7.576803089370483 9.904911940993355 -0.02638491775143198 -0.27204482595123464 -0.6033245263043867
Ni -0.03735999113487693 3.4407782801816458 8.435662162787334 -0.5048497325652402 1.5365370148207214 -1.1613073912491805
Ni 4.999807896256086 4.053374341791899 7.501529476377565 -0.25117929535613515 -0.3521035790770387 1.6228389206427598
Ni 6.079726951075339 6.397679641888806 7.3860488904183965 -0.9854773593583219 -0.20185628075129108 0.6238524710544094
Ni 6.045225857664884 0.9206768933368282 13.349548220701159 -2.5693851501535234 -0.10791048523074964 -0.5800547571431688
Ni 0.3131386700219764 3.2329009429192315 12.827847507870073 -0.17880505535878238 1.2239060399170083 -2.1565307742506734
Ni 8.931346814665472 5.109159130152668 10.30673143690184 0.18564958908444157 0.07539271510870241 1.2059286295029812
Ni 4.626959602776514 5.639003897578651 10.783343327045525 0.07367624663822796 0.049367751799850465 -1.2935276568698886
Ni 4.012695316139507 8.205274786949628 7.075803032585672 0.9926612787012711 -0.2955259397923104 -0.4032219950194088
Ni 5.665750494436172 2.361784998591525 11.238140883446507 -0.5975822245039708 -0.36852290097532664 0.17887961735045968
Ni 7.53529911727629 3.284854236609578 3.995771998189527 0.49615374745313906 0.287633167307795 -0.629454133511903
Ni 8.805716637650672 1.9796606406774733 5.288392493741418 0.9814502404768 0.9304058723054751 -0.11989336862423867
Ni 7.290161699059173 0.1195686538818737 5.5645772295993154 -1.7621896266606618 -0.0028197288369822405 2.018072241029737
Ni 6.58994715925802 4.618911791933161 9.40891472607449 -0.5460737722120337 -0.05396488425222964 -0.6089596131029771
Ni 0.4851170879586599 4.724981572205689 1.5996609781546391 0.1710251543030474 0.16953699979329512 0.5201675938692332
Ni 2.047452906050409 4.4151958511660565 10.330543974248021 0.684045595604538 0.8357594511734832 2.909106039295493
P 3.0768760725598323 4.73644832774673 5.634780171796628 -1.4537593201018575 1.2939511175605523 0.13324047935510602
P 6.694385378790096 2.9965996177009666 13.329170210374345 -0.896630832737559 1.1655859640198765 -0.6244129715435698
P 8.781004908682927 5.225293257015176 3.851058976761542 -0.4193397265168778 0.1553293408343454 0.2401927144376444
P 4.90609398046743 0.8922648212740253 5.968757905545668 -0.5508146293311288 -0.4796763186234062 0.8083826018224272
P 7.0423477879419885 5.763030012067726 11.150887214904314 0.9612130874943188 0.6583556470376016 -0.06843942371932084
P 4.3276873658340635 8.336193787263534 11.955748044062307 0.3044697792491595 -0.27065257358939837 0.3865465912462569
P 1.106830640965135 2.189692004760147 2.1109380343899837 -0.5348485929201756 0.07877628686895466 1.437510462343163
P 2.6810851019266018 6.346688785713895 1.5990303524302398 -0.03435456622046986 -0.46386300574023337 -0.6627134097856651
Ni 0.2959440363533595 4.525445360077046 6.06818045071159 -1.3657211483150027 -0.640736905514574 0.35425584953335115
Ni 4.6420286244467555 5.296678622445736 1.2073375323984477 -0.019506188353727697 0.6407471899272191 1.0199052020188886
Ni 1.8994941786775141 7.72854740430409 8.312883550639695 0.5211111887294251 1.357979556696371 -0.8538584747670391
Ni 3.681671807259273 2.7554677727623744 6.170258406812955 -0.9057006562493112 -1.2522653077859918 -0.014577640703858766
Ni 6.580863582326628 8.269281464761853 3.5025383538506976 -1.104159481283279 -0.13297899816360323 0.1677714232524401
Ni 3.0569215347398107 1.160415495395933 1.9457131779901822 -1.5758949477930537 -1.0777141426075567 0.1493268433940073
Ni 7.513630524071636 -0.07402519404432543 1.4551230286937478 -1.1335543895056284 -0.3337423029610317 -0.45217451365871164
Ni 1.65544752297789 6.124796525012431 3.5871494439576517 -0.6029360326167165 0.34503715914856065 -0.14162227566089805
Ni 2.4292747836024673 8.229445717694412 2.6677869652847606 -0.6358595228176146 -1.383938442653978 -0.9148198449417599
Ni 8.579397164378205 5.9869571406589674 8.165689273636202 -0.1401696023747715 -0.9807920380675108 -1.8008585039857694
Ni 2.5929808219421964 3.654338581820915 8.364010064673925 0.1320999379927596 -1.5980802256408413 -1.834034476517106
Ni 4.751434854772792 2.954527349169087 1.6333472078020266 2.092439343087403 -0.9694876687982852 -0.10613513849788173
Ni 1.4246183424902419 0.9884599926381886 4.147541061516388 0.24395269570070893 0.9720757412404355 -0.8588970656322111
Ni 1.1703423509122783 5.767869697859628 12.529715530231623 -0.6337100805747795 -0.6846822007472725 0.7557356650506727
Ni 9.055235438080913 7.0557485845854755 1.92871561486044 -0.29792863569653205 -0.9559947765181729 0.10868670127514185
Ni 7.6330736027729245 6.6930654644832135 5.738454857566458 1.8499753161170784 -0.09121605529420419 0.20919472339423328
Ni 1.2839283098767758 3.831023777511655 4.04810568385026 0.6554230467718389 -1.6488222320803991 -0.45527243585774496
Ni 3.711058232730559 4.655988551456353 3.472406726760317 -1.4775764771261133 3.911764795529108 -0.5492298013425122
Ni 3.1169959678461145 1.748290661966866 13.129561586280255 1.468626209911361 -0.6587989052226073 1.578986442234184
Ni 8.414893677811401 2.6449616138472694 1.1383509278992145 -0.8425116822956522 -1.53806527853979 2.721608598369035
Ni 6.899650385653472 4.269666132760689 1.961154342166392 -0.38227958843978677 0.8417645197169826 -1.2909490975094347
Ni 2.0992137122376686 6.932400759392993 10.71214769929658 1.848394859003836 0.5902514951705125 0.2671463602083528
Ni 6.8886236015480575 7.474711384161754 9.400986074161619 -0.03703725525895557 -1.0126526342215332 0.7215353650198799
Ni 3.165887793630219 2.414884051228818 11.056549089641361 0.5665883472256177 -0.343576258332318 -1.734175657946239
P 4.747667599355231 7.193450477865305 9.0406733001688 0.07784760440709818 -0.5857047563400946 -0.5370288884009461
P 5.022961393055983 0.6832829723867546 1.762256088619409 1.2903723990703586 -0.7286750613884547 0.9038852003071272
P 1.40418716894829 2.2699867917621646 6.689920585325635 -0.8380099377705569 0.527625335698859 0.30465489867677215
P 1.821298422066303 0.11600855168192126 9.70856277195154 -1.3250789493136081 1.2736252615190065 1.2499790828549764
P 0.38475960349202903 8.71126943613597 12.793142011063482 1.0343126356934702 -0.15347300435189698 2.1776660135673915
P 5.530468444052294 7.218116376475171 5.342913204080082 0.8886251888242631 1.5994835337462712 -0.5924220204592701
P 5.501888632879659 3.7500048708551676 3.7145294240362285 1.2287093748429228 -0.7480017867415246 -0.8046982109923043
P 8.079552949219073 8.015142964257523 7.633376999742076 -0.07425808728362694 1.0509186196812677 -0.7576691346279596
