# total energy = -381172.101707921 ev
CRYSTAL
PRIMVEC
9.15317707164570 0.00000000000000 0.00000000000000

0.00000000000000 9.15317707164570 0.00000000000000

0.00000000000000 0.00000000000000 13.39659986166510

PRIMCOORD
 96 1
Ni 2.2177873553209198 7.620633210718548 9.162376972854608 -0.5795927299050857 0.10336426062096392 0.9527302468342882
Ni 2.7639299742139865 6.845542172659574 2.9857938342932435 -0.5983018762788148 1.2255101511793347 0.9094583235195305
Ni 7.548936374380382 5.3525125344447915 13.062220803571167 -0.4530286341288907 -0.58977481264441 -1.285219137004193
Ni 2.145129435385727 9.496878915187642 2.666298525839491 0.27806120734864376 -0.2755942338653899 -0.24194235013889945
Ni 5.435760680301503 0.9155831535900003 3.429570066290465 0.6384591652239907 1.6107583353291417 2.364796558072734
Ni 2.628728395055163 3.3291386610366325 8.00528541046213 -1.2126430654086793 -1.6338779520657412 -1.3251617388354016
Ni 7.724357013780479 5.127417602844102 7.711658811169483 0.7990484689056948 -0.16777990789287234 0.1653800402021281
Ni 4.924555738454624 3.0616004471558367 2.2348479621447046 0.759657368702582 -1.9392972397123636 -1.0061230606331317
Ni 3.359701119422071 4.363539206750435 3.247523441977154 -1.6673863682358316 1.790975954764735 0.012242307702462787
Ni 7.88638655506201 5.072361242500164 3.372647373132872 0.5759209374804534 -0.7852809828079573 0.2938750344524487
Ni 4.560927471225421 8.257941473672402 12.501197864642997 0.03121499215022366 2.403799421698492 -2.237662191615365
Ni 4.6971908189295295 1.5066495657612131 12.940016735914986 0.6119804022071719 0.5740532881440952 1.6310060298345845
Ni 8.026137263246758 7.699872264999094 0.5386589812842212 -0.3138908154527433 0.3862473148382832 1.0160092093985922
Ni 8.39434211903323 2.1692938229681036 10.13677844258262 0.8470049421803154 -1.096173891974641 -0.4485088918816663
Ni 4.68097138908257 3.0792203131013203 4.6959908374098145 0.5028206179503534 -2.0450716524367167 0.5313053556536075
Ni 0.6099118885323328 4.17720798022981 6.600357847927899 -1.2136887330643742 1.5879878744018459 -0.3652784258961
Ni -0.010924316886199653 6.890411046875033 8.384409091228534 0.9131442570115499 -0.3796195251091204 -0.5013167797113174
Ni 8.277181451967158 0.34114257232963185 8.599826368666022 -0.3083302906458303 -0.2613431232630144 0.03698891851952339
Ni 6.777213705499557 3.964716973515838 5.91702374917131 -0.036779630722194714 -0.3487043235875027 -1.1042484414526597
Ni 2.4291891339582614 0.5407504822548929 0.23545998936519014 1.5650191814208145 -0.37678436965317047 -0.267022690146295
Ni 1.7686958733732867 2.3443117225751617 10.08825562006304 0.7342710674189935 -0.40387634077395607 0.4074028658699758
Ni 7.158406919611555 6.358702988291591 5.275179171639493 -0.47855917429982747 -0.4208229959306236 0.9879078231766858
Ni 1.268502203595195 8.395577797943691 6.993185665470187 -0.2025396799715609 0.5984617988954467 -0.3311184921849394
Ni 3.891619701079147 4.725345991733845 0.6749552804259427 1.3354541219003453 0.15189537545213194 -1.3329994897122655
P 2.90078827843054 2.307067444896112 3.3637788598265974 0.18323583743662636 -1.3478416969314209 0.4049757444857219
Ni 7.369460877518545 3.2767001093474515 11.70207699070523 0.7126622308999662 2.8098876825221026 2.0689551439225338
P 7.731981610316889 8.653752311636316 4.538004254459775 -0.8499897358402522 -1.367980890883457 -0.6983743535223843
Ni 3.6761172990944933 8.762693425653532 4.380045131041079 -0.8734605652686829 0.12303294269448489 0.41110319753969843
P 4.576432953257446 6.214384844726689 2.144474067904326 0.3858346527808968 0.18122420632323627 0.2468410729920975
P 0.6670030001488331 3.7817449629962474 11.307293139213565 -0.4388603130483087 0.2830092953825384 0.40508038838438626
P 2.1153358438779097 0.8723645972082918 8.430668333047691 1.1129277143942122 -0.458867609408171 -0.3825276998948509
Ni 5.734090181995601 6.173607440681428 7.43667997961228 -0.033830832506515925 0.5407742143759913 -0.7101376647058996
Ni 0.3942593744430003 1.1833227373673159 1.3332536091388512 0.20891781558376277 -0.7423705565976763 -1.5470348290282518
Ni 9.086770814570823 2.9515517987077615 4.782840758461097 -1.9182715293903156 1.2000091786947527 2.023276925159128
Ni 6.6514032860602486 7.123972667306669 2.452207543765898 0.715563206596845 -0.09080879255345652 0.1338968819921823
Ni 5.422991998226724 8.711508859229044 10.287382988189787 0.4377339127533494 0.16599042009261736 0.24817367576059193
Ni 0.4980472497447329 6.452385756058875 12.796914134270894 0.7618479485959975 -0.6309829114516036 0.9540263399378924
Ni 6.887655940563558 8.091564173261467 11.754056052903259 1.081351482249828 -1.4612021495331482 0.5043347406020346
Ni 5.37724441900827 5.168606899859519 4.020842424946755 1.9453406176929655 1.1359753402422952 -0.8300737136426155
Ni 3.7924358738660264 5.108141011840888 5.649118492888221 -1.025594539094182 1.123274604846175 0.7292134503904281
Ni 4.478466498600559 6.785488177611098 9.609930721046998 -1.5526714584887389 -1.1355403095874057 -1.9008949857850812
Ni 0.31787153483363356 3.6265803045506204 8.817454138376672 -0.21515711162525528 1.47750628600981 0.08336313490868869
Ni 7.742718287072241 2.465994059135814 7.712382827479242 -0.6146548637155415 0.7716309961246905 -0.4165320818647536
Ni 4.694151964127504 3.2531215251004046 7.139289593890134 1.8205382418028841 0.9004026410751654 -1.6485437816080317
Ni 1.0208629967614025 5.1500351034941225 3.971408861304276 1.2891282422506123 0.6681268674917525 0.6382840730987073
Ni 3.2865397747455787 4.186178093802056 9.979006959294772 1.1075872760179053 1.4155262447625878 0.9859640691867536
Ni 9.248370156527969 7.393487967444204 2.830245657726517 -0.31176657002088887 -0.327666529080597 0.7411929913498073
Ni 1.9066708651978144 5.138392262204433 1.5855948030563816 -1.6968496678022713 1.3278287441446035 0.2227182118019648
Ni 3.085215644111342 7.41787203127733 0.4101355601481643 -1.9301538826501987 -2.5636773011354683 2.3740399310478724
Ni 7.259586139435645 0.3782989795083825 2.147461664914511 -0.4129068264073405 -0.7133363741488554 -1.3883504556787445
Ni 7.611113906519431 7.985570382275131 7.080866695003468 -1.0341925651758381 -0.7098232187892743 -1.5923407520539028
Ni 3.4009453355001735 7.143670304457151 7.273134672200583 -0.07953296252932109 -0.850366916674013 -1.826262545881171
Ni 8.446002650667674 0.8076040384875212 6.018985565638693 -0.3955338823465317 -0.01923930784558622 -0.020321228055855324
Ni 5.14653858983637 3.359087856555397 11.374021631013962 -2.0399003926484225 1.525162968655825 0.14714963323703045
Ni 8.86491610766868 1.2243564303717842 3.502714935248151 -0.47484547289366613 -1.584731315137761 0.2495535868272541
Ni 1.790800796104893 5.396502703657255 8.11182839207534 0.08996649915781925 1.7074732089543885 0.6129674487107895
P 0.9867124929470656 8.182263005289412 1.0458832064039887 0.8719631547875499 0.1453650305327819 -0.8043248868132857
Ni 6.1753282379789605 1.5331663198620264 10.840327332996665 -0.6124704544697129 -0.6310870411296357 -2.3209677338132413
P 6.129388442041101 0.900342198376585 8.421356805969072 0.5278369374890329 -0.02490241966863453 -0.3777359349331624
Ni 0.6317284861848312 3.6991283863604387 0.3048676161070111 -1.1708379564474352 0.5275613152301432 -2.365981065299138
P 5.777311484330443 3.491754005653493 13.426474232797291 0.3862455150660703 -0.09071726128091473 0.16710010821702834
P 6.259711377797876 9.189698291223788 13.523734062180937 0.4221013484224149 0.07771287860144681 1.1503025554982447
P 8.802930792249036 5.390507372647233 1.338397694677221 0.19817806056875548 0.40319294155368635 1.2289996523898317
Ni 7.772337968214882 1.1951028763137246 12.277113443795754 0.18262879998024675 -0.9813031733759744 2.755854406925783
Ni 3.524952579047918 1.0233892736450145 11.062442905446572 -0.6605418560556431 -0.8355396218531933 -0.3699958859764273
Ni 8.124918350666839 5.26024850913026 10.568591472091143 0.8656899201843286 -0.0706649706157299 -0.5602138111578416
Ni 3.472001449440323 1.2757515198699083 6.3114057761876445 -0.062176730639060665 -0.1467210303400441 0.5415812836583188
Ni 4.489578455617607 -0.08597670795455549 1.753306636690616 -0.059313807268968816 -1.0787628955870452 -1.318632422357316
Ni 0.17644671055463707 6.485227355545833 5.6417767295246515 1.1450742172197699 0.7927047860758542 0.9020005816899047
Ni 2.433957939234935 2.780680288333589 1.2446764835660558 1.9154350883827849 -1.379815935845172 0.23134194891523385
Ni 1.7034794864322123 5.86135595659612 10.932992267468814 -0.009401495819558002 -1.9894440357700836 -1.2705234826652314
Ni 1.0931273300806703 1.9664502649328541 6.8213210353790865 -0.3385152988696428 -1.136236564323482 1.0852521028558146
Ni 7.032477508869759 7.122819366990236 9.361650791815187 -0.7493086784784063 -0.13383080464093727 0.09027631708875421
Ni 5.096882603990007 8.478816790623288 6.356967545910676 0.4361246592847005 -0.16844093851563893 0.5349015576452982
Ni 1.5106586573373804 0.5615098879506623 4.902740056119837 0.3757991229217657 0.06888833833128136 0.40334335108862146
Ni 2.175728506479623 7.930431643337161 11.692137555676553 1.41458239279208 1.1768661649193861 -0.21505658149164897
Ni 5.7042874373106685 5.747151765738045 11.043058306953405 2.761773343513379 -1.585160946476012 1.6996809666034793
Ni 5.70862604326296 6.785396645839953 13.754690688405775 -0.30593093717571823 -0.32791901141103524 -0.7173110425258873
Ni 4.3933236450811375 2.068059684081327 8.984858425259858 -0.272273397022273 -0.7858407119661692 1.730998545769838
Ni 5.874573144349512 4.053466178818387 9.215212772430561 0.49345434624410495 0.48258243652660754 -0.4369677240112862
Ni 6.016026343477563 1.4205090159363074 6.1424344653824505 0.27478999279653965 0.48098912389755866 0.18512071316416506
Ni 0.8863387527090553 0.10888070304826089 10.106622385261067 0.3242541609649383 1.060979089241063 -0.39607458534135015
Ni 0.7704659376629996 3.243556455015714 2.7731362397557873 0.4178531146690223 -0.20016989418780362 -1.080125837372843
Ni 6.352826648584059 4.8552204218120085 1.6510372734721852 -0.20336037610064334 -0.5576787034408138 -0.05356327793843678
Ni 0.9832983578833433 1.6873058224708257 12.4165044321199 -0.8219677967060295 0.7648103736584313 -1.7589096703578095
Ni 7.9340196887660595 2.734767951927072 1.4207094705151158 -2.4018165869405084 0.8725023151204714 0.48982369147005317
Ni 5.642787240278096 7.64345208126509 4.316558694574652 -0.24849686342796556 1.058441410420874 0.04844164044115528
Ni 0.00357797693407243 8.623382069970283 12.059847224581127 0.4433702851035203 0.13746223074593744 1.2557882333375856
P 3.895500648175711 6.376350313768418 11.70091179125855 -2.3656537638667063 -0.15777805948515405 0.9721032520442613
Ni 4.184631206869699 -0.3406986432395768 8.592324424702948 -1.5449355232970619 2.1544733775010116 -2.082083967995008
P 9.00035566943248 7.302313170206303 10.411636452201913 0.11903950526437564 -0.1584419183213981 0.9839910046207828
Ni 2.9568240287257344 3.1171419258868465 12.330257705440465 -0.715463190683871 0.39290107270937497 -0.6285169664096143
P 6.86804983518422 2.8637911365335826 3.469358011889645 -0.025492487844149644 0.2063145736329608 0.5041110546270028
P 3.9711150443188994 5.164286600261457 7.944732567260913 -0.13136923047432214 -1.0080377611573414 0.8537659150532328
P 2.3976838983300257 7.14616912180942 5.263363335302338 -0.3830365212104693 0.0234695438768499 -0.0713771661914061
Ni 2.2387847436216672 3.2659908921234435 5.272593399104637 1.0243910057043841 -0.44017517520499033 -1.0726344140918043
