# total energy = -381167.70182443253 ev
CRYSTAL
PRIMVEC
9.27664866019359 0.00000000000000 0.00000000000000
0.00000000000000 9.27664866019359 0.00000000000000
0.00000000000000 0.00000000000000 13.57731301220589
PRIMCOORD
 96 1
Ni 2.488655754996722 2.9043980317092 2.6758306906720986 0.1971665885851056 0.31304055163730604 -1.7713568949822267
Ni 4.098070770373473 4.2479535792998275 0.7802830199974552 -1.6844338106364216 0.4323230261504232 0.49596194315730713
Ni 8.816387532430117 2.556430948536114 1.7118273588801962 1.2698616807115162 -0.764550178018509 -1.2766560779255305
Ni 4.091660606297957 4.58097598182797 3.064874773159779 0.5312184523667561 0.5919779909433159 -0.5634611144505457
Ni 2.047115118958615 7.336966191713576 1.9694974014190467 -0.04758829130192449 0.8603535955730797 0.20929731041036856
Ni 0.43684015827101014 0.1977790725128904 6.131513964853803 1.7116803050572007 -1.488374853293198 0.4648227985503415
Ni 6.448708549805034 6.113738051103436 0.26121836056907455 0.08175799520509791 0.28703769981564115 -0.6307312004521137
Ni 0.6737388572765932 4.749477024183501 6.046411847348784 1.0352366901696364 0.23766686269199713 -0.8703572437530108
Ni 2.6274807989766007 5.422664848542459 9.082529937993813 -1.905235522141964 -0.7704349189340602 -4.374364618286202
Ni 3.7704752071856733 3.945414243562055 7.36581471304793 0.5140373126017792 -0.12191014194395132 -0.0865603016897477
Ni 5.578085816590496 0.6311479089357702 13.06596359754298 -0.8733168406019669 0.7462423808482568 1.6728481626813512
Ni 5.125672948574814 7.530792484324039 11.846789352303318 1.0372282666783685 0.4030996105089316 1.3661880606490922
Ni 5.728274754915537 4.390507835954608 4.926582157971796 -1.0229252197921352 0.3940742670818697 0.4108028926904603
Ni 1.48815994355176 6.676394609239858 10.652460754593982 0.3633033044476001 -0.4836802975764767 1.3672476122618582
Ni 4.3445977028001534 6.558275044589287 1.517861916543058 -0.495817704269959 -0.05038590865171967 -0.7266837419900388
Ni 7.895457534698179 2.9391112501905035 9.981348116492176 -0.31420371870747177 -0.6477141081633555 0.04672080109530663
Ni 9.359025083222164 0.11106838416750321 11.5963281932711 -1.2290814134703607 -0.607891833960095 0.7436000581294032
Ni 9.072395199567618 3.5467131700430974 7.778551355664219 -1.1908491094620395 -1.8250075904281473 -0.7688364640986888
Ni 4.214019599287907 4.165011065552812 9.932021393715418 1.0066421663613954 -0.6625848546276009 0.07929230727342473
Ni 4.245068541633423 1.3230356012302207 7.5207449463932265 0.3008491517774367 -0.11851114356473137 -0.23140442672205308
Ni 7.637084322207195 1.336329038451949 3.6498398154768106 0.5872067948069178 -0.6313536645274611 -0.3039025938917798
Ni 1.1522525033572129 8.418762550130785 13.479786535692181 -0.1735044690814754 0.24625923234669847 0.41265691518006353
Ni 1.7868773001301803 3.2811598316556605 13.79454971108597 -0.5369239873919656 -0.27742871597096735 -0.3119684016190498
Ni 6.020405691097986 3.813964135095975 8.107148796884083 1.3575342416288363 -0.7557508345593242 0.5362187337948249
P 4.323938606713071 6.112893876094938 5.742293626045667 2.133091055170494 0.9278450535568342 -0.5128911148124781
Ni 6.269214679042144 5.885708755676146 2.568935870640014 -0.35034108785997725 -0.41592478729805793 0.9875180439374348
P 6.190956872759868 4.778188251120869 10.356679457248415 -0.4897239326673952 -0.10824781396551035 -0.37411299346859445
Ni 8.747109521842631 7.022107466840803 5.1393522943718555 0.5473942907956703 -0.39279488614881386 -0.7492161187645999
P 2.839424386000208 8.082753066803342 11.89375331272113 -0.15263379628005325 -0.3163714157827519 0.07573621449105022
P 7.509502576142694 1.8977518023451827 8.026717471871136 0.0731172888109644 0.7043575676890128 -0.3548037516170212
P 0.43296437455067643 5.73355316788076 7.779378832705515 -0.5189154666296869 1.8069705304207784 1.3050402854951784
Ni 7.866755584409256 7.614375086813761 7.475165989588259 1.3299319065305355 0.21104360367751396 1.44161162899573
Ni 2.3849335487328385 6.5843517033682675 6.465353640109953 -0.5258214497209008 -0.43180983395943057 0.051332331725389015
Ni 6.064896497040351 8.341395302099231 1.418218652600454 0.2727099703390594 -0.34997496276981016 -1.4554559910779903
Ni 3.6912340761682243 6.577969369238087 10.369469172459576 2.8314777499880526 1.625100205873111 1.3733447262985317
Ni 4.489434014972411 9.359581682128866 2.6912002418158245 1.281003813371265 -0.3931358144280004 -0.04889646859038676
Ni 5.2720862909827275 0.15416583751342497 5.191421194428966 -1.0408105847129883 2.1834497101287043 -0.8943147830098727
Ni 3.4040661469038667 2.218260006120979 11.06466770058406 0.7777311954851573 0.6676486423037534 -1.777022063687804
Ni 5.567742353574287 2.885687031795574 11.679068476082016 0.9592446509140382 -0.5114284142240225 0.07888530164299318
Ni 2.381018803089036 0.42206987861683287 2.0270385963938806 -1.9749216737841924 0.8537057512392588 -0.5828994256808154
Ni 3.8538908300033854 1.959738367254875 0.7802709603544766 0.8504509917473869 -0.5674699784996228 0.2902058131309776
Ni 7.5599397137383235 4.443792904622862 11.979697749904958 -0.9910651378587448 0.20189279041618136 0.342998531451977
Ni 8.81699979122749 -0.014650610889236346 9.21222026624987 0.6492572842807594 1.0742349258097046 -0.10461561652956178
Ni 8.0884303756517 2.1472843688680525 12.670714364910419 0.14294767934054092 1.254003373523021 -0.9657904224523561
Ni 3.158550369157695 4.54104928692056 5.127634959720938 -0.9573271221763513 -1.2460805191315185 -0.37385819714531093
Ni 9.507173158889298 8.702229096665574 2.8215288034848998 0.6263706094905729 1.8542891130010841 1.5530540386391383
Ni 0.6658351528014275 4.509044849785205 9.612140291374503 0.5116451582205188 -1.3300175242658063 1.909078807147454
Ni 4.159574949564024 9.116329406603281 10.285112897489538 1.1779979645309844 0.07373538201093753 0.8345667164169627
Ni 6.046797755924097 6.990362775861908 9.367598561715061 0.5095103712657031 0.7066085685067185 1.4647045062594517
Ni 2.410370118769112 6.196012646162409 13.527769072109255 0.5451988258062481 -0.007091616739458755 -1.7921632902046167
Ni 6.215623480975204 3.6963084028676563 0.3327672946959042 0.57576641418046 -1.2634532060820112 -0.40298185398414466
Ni 8.722424360330406 7.412533769946792 1.2226938056597059 -1.0779861653220206 -2.0778506466399507 -0.6394346417633827
Ni 7.182918167635402 3.744352165164468 2.430678557544972 -0.9561400438467856 1.9371089738117926 2.2736455516885097
Ni 1.6210293792299288 5.133511716510864 1.763339660030605 -0.48620357821896265 -1.3701316186778725 1.0471311276143773
Ni 8.063606064412799 0.28014272339693636 0.3351319123845425 -1.1930165494270033 -1.3017675282811774 0.7810047240301066
Ni 2.606645446569063 1.0044569403309902 12.559720193930476 -1.5362691058713156 -1.3849553139542665 1.333912231334522
P 6.538348803729362 1.8122396569788932 1.6870086136303624 -0.2188841827678553 -1.3642376217909409 -1.5640210791736033
Ni 6.629000212334198 9.448080908294456 8.878856483058952 -1.3937392307944836 -1.0503372932565007 -0.8336627165454545
P 3.5038365009301677 8.523848423716085 8.380677269939712 -0.35620680261213494 -0.14642638191776072 -0.8977922000355119
Ni 7.547110108938846 9.035362818975058 5.643586375931167 -0.5231886400837442 1.120047356158129 -0.2886860340523415
P 0.6631208054664116 1.7967476540756926 3.3381592703613046 0.3861424138293027 -0.9094655226083821 1.537806111341132
P 2.574659562730598 2.954621806390594 8.801697031952568 -0.7254652962019055 -0.5110489193974167 1.0337253957314327
P 7.2239766136531065 7.721789399158767 12.590052051351192 0.5399972270006506 1.0497811636427146 0.06941207204523529
Ni 3.042592263594816 8.934395777299347 6.240432021911748 -0.7335825259924011 -0.19569746023874682 -0.9379191499633847
Ni 4.975381967116878 5.947055231843132 7.722626152848509 -0.8949135929361361 -0.9183826225923537 0.5029915963105789
Ni 9.043516992958239 6.307425193987223 12.425508427222312 -0.004694320151875786 2.131389241988039 1.2904747289761775
Ni 8.695707612808718 7.081737763045457 10.312064344216886 -1.836626148503682 2.0476113881394347 -0.7336838274569557
Ni 1.0645603456063415 1.9674750920580302 10.773285389931123 -0.2686856796710147 1.4979393570531814 -0.839860103605418
Ni 1.7921186065016226 6.147755520951362 3.96253893659158 -1.264469048941035 -0.6000862218727472 0.2905040610976867
Ni 0.9413757309047843 3.941545881160477 4.0013969615981235 -0.6277947435316091 -0.7686243480878827 -1.0321328544333321
Ni 8.613748423796874 4.863273670658687 0.7129039393466666 0.23707653740616588 -0.375187971700328 0.559508814671017
Ni 8.027000409648709 4.181653372863196 4.881492080539882 -0.8173328690371795 0.8688269231514134 -1.2613585283365116
Ni 6.0797113046070645 7.390937732366762 4.92369062665148 -0.6028223898569877 -3.193119864683146 -0.2563469556000037
Ni 8.89694594752676 2.2015156556776994 5.549034136655195 1.245999529381938 0.09592271674125415 -0.2099884229401222
Ni 5.518038071205815 2.4194983408390214 3.4775297812697508 -1.7530699237475809 -0.3119797144729595 0.7570045044607673
Ni 3.1840147691393033 1.291346570141997 4.077172336756509 -0.22874590605328346 -0.04301944098431946 2.0121137094534576
Ni 3.881646562150917 7.032673569419692 3.778131225147357 0.786436179458323 0.9185803404254568 0.34591879042256557
Ni 7.3108895329345955 7.807468524197067 3.2200090927708653 1.7620340749194043 1.0766275944115973 -0.14814336460886743
Ni 5.6091904188266835 8.000385705259918 6.9784265123076885 -0.9580693996590144 1.4608635352468067 1.9370842912214445
Ni 7.866393795119899 5.365483587527292 9.17457006087087 -0.8852989526645076 0.12210348890168003 -1.4243150466988115
Ni 2.190225974520098 2.6696988260499337 6.1863528721366 -1.0317351047742813 -1.2821890919286174 0.07236164159186248
Ni 5.1395600912970245 1.8003098870785843 9.540628463841456 1.1472568266933854 1.2133074384655556 0.533377664801604
Ni 4.71582134362493 5.023704028867041 12.339659539517468 0.4644178498024389 1.0181622511858528 -1.1230570895187304
Ni 1.8723430622542447 0.9659959558778947 8.072934662089121 -0.3879036194947836 0.6758450620716168 0.017466275105563468
Ni 7.225488707349646 5.617177613137854 6.573822707383158 -0.30232779320549225 -0.6378891516531336 0.3871248323472301
Ni 6.58647605586218 2.215152328891894 5.952864269099409 -0.03425275053528295 -0.12140492017275867 0.6688367490745836
Ni 6.790979770832872 0.37811526295459036 11.292427045541597 1.156005519420293 -0.6768238810451183 -1.2411514572610174
Ni 3.533280583094694 8.470442758618047 0.35314994665932475 1.460894645595058 0.03737072733897435 0.032138789516073685
P 0.6244204834834342 1.3618676516211174 0.321513792467238 1.6166235358606675 -0.6388828830249706 -1.594478624332512
Ni 1.1379108048611961 7.808145719533554 8.126049040425986 -0.044393181403394516 -0.5998062287384831 -0.23306535936424377
P 1.4841246014781717 8.137772868730815 4.562411552959776 0.21603180092072471 0.7333480413840918 0.9682797645331129
Ni 2.4694809226608445 4.27307474328897 11.628995910770275 -0.2551825029782573 0.5832843198240599 -0.05604773492318735
P 8.48615740108393 5.6202574604216045 3.073862917838169 0.40444121213849055 0.15215711375395086 -0.12261693820298883
P 0.3804001014666013 4.418170801617689 11.8661914625261 0.9485151803116763 -1.3999438169432987 0.18973095824266678
P 4.412771792222681 2.3648217749040126 5.651705298650257 -0.44974353561971575 0.635988335085995 -1.2091281102768854
Ni 1.802684709080512 8.9487653057407 10.049017556239296 0.16374121904712444 0.3854127347521298 0.7969067399723436
