# total energy = -340897.48828237125 ev
CRYSTAL
PRIMVEC
8.99917865192585 0.00000000000000 0.00000000000000
0.00000000000000 8.99917865192585 0.00000000000000
0.00000000000000 0.00000000000000 13.17120760801732
PRIMCOORD
 96 1
Ni 6.357811697290247 1.8337716243850297 11.420134938954037 0.47254562111589576 0.5926616472739019 -0.15270475872730477
Ni 4.647193832172773 0.2954925292239555 5.973221900327572 -0.6725183116912289 0.28223153667624945 -0.046818760125751625
Ni 2.625105396210624 1.6505663462579634 4.726816764671676 -0.18411052673209585 -0.5504042812665876 0.5561823214009453
Ni 3.320741902705478 4.257142433712146 4.632089610795011 -1.063618069525807 -0.014820095731968023 0.48819618316895924
Ni 5.000483586014623 4.516939720982521 2.6442250510838323 -0.0680766410632634 0.16827355969983923 -0.22958357146323044
Ni 7.201502690264444 5.920838581561003 2.6654046179406965 0.4807991193739397 0.7203480295799981 -1.110793184549713
Ni 5.024376405222175 4.434345259706845 11.334232379621602 -0.15099908889010769 0.2586367800754449 0.3327876523572462
Ni 5.7208768328635164 7.801324942106637 12.344055409065401 -0.3417677443686694 -0.06088089464577257 -0.32694919129859823
Ni 1.8944710841044061 6.444896748691938 0.2378599895746109 0.6336748564614699 -0.2192431087691708 0.49244775935646157
Ni 2.8121713219610576 1.5999369674023354 0.3860359649651802 -0.4882149522220366 -0.34681790519806727 0.3809140755508279
Ni 0.4957917471192881 8.874530986331091 4.640624431788022 0.34698656956544754 0.3598703675066512 0.287713128616111
Ni 8.682380524666431 2.3105751046388048 1.4297741988336519 -0.2083028077075832 0.5258574451651589 -0.18664563444912372
Ni 6.838736801347057 0.6677876483706754 4.71275014858756 0.14879616770151793 0.4980136834800133 0.4312495905805863
Ni 0.7877763965213588 7.380073391407748 2.301194360856525 -1.1176708855061526 -0.5747654837197714 0.8058387523546507
Ni 7.283089243535885 3.8736604356362707 3.8864014727112437 0.9095542256674466 -1.080214026211275 0.5652632006562911
Ni 7.608814513297609 3.8464469195219055 12.679144324170046 0.10179871590605695 -0.48964499980034387 -0.36226843542518256
Ni 7.994078348738116 8.759836454956227 6.909878907924605 0.028428944764654265 -0.3591216622660847 -0.1204924356608183
Ni 6.965778205773809 0.6941498421886059 0.34897014810941046 -0.6877343573100348 -0.11994581912872891 -0.4043005727955682
Ni 1.7990707916677704 6.332667992256009 9.392230333856732 -0.02246192854794196 0.048857902042967465 -1.7385393342315736
Ni 0.12344173298305182 4.8341427686012866 1.2318525639268827 -0.38925987641236187 0.5254905487440433 0.8393422834287352
Ni 6.44606664191114 2.026561027730945 6.930794798848219 -0.3175183849030015 -0.1389706969706639 0.25130913606578004
Ni 3.482907101244123 4.160761230807103 0.5305798718690572 -0.10600144113349487 0.8806604254512317 -0.7791882396466581
Ni 5.825339298159665 5.6090620386436125 4.682404018399316 -0.12076831503002426 -0.3647917160676685 1.6045666046961333
Ni 5.225337062745288 2.9154548948593946 9.270528142098847 1.7687030022991475 -0.682755930258837 0.5132122455973226
P 0.042426627553298665 5.633899771605137 12.327881185351 0.42991853047398865 -0.6188038528869085 -0.42161155327019
P 4.0322799578028725 6.082058866345676 12.46097633722819 0.15569135215945445 -0.026881140661560155 0.8805328987344319
P 2.39414147720428 8.336128128497014 1.3790521284383486 0.6647438099521326 1.2294789060190956 -0.767107397222724
P 6.316829437903732 7.8137438085873985 5.893035619247731 -0.6637899306792956 -0.6092167234191056 0.027013038253734124
P 4.803095602399382 0.9129576707295782 12.636851784378027 0.3360421547388019 0.7401267548688221 -0.14232547237550972
P 3.860305654580147 6.175722317310727 8.215079277106161 0.41541313776896205 -0.40488241344096726 0.41265820073164416
P 4.597779342429393 1.0890176010409018 3.819781453384843 0.9208408543248593 -0.3235699904137202 0.155570510310874
P 0.2635517445861524 5.599801883854696 3.5823183275868997 -0.6974865516007923 -0.06560632514589992 -0.9075544216285983
Ni 1.4107202379642916 1.002985453536493 2.5648819930396773 0.21984448979859558 0.5415185487411834 -0.2587172556043931
Ni 1.8441746748573202 6.592339291025853 4.655758350455194 0.10946831663617276 -0.3922251296882729 0.8912718824184909
Ni 5.928658867772439 5.697280986550069 9.15596499873168 -0.6410032718020832 -0.4284424601490944 0.3327683690835366
Ni 8.570349750159906 2.2322282556666937 10.136495701802378 0.4760793453007673 0.3141510110926654 0.18734651717089026
Ni 2.3086672787736444 5.332040323515138 6.975458622203776 -0.45712697256798046 -1.4331012775318739 -0.23561717925182002
Ni 0.5953100636875156 9.156394259551341 9.18760251105035 0.09765512605132859 -1.000619100095767 -0.4612515362593153
Ni 1.4928467419522868 1.094939060565787 11.342780699382526 0.4154966986217038 0.6035937208053734 -0.038060297206831226
Ni 4.162156103491537 6.988897095620967 1.6181225075359031 0.35501072542150475 -0.8230309478632213 -0.4764878935930955
Ni 5.43526090216321 7.820511190901554 8.033369662463953 0.5763906780280202 0.8675195171938995 -0.002230689102731642
Ni 5.072809984497147 2.86873115952018 5.027976976583735 1.1308547311862782 -0.33284781617122033 -0.26289015603516014
Ni 0.8517371585687264 7.218115173977116 6.954594926516096 -0.30074656476130135 1.3826045543339027 -0.15487811222953973
Ni 5.068094414905901 4.535721006740021 7.219139280502849 0.5057159372202774 -0.07288511819550027 -1.0610346250693468
Ni 8.103472363912132 7.097346197041011 9.104755172855754 0.4580741669725982 0.8887144061039597 0.5512103221076508
Ni 4.5301595143595055 0.5091402287503853 10.259317391379252 0.46249954973380347 -1.2773854998923873 0.22154527453978617
Ni 7.920861031573275 7.068746807420821 4.6475663981671955 0.6466098193555831 0.32340981068677205 0.3290724082891881
Ni 7.130697152966883 6.094792704077762 7.099399809599642 0.09696761306600074 -0.11138096027785334 -1.1681066735592012
Ni 2.274470400058503 5.36408639854267 2.401743083375511 0.12932391790951922 -0.6629934029199291 0.9098409036699298
Ni 2.3411183168385916 5.1221524808116525 11.371810249740237 0.2541244940273881 -0.2710130422526107 0.12700606840961998
Ni 0.8442678403230508 3.460517144864314 3.718297716208356 0.5857898598547331 -0.37622952559096495 -0.09974286181829274
Ni 3.6040900403962532 2.6050642254478293 2.5856925935735626 -0.3982124576199593 0.3426429478847712 -0.05166477536414328
Ni 1.0440757030663184 3.2058313910439926 8.078415050992541 -0.2986886537910082 1.1119039011153884 0.45772861070772136
Ni 3.599671443699113 2.690610417307339 7.0683940396193385 -0.4840474511079083 0.0709796736426713 -0.9269377112512166
Ni 4.085933060671207 6.786829539128916 6.0529996186985535 0.19127104903627704 0.5948884797218915 -0.3635958959873545
Ni 1.0637299091489156 7.363955862518586 11.392619950356261 -1.6568965244481015 0.057082603945604916 0.8265237915078281
P 0.13138530794143485 5.54233312925604 8.03056461849145 0.6378253882947338 -1.2553688864119799 0.41176139994898764
P 8.459515866408411 1.5834954680832398 7.9097056497692515 0.7509688397896486 0.883154138407363 0.06513118528169429
P 1.8295960055103386 3.241315152300257 10.411523198951043 -0.04420934752736257 -0.807526681580035 -0.7135168655907776
P 3.867504997467545 6.130852412765018 3.819281099054169 0.6898825140012893 0.9718258300131586 -0.8541870617510516
P 6.963564407835934 3.8042767685589705 10.532014101268121 -0.9391103420580085 0.33790131943472773 -1.3028049684067564
P 6.340317294073869 7.945842751392547 10.130172878911521 -0.23531353196847218 -0.9996647066022978 0.5898588877177842
P 2.416504436048261 8.446044096030366 5.7931051402991995 -0.25942122364995324 0.5354180922704005 0.031047356224107817
P 6.93824071922951 3.8768821415783816 1.7082789785969303 0.0629604028826206 0.5689432206110395 -0.6314557373229641
Ni 5.393621702738221 2.8015792887379734 0.6304095600171646 -0.4042828321837554 -0.17970519857554856 -1.0762524704603658
Ni 1.5431071544849357 1.0554776623642352 7.073570367155378 -0.42910194810996416 -0.24171660728133856 -1.3077348016082058
Ni 6.904088836407414 0.8289071423549258 9.133995303992922 -1.474722809727402 -0.6875392105800934 -0.026085898453774427
Ni 2.719713760929646 1.6272944703744485 9.112697847896277 -0.0674354079348387 -0.02418868143106157 0.7237400859806825
Ni 6.410897851906199 1.8769316849949822 2.5774736437497365 0.18437535035770827 0.13236553294932044 0.7652042666627402
Ni 4.026187513884411 6.938177724979245 10.351515776066716 1.0425671623927786 -0.08117641167001503 0.04093041966577467
Ni 8.060528283588802 7.263480033346335 0.21692340054019593 0.3629698323675813 -0.38921462499672327 -0.22848133953798716
Ni 7.552083691344911 3.8903899086708624 8.285730028531644 0.09025446271188325 -0.2226397931555456 0.02381072926635254
Ni 3.267583754660651 8.370972948072023 12.427996147461021 -0.38971830410601915 -0.44334328852032684 0.07328338207518346
Ni 0.040944462836355555 4.590858974078881 10.20070484117936 0.3782565833233228 1.0922318766077577 0.48315167876651627
Ni 8.603286743869752 2.2547711980828598 5.786928104101812 0.7752613937884261 0.7877479562912111 -0.5551664785419214
Ni 3.6663013621219833 2.4837193010807326 11.450468470292227 -0.03547890963290019 0.45161941248619 -0.0844558537522352
Ni 1.1413568238322869 3.288488846569934 12.654448778230549 -0.17516488750303383 0.37042551731467815 -0.8456476568214727
Ni 3.050802541142481 8.331682534264045 8.05798691554955 -0.15831721981807573 -0.09662077124954327 -0.056941193271734185
Ni 5.717871107208028 7.815129682093223 3.6793501711053924 -1.283487499025067 0.2366610471353021 -0.8661989986102631
Ni 3.0145178529899943 8.34299450177587 3.498206604797705 0.9662719900744648 0.2693608513611684 0.6628321947517165
Ni 3.431629781528629 4.1406660649726525 9.05678595119702 -1.6733392433851568 1.4222206260636283 0.611101084926012
Ni 7.068980786064662 5.945226355592064 11.191417214928562 0.8321604209683152 0.6411925049947538 1.0938686408802323
Ni 0.6037332948657714 0.06907499525100319 0.19604170649529737 0.4531165658570067 -0.24377554669289628 0.586187609513784
Ni 4.5874752829218055 0.47488305553856175 1.6803698259760702 0.12251100875274386 -0.9440471172379935 -0.22148716760834114
Ni 6.065689360455455 5.572804348026953 0.41336017097643923 -0.8867020036596213 0.052514782069264396 -0.1063991907925458
Ni 8.163595876200516 8.857513539581003 11.119620868066121 -0.804261380565202 -0.14258412535353507 0.6441225341573552
Ni 0.012960617033038656 5.009572756409963 5.7173581540273 0.4470950422532751 -0.7707660770212339 0.34042948517322014
Ni 7.94784956822241 8.84306985791316 2.29111798056775 0.07405856967831116 -0.024015389077990897 1.2050040608061827
P 8.489843098321575 1.6270064966589528 3.5726505100069854 -0.3439094733020206 -0.3882957127268797 0.5513625314147989
P 1.7433208801834803 3.2803895858216103 1.5729187334637906 0.5821376078141264 -0.4735151841180167 0.5652565157880718
P 4.740353329135705 1.161991940383292 8.095340706120815 0.04821435492169761 -1.0254060772324598 0.13755761867322117
P 8.566633089394287 1.735167624363502 12.367592760717887 -0.6396565279662015 -0.6723979840632808 0.049952677769043004
P 6.323371840752655 7.650426715186771 1.4011928075706808 -0.5600353765984484 0.09036759125097985 0.6753930621358627
P 1.7385693138777976 3.2991978691149386 5.979162258127537 0.05496401494070534 -0.03973357114419609 -0.6368311427022645
P 7.020934171469888 4.007550214984659 6.084571437013378 -1.5281449341022844 0.28215620335362374 -0.340161319113498
P 2.404814503034848 8.41010137666503 10.243577827991677 0.7878685410294755 1.3311102431093527 -1.0781933962368206
