# total energy = -340895.530731335 ev
CRYSTAL
PRIMVEC
9.05653528772836 0.00000000000000 0.00000000000000
0.00000000000000 9.05653528772836 0.00000000000000
0.00000000000000 0.00000000000000 13.25515484221268
PRIMCOORD
 96 1
Ni 6.373762967838377 1.7845087264336492 11.517761680061884 0.716192869761044 0.6828495184139078 0.35833387625746677
Ni 4.654579028853867 0.49670294887173516 6.081265866037826 -0.18635741378474358 -2.0179531989533697 -0.599656076313864
Ni 2.704788537419968 1.5672152805349655 4.754504308532236 0.27377337860656725 -0.38604651168138676 0.30672103717718147
Ni 3.2842075380328963 4.233513543913779 4.623199040494997 0.35192977250333585 0.0164584026663394 0.7968738298518792
Ni 5.194792289155228 4.535558044983549 2.8335806169756967 0.3402381950980205 -1.1243105023098572 -1.1528674880119436
Ni 7.265424128008213 6.129354255944582 2.47125129022241 -0.08409024288270033 -0.573632912777225 -0.07461572773336182
Ni 5.237321777836937 4.508714475040495 11.598976158288718 -0.07516080160355443 -0.325073314432124 -0.07000034044853752
Ni 5.5979167781246035 8.05598718720831 12.470979203438855 0.4947566099952963 -0.07636304944177172 -0.1101036362273265
Ni 2.033554384282518 6.537704365648486 0.32861094103972827 -0.2851852199879346 -0.38358390907350715 -0.23950468723168428
Ni 2.5880135742466415 1.4710801607827657 0.5379753904859343 0.6914022930799253 0.08271418847078013 -0.766339408708448
Ni 0.6003341627001378 9.059433159728727 4.904844601976463 -0.4380894963205552 -0.0006026665810054137 -0.8827641020577959
Ni 8.674358345150885 2.321479747180486 1.4164592921310943 0.3032035109422262 1.1584035873388243 0.2672440621284817
Ni 6.836506627163732 0.7073597658722172 4.733628089545821 0.35025315613186125 -0.2773104452255482 0.696234424361246
Ni 0.6928095366311541 7.337668108249693 2.297674644752916 0.8046323907513755 0.5387772385506205 0.2374953701111394
Ni 7.638299789848776 4.020666856733733 3.9393129078668427 0.7086564521746828 -0.7230777698063353 -0.6763981063616092
Ni 7.749758566936889 3.9928180113980742 12.522051721650687 -0.10009304606885988 -0.8274293340412331 1.082986703860406
Ni 7.877555333288589 8.946679298125817 7.082838947106075 0.5026853779240698 -0.04124615113398058 -0.6338129247012311
Ni 6.850969913668137 0.8550202305896726 0.5513745341197902 -0.1450305300114986 -0.7706827732788082 -0.31498610539945104
Ni 1.9126496411179519 6.651735198696056 9.165740579669873 0.13162068436349592 -0.3453621465881472 -0.25214063082814
Ni 9.212760298438546 5.028586757577991 1.4537722166133422 -0.21145112352857778 -1.6081635780187724 -0.46847196526715446
Ni 6.443643192426975 1.931451007920172 6.9707262881860155 0.22142134736741223 0.048050575650323696 0.3899772141943606
Ni 3.4944549996482817 4.390879897264154 0.5961029495161315 -0.34029604491914944 -0.41694782924593354 0.18222745077677002
Ni 6.129752743487597 5.573065645896621 4.777409191373997 -0.1767180909227666 0.7105788660083763 0.6119639471469396
Ni 5.245264359092017 2.8079243587801233 9.623348277957879 0.5540390498056974 0.29904835112327205 -0.21358411071118055
P 0.3085163010297254 5.4705818950613985 12.523787859423317 0.6779014303800132 1.0350294592548368 -0.8127817593313872
P 4.0417866965134905 6.132505930148423 12.641785454830895 0.20462664440757664 0.7785539484967688 -0.6705185076523807
P 2.5154797848829706 8.40813244027706 1.4298729262210597 -0.6852041346890134 0.31868746551043825 -0.3443990113439295
P 6.357261960943557 7.836646964384143 5.931827603486423 -0.5200878896712333 0.24564036781577697 -0.882906284062615
P 4.594162883411857 1.1813616039412331 12.6172105469225 0.04138164827058035 -0.5959387753632769 0.17308717903839868
P 3.9412863268582705 6.0055333084879585 8.120544886137147 0.5911045871994272 1.27777913578638 1.9729465523356926
P 4.750261321852641 0.840388492532993 3.807331116659986 0.16738010135129236 0.6305262835301594 0.04035449255764663
P 9.337106524929144 5.743654540447015 3.614362618301805 -0.26389468604027455 -1.5058311010964327 1.1481749676322806
Ni 1.4289944423194147 1.1204201794652509 2.6707812482377253 -0.06915676150131961 -0.6288818059482008 0.1746388397962347
Ni 1.9834355192134012 6.59754994938118 4.86652368514109 -0.385173107937498 -0.5823870048207712 -0.5981730640104344
Ni 5.771938099465961 5.404288058359929 9.317989085053034 -0.2607615397279316 0.7370889964837628 -0.5656450094757419
Ni 8.810351275739585 2.121837488130322 10.353601153176268 -0.908861570475796 1.2102974479946382 -0.5944269667044407
Ni 2.3041545955944325 5.3640045903752105 7.003903998755983 -1.0645344106924892 -0.8857653507779648 -0.6794057828396816
Ni 0.7507604932275154 8.95137963982637 8.93692993812457 -0.32922178938285884 -0.22363326741706643 0.8685638992980138
Ni 1.444961113645192 1.1167070000871628 11.61546539168795 0.7707334240110856 -0.5437255836948313 -0.48606550997920156
Ni 4.225417001562534 6.607340063790235 1.7248795938890937 0.21469585571812055 1.17151569924075 -0.32420222468108034
Ni 5.7503563763977095 7.833377555224412 8.06434365211602 -1.610148469659285 -0.09324774101225232 -0.10406334357051757
Ni 5.140797227076791 2.743577677118383 4.894266569016446 0.8770007172114573 0.31332774386042167 -0.21580837205600897
Ni 0.7299395191050183 7.516507506247495 6.877648654672944 0.010442792599878788 -0.639743174142737 0.16249037735915886
Ni 4.854194118298825 4.6805712845004805 6.672181232266716 0.6596607390022704 -1.30570363011079 0.6474683107011365
Ni 7.929422109625927 7.354015154048347 9.04666978485668 0.36767777936621193 -0.49544463720125637 0.4134495862846879
Ni 4.172572119437797 0.6448678625925064 10.386275320396425 0.8242488794307223 -0.909361135820034 0.767327226543014
Ni 8.025430437887168 7.194647306447832 4.593918356965007 0.7429968773277655 0.45316567392738727 0.4300110901877949
Ni 7.241723175733931 6.149106558928997 6.9003950481510055 0.4355890984962047 -0.7727375989253079 0.9869608858823842
Ni 2.2900897966330414 5.2867704593109845 2.712839797095871 0.2650221147764984 -0.10056201528547842 -0.5881164511053807
Ni 2.686322262415283 5.079964481021631 11.230243861241998 -0.6327739419137554 1.1026643847949913 0.1284209464792756
Ni 1.0664704000621557 3.3999047735330707 3.889234797205534 -0.5718061439811313 0.2246575949165228 -0.8939237182190412
Ni 3.7609344875040263 2.529399679283265 2.6929036464495666 -0.26189822443553606 0.33499571575215853 -0.08487442934689254
Ni 0.9267552335603013 3.372816677143167 8.10735585411688 0.08138235703323404 0.27175377707337717 -0.05542372818594325
Ni 3.8526228485375893 2.5274344111733993 6.9249835408620015 -1.3263791561822704 0.7388777129530695 0.324215594417519
Ni 4.208001284625796 6.806864587884508 6.058494114261572 0.4548278921211586 1.9852875903995488 -0.46929677516129503
Ni 0.5172866417754374 7.2155226197807405 11.097891657750841 0.5334290868648297 -0.4328393036652094 0.7088600835450566
P 0.23859441637981174 5.720614715232734 8.142628341248193 -0.836552893609056 -0.5726754339599621 -0.4476426872266291
P 8.648610615951121 1.5858898558462264 8.19676196831318 -0.567036747616946 0.5836895256822786 -0.7622858074643646
P 1.8251997384964502 3.2218351810160897 10.375856682453616 0.1566640004853689 -0.3816383553113621 -0.5628785024741984
P 4.215880470135397 6.113215510452504 3.886132933944571 -1.464205455135846 0.5419857181855892 -0.008794458363178402
P 7.08712812211452 4.003622457734803 10.514028615379797 -0.8062647841484759 -0.32289327606166973 -1.5881351986129875
P 6.061919295824481 7.813761100266026 10.241992943259522 1.493105425999648 -0.05481591939861528 0.6903813080145788
P 2.5409648745657485 8.406013211071029 5.888085444759041 -0.08385678671565558 0.7886948935855127 -0.4771643508348298
P 6.911648698627133 3.9465481737330728 1.4015468014872912 0.6019345879353957 0.9342154758595523 1.1515662527020167
Ni 5.2648445879101295 2.7579413417370344 0.7025733870885112 -0.6854625305567227 0.25973258424278495 -0.8307098045647178
Ni 1.5691262094344203 1.0250095825185317 6.922425069705149 -0.6094764048383955 1.315856659384392 -0.050870561597622065
Ni 6.800950670484773 0.7404831372317738 9.295031674307875 -0.12047726615216672 -0.04006035835599552 -0.05458272034188664
Ni 2.6000044266773443 1.7242012594124623 9.036569031294773 -0.4549752163323003 -0.568216369747344 0.2388788807222273
Ni 6.366119252240556 2.068512609646954 2.741351580798544 0.7365644914388606 0.17169466956624624 -0.2572825800403956
Ni 4.003785475366036 7.092869965347953 10.254081606268965 0.676441558005035 -0.08798443573078396 0.31030052699832367
Ni 8.228188145000898 7.1058932627764655 0.23199129666136345 -0.6730713559812215 0.07119564630821933 0.09840383129189505
Ni 7.477473840102232 3.809042801787934 8.254395946182143 0.703512188969582 -0.0006201500825021578 0.4941053495645426
Ni 3.2221068770681454 8.421173850775709 12.431718218263372 -0.3870821520347527 -0.02677495410099905 0.5136799292623604
Ni 0.24128511294866511 4.775094341010487 10.292561012468036 -0.5445213401232494 0.07893852347843179 -0.23088352122157657
Ni 8.686974098501315 2.350496885539982 5.725140265806466 -0.027618018827584693 -0.1708346355587961 0.7627858870292347
Ni 3.5151220126746145 2.9124639430758976 11.739481054648548 0.31992802278575866 -1.2028402203856445 -0.0083501717369082
Ni 1.112740237727157 3.3513979717061484 12.464219405663723 -0.2843089880305684 0.43633883217803565 1.37130995525669
Ni 3.1944844451091994 8.575678339044435 7.9809945485735385 0.5514998283236114 -0.6795255962469974 0.7924209362868482
Ni 5.809377815439169 7.818805590299185 3.590476912712125 -1.0921182338480289 0.11505943757070507 0.07761260557815665
Ni 3.144908972144193 8.320338389322956 3.486689020827037 0.34252364869808755 -0.14868535315526651 0.8098805265241923
Ni 3.3589964046286256 3.9809720635284673 8.911002889530447 0.037369956008025965 1.3714253977886315 0.057930296657880874
Ni 7.297475205615658 6.192442079231801 11.311060757579327 -0.23514383915982728 -0.09345959991274227 -0.2354487719947558
Ni 0.5996331868858356 -0.14839042144397713 0.36646001239803194 0.25037762539044617 0.7811170812382547 -0.174077567976126
Ni 4.563687642906332 0.3527982292471894 1.6239019448357632 0.41995447728274127 -0.8172570214939215 -0.5263318136984161
Ni 6.058369134077627 5.743120204877973 0.20561232696732368 0.16991083819294608 0.10303233120284191 1.104521749718704
Ni 7.927683254892774 8.819362528132748 11.398637451691787 -0.2834972907625504 0.3666264552835621 0.20465029855666048
Ni 9.120111944687721 4.8388070652174315 6.00697058060333 -0.08588590133054241 0.016685173965164814 -0.3967232746689426
Ni 8.013629772692903 8.840101993439628 2.541490153599722 -0.158327761341037 0.5330575624580239 0.3136581306166469
P 8.546516296123844 1.6914890547450157 3.6060251721177377 -0.5293592876708303 -0.16426803808487192 0.538602146425337
P 1.8766046315452949 3.13619658540829 1.699045827606178 -0.45867349111949396 1.2276194842128534 -0.03564243179395797
P 4.807951450239028 1.117440579427712 8.273549612198527 -0.11553046366985263 -0.27912024474077735 0.21433615838585665
P 8.528683978573953 1.6251046526928608 12.589560039704843 -0.15602482423947323 -0.5691306540314973 -0.6101816584355362
P 6.383815721764418 7.868308610983643 1.4173341534187123 -0.23110206499028588 -0.32733100011804916 -0.7264019490835619
P 1.7974052323712029 3.296714612962504 5.96818596917245 0.256771444731932 -0.5024514075363927 0.7475176480162545
P 6.857662693083763 3.8717321375321383 6.101413939604733 0.31835013677567753 0.737905064627155 -0.6851018047831944
P 2.2150926297307367 8.488119758002112 10.46727697004915 0.4231323607900906 -0.17742874383654603 -0.8748057664426675
