# total energy = -340891.4479050952 ev
CRYSTAL
PRIMVEC
9.05711291932815 0.00000000000000 0.00000000000000
0.00000000000000 9.05711291932815 0.00000000000000
0.00000000000000 0.00000000000000 13.25600026443963
PRIMCOORD
 96 1
Ni 6.404827979591761 1.9330414984279516 11.403725753324533 0.2952333482525561 0.5575794588587881 0.23576681745580685
Ni 4.707751444329577 0.5443252414037575 5.9319008651266305 0.5813999583171535 -0.7063897676276931 0.20083195325183478
Ni 2.8064551267213393 1.561156441521399 4.9126740586389985 -0.37662341859527393 -1.1404449459778745 0.8690529231192904
Ni 3.5205994241403538 4.415822580369226 4.770847821556549 0.46066815295201957 -0.5641766524603316 0.7024721777408418
Ni 4.9579723032471925 4.599645744396877 2.5547887525800914 0.03572470709511912 -0.20322462185372744 0.9810393781916266
Ni 7.060581069950947 6.013841471515799 2.5238360691417543 0.7809602439454163 0.286679545145274 -0.18818726790463072
Ni 4.879492419708583 4.298768452861669 11.455954500746778 -0.1567285351747172 1.2098279645573873 -0.23491295409594382
Ni 5.755903952381807 7.519097412033125 12.473432378727622 -1.6992611054572413 0.7296176278073823 0.294935357396163
Ni 1.721675653980114 6.501829659072257 0.3446611868615035 1.3771486734256542 -0.010109320519860009 -1.1712873852800278
Ni 2.804444447650875 1.7364478051689738 0.38167579598390233 0.8002028942251123 -2.247162160686001 0.28156227852336674
Ni 0.474431500922806 0.16369825909715124 4.691775602832317 0.7701968347813252 -1.516607622886646 1.019728310121392
Ni 8.652096954013768 2.2620773540625874 1.357427554696153 -0.35334130813888176 0.8046712144091109 -0.046994623581983586
Ni 6.933518832655721 0.8811864426099291 4.783374714450058 -0.16741763945744717 -1.1227953512169113 -0.0712342128556386
Ni 0.7267952727596647 7.446549937463678 2.1395581646130575 -0.3661014360180275 0.14009169794898454 1.6687063725988358
Ni 7.87265087236932 3.9164043162950852 3.6092776168381637 0.6861227898485409 0.05250012678124506 0.11930535733125261
Ni 7.768856358191311 3.9050557537937722 12.600596961398958 0.344030315150601 -1.3439122799700274 1.040244427796873
Ni 7.920834713157018 8.949586885313149 7.028782452164946 -0.5510061765166445 0.06865822459834627 -0.9732733610929626
Ni 6.902443878192827 0.5852570518683893 0.3231668464559839 -0.7176226602290351 -0.12313758659314922 0.3694076175731251
Ni 1.70991046428402 6.53308575579375 9.330129636469506 0.7768652479404363 0.007675514267386781 -0.5114484688286804
Ni 0.17063510189025227 4.86281827480442 1.4508824687532538 -0.5028450434303856 -0.4586061282166682 -0.18605068117760215
Ni 6.306069220202841 2.2973185804732887 6.873606936334943 -0.6601906433638114 -0.6223558319042249 0.3749162060961801
Ni 3.362335432801214 4.3722397529499775 0.7239776049271359 -0.45364158512254127 -0.11426496669386772 -0.720911615392952
Ni 5.970874527775792 5.908326105881085 4.814287546591502 -0.2067274928006633 -1.3087863828011717 -0.8424414911793491
Ni 5.120302938291911 2.7721467829424298 9.228508829394702 0.9946024615880418 0.14300912870609564 0.5795107117142407
P 0.21809980791130634 5.484063764900237 12.322406832042152 1.2574679350328537 0.5336358035589971 1.0773300197952609
P 3.8780383859235275 6.095192459853224 12.685767334258973 -0.4319232196088432 -0.07262492255557816 -0.9739397910323678
P 2.509173509019347 8.576370432805884 1.3024381992528395 -1.2498307302025702 -0.02277148936856078 -0.14758800632602967
P 6.279079023671386 7.747871027532458 5.7562589912086635 0.9119630922192553 1.8374028787687064 1.1983675293262717
P 4.849468090345574 0.9174040257944864 12.76617819427426 1.0682257435011475 -0.8916110109254645 0.1313311781475351
P 3.9201720752739724 6.107546361889768 8.145958312145552 0.23011990358267465 0.7437358123763191 0.12578299463579629
P 4.7868472115474265 1.1690468514421155 3.7500034146996164 0.5546350315184835 -0.3869605388552239 1.262075351897878
P 0.2835229574500007 5.710147417859355 3.6311369588947624 -1.7350261788719925 -0.9426417522500347 -1.5666605736789794
Ni 1.3854665649049034 1.1694815928627564 2.59894489524781 0.4839597764901084 -1.3722394090494947 -0.47824369994193766
Ni 1.6954915404994308 6.6239738840464835 4.778364319577171 2.019455494530509 0.7671495633145691 0.4195801246624581
Ni 5.738831294508723 5.32728514008162 9.206968297713239 0.6911117584227001 0.3851682228414915 0.2476273163388187
Ni 8.744615362593905 2.2173171019624367 10.302682422894874 0.006768686182401247 0.39966718778861493 0.3140131999632205
Ni 2.217362387527087 5.410565293473138 6.878724205140402 1.066086071450325 -0.7269771048607415 1.0386158910545145
Ni 0.445747624273438 8.917560933992606 8.826879307914675 0.4953950149102436 -0.4429280553597791 1.6766256274459124
Ni 1.6155715760049492 1.2167959508091721 11.551013429503785 -1.3069724695208844 -0.5632988778410685 -0.28949207489340467
Ni 4.077774897369221 6.880281122853072 1.4946935354183386 0.6509878938186208 0.5015088411174653 0.37747779617576926
Ni 5.87572955644595 7.7616287820731555 8.156204624003283 -1.5037626486031779 0.8455227012078341 0.22929869323295995
Ni 5.872949022776434 2.9979315511748563 4.505767863165945 -1.4814339031989905 1.197806514616479 1.0795866770399214
Ni 0.6622035661879461 7.20055875028438 7.011496046426712 0.021094358776453995 0.9435730058150524 -0.007282649704342296
Ni 5.229894004745133 4.701683178666464 6.809779650094517 -1.1070920815490417 -0.4097145447222879 0.6132939788122728
Ni 8.044663561136229 6.978342484546381 9.369977310516417 0.6254910350990969 0.8022417790320119 0.6084865301213005
Ni 4.59076977372546 0.3506560899098826 10.432286991789558 1.551090487154864 -1.8830484445219633 -0.12089095665081762
Ni 8.246437922991177 7.162627561333464 4.975348374403433 -0.1124345983533483 -0.008129056865037614 -0.807082394953765
Ni 7.497994338906182 6.383543764206218 7.2628698758203205 -0.6534679799279971 -2.064509192336038 -1.841804864491144
Ni 2.305868495079226 5.438026459876954 2.609284495368719 -0.24165464369515155 -0.2411162546931783 0.6443904431067612
Ni 2.2210214611508143 5.358831064416873 11.341542333080907 0.23246757787924482 -0.8015013013215616 0.5127828713693878
Ni 1.548820653710714 3.273639125877544 3.925194244393668 -3.058865856461861 1.4539992040268055 0.3885474237263695
Ni 3.3803681446448803 2.5574932065009954 2.94789553079297 2.4996300929465725 1.0077359136462063 -2.2101537017824517
Ni 1.3256533911150625 3.1264066980871665 8.398670782830218 -0.8572944970317815 0.9510196919010846 -0.17234695843826447
Ni 3.549328586354372 2.3267723117217085 7.289607378901027 0.672936373065254 1.279582507543706 -0.43157843467491475
Ni 4.141781514445661 7.228481829447627 6.158790601136519 -0.3040234357403603 -1.405758880963179 -0.6066888147909293
Ni 0.7202107516595414 7.519378182533956 11.438138253902137 0.10854451927032274 -0.03939624240943538 0.039778051228886335
P 0.24524669249645026 5.373739072299684 8.227681547824401 0.26211445421140017 0.4867933892841616 -1.3326534192267563
P 8.673834025045812 1.7238584181962482 8.130037719037167 -0.6238720114384352 -0.057103686991527465 -0.6852398730229554
P 2.0424785939613628 3.202558903602761 10.586812206911185 -0.6738869099039814 0.2544677362994198 -0.0796283504566048
P 3.9264395974215454 6.284151006912197 3.892333227260975 0.3521352036459226 0.6832315843436749 -0.8393330274573545
P 6.873913972463269 4.009420866086374 10.661562371345214 -0.7473631247162613 -0.7928248565934862 -2.2008920739748676
P 6.245024279054517 7.641151065878052 10.386129227164306 -0.3354572287696093 0.07741591618631828 -1.1763717417814707
P 2.2472780315349374 8.424138478678136 5.888898598646196 0.026802979125457066 1.126743280121066 -0.5878842804899165
P 6.8950895024936525 3.8958718412827333 1.4373085736050355 1.0758745182956568 0.2705494723526308 1.5868511896942412
Ni 5.201635812403476 2.9127222327292444 0.46514886588083026 -0.19239359267649445 -0.9661202949879492 -0.5868542965635055
Ni 1.3944512209314817 1.128280786144103 6.965603655210311 0.1346245041868262 0.0731352865330934 -0.4063471709119518
Ni 6.882925799828638 0.997278704724318 9.093947302593419 -0.4895532114174859 -0.6847775886745561 0.17401637572088738
Ni 2.894490264401117 1.4891976792924035 9.45933569239527 -1.1423627318258778 -0.053694147089346236 -1.2253150044493928
Ni 6.327742891444374 2.003931521331205 2.404293952712321 1.0245455290043775 -0.27404951508608927 0.2642438418495772
Ni 4.163917098446626 6.776740207837102 10.532913327864648 -0.1612480203116255 0.34776767070584624 -0.34946614145419164
Ni 8.037318242549983 7.045147749518197 0.17767700719334154 0.8074513482574094 0.29121728511462747 1.1675708556603892
Ni 7.684072724053409 3.7819786461877527 8.187502383444254 0.34122421316037366 0.16250040466148788 0.5961712030890571
Ni 3.1510329881438865 8.566298923227704 12.291215040822463 0.14731521228061725 -0.9573885715419059 0.9873390951574093
Ni 8.990072180110332 4.736770434157355 10.227878821494562 0.5704000076622241 -0.7246859948337198 0.3350561366764488
Ni 8.520669188286272 2.3344889719380837 5.821981931185341 0.6199341098366098 1.072859642728733 0.9009418014080871
Ni 3.8700500123192514 2.292092626312668 11.597396716240995 -0.7495231084820575 1.229338266676173 -1.0088941956203656
Ni 1.26515187674254 3.358984301017107 12.75050938890533 -1.105242944155445 0.8188523910054994 -0.9390782032684923
Ni 2.8466868223564803 8.334445889332164 7.981119762530513 1.206500185735735 -0.07061997631040741 0.6345305195935459
Ni 5.7656946914591565 8.143884233284579 3.578045974321581 -0.3513564164983691 -0.5997694619632766 -0.45592832427418895
Ni 3.2342135132931746 8.512345701503586 3.4340197645084296 -0.7827582163861035 -0.8570857234550853 1.2409766222460499
Ni 3.335182208237019 4.303143038406867 9.156277448066511 -0.003365574038123236 0.2936464633814104 0.19253448912973292
Ni 7.364872893060773 5.995156647541171 11.517012121853202 -1.3440981707285884 0.077673283612763 -1.375745365320224
Ni 0.40185594930327617 8.986585191632274 0.24962218375294212 1.0232124120152506 0.3423153893420233 0.2250311762058576
Ni 4.54168927875769 0.4429924505201264 1.7092819006466766 0.41942662980372925 -0.46191025288923676 -1.3881972179303317
Ni 5.740706116885237 5.271728809368887 0.32539127339159646 0.5444028122675141 1.6389399399696807 -0.39305919555379404
Ni 7.810808905283156 8.861379662487701 11.233240999508919 0.3423130753491782 0.21346892528955494 0.2881679567653424
Ni 0.18405774325253946 4.757909735736018 5.851967314962754 -0.12459231676180478 0.25096615090406454 -0.30438776105831444
Ni 7.982106082128592 8.946996551015165 2.6060502003414094 -0.2488997552933391 0.22437245957593618 -0.12125888151319762
P 8.695027669302055 1.7981720297870485 3.7596139172296588 -1.0657281738902742 0.5136830145861541 -1.7405563646616025
P 1.7718701738382754 3.047175074175366 1.5488442022043323 -1.1730640175644764 2.2247393129061104 1.56745350189392
P 4.833409829120651 0.8303787562064053 8.17451176636873 0.4808191739785977 0.05168611552038196 0.3187615132814833
P 8.505371724547471 1.6115955034286713 12.485124205808983 0.5388636276168398 0.19997937544355238 -0.7141899803984022
P 6.326574523876403 7.700638183602412 1.3033276077425673 -0.09153435786557139 0.13052770840963326 1.8432991896484836
P 2.0136045179404647 3.317031753925262 6.135248447497522 -0.4802365620022504 -0.10264229485327483 -0.49684563131384113
P 7.1558800122006 4.2849563556433905 6.008799376747659 -0.7590693574095959 -0.5329025249373983 -0.6741018541282648
P 2.2973185804732887 8.512572129326836 10.17623335214501 -0.06765189482101897 0.18584550714533157 0.6373065396767863
