# total energy = -340888.852755552 ev
CRYSTAL
PRIMVEC
9.08750910186386 0.00000000000000 0.00000000000000
0.00000000000000 9.08750910186386 0.00000000000000
0.00000000000000 0.00000000000000 13.30048815007793
PRIMCOORD
 96 1
Ni 6.321189381603478 2.100077862050624 11.272961150487117 1.1346825895728008 0.4625345167367969 -0.015704555219450373
Ni 4.734337670430938 0.6035060077358358 6.136579365185123 -0.29142451602942715 -0.32668153945950834 -1.4685061393937289
Ni 2.9549943463980766 1.777235021975285 4.642654702203836 -0.01677336280359692 -0.7829250809812709 -0.17909790400885287
Ni 3.4378136926009355 4.572834462813449 4.786287323630699 -1.1856824776594352 -0.6366758480713229 0.8316675404922967
Ni 4.071367548411677 2.5700292956951682 2.3662364568055234 -1.3028548478080852 -0.7440163197312154 -0.1787279222639438
Ni 4.827048435911112 4.62387900012987 2.7948051925630253 1.7769300181946301 0.7269467658434383 -0.7725339675549341
Ni 5.322281319228842 4.280171239691615 11.34241698077186 -0.23746657375573296 0.9681018441943521 0.11055357928055154
Ni 5.841396175853951 7.997280429868283 12.36180556188426 0.43317328996586046 -0.6151947953794115 -0.72132350611939
Ni 1.5529371280739308 6.835433333474876 0.03167814716598053 0.7495971562531026 -0.12685283066120734 0.5641177741979381
Ni 2.7685277519178118 1.7839961285737216 0.3881892988495818 0.7470651338598682 -0.892236046103973 -0.7186721845394719
Ni 8.07576924396868 0.06810542646683052 6.876777863824669 0.21526535506834538 -1.3539439531744164 0.22818823377760059
Ni 8.648000589932312 2.474056114531073 1.4597283671077443 -0.0028793784303240734 0.14761243180606193 -0.5586840047768766
Ni 6.906679403006787 0.7682770835425694 4.821320579071065 -0.05327788548753405 1.7378399941717035 -1.1632979393166483
Ni 1.1042322901647954 7.576001693725385 2.3775949341407197 -0.6738000066171299 -1.206022217658052 0.216948142087407
Ni 7.517723499349347 3.8306939635286263 3.81568412512992 0.9281975518002465 -0.8883361968289346 -1.0287204863176735
Ni 7.837385711320582 3.970905137866362 12.597437396846864 -0.631655512038596 -0.1434971240861077 -0.44388527706672587
Ni 8.154039957856224 7.195753060125419 8.789188671473452 0.9374632933728886 -0.9218433274474446 -1.0507322147020743
Ni 6.999172068274107 0.6949290732092901 0.11579939926330075 2.16249213404043 0.9897824144915793 -0.07227473830501101
Ni 2.0744692620581593 6.756508318948773 9.108600068199907 -0.1855482876198869 -0.5257083211818043 -0.23648081280369593
Ni 9.4822702541297 4.815470949612176 1.2340873393955714 -0.755624079173473 0.837268688729158 0.5335689548768037
Ni 6.597404213672665 1.849762430257706 7.047330412773776 -0.2697927966922644 1.8417891807618603 -0.4129736750895339
Ni 3.6270247147595978 4.467564760076504 13.855782932416988 -0.27426574486195343 -0.04996579039516556 -0.907751882351385
Ni 6.263138374949161 5.576967842787685 4.675280676544839 -1.09212080495119 0.1630915012782675 -0.34317850867326705
Ni 5.535074426902211 3.025168089883461 8.96943668363475 0.38265368394975385 0.6153140945660952 0.5359796212008253
P 0.12183623140488856 5.785199021008883 12.159877479814508 1.7124637201904442 -0.5789211577593578 0.9146023296143152
P 4.528114831669759 6.1513347533355 12.28861294795264 -1.8152538534754927 -0.21236386515083427 0.8030812442141717
P 2.5100426496517834 8.758877285641349 1.3446523335504053 0.9510592868897686 0.2880833674713361 -1.5447347201401656
P 6.590315956754949 7.974407170045347 5.60445301336157 0.03433296895391506 -1.1659891129955662 0.9573901142038028
P 4.985334665389022 1.0340221966439356 12.511369600349834 0.07469311793851652 0.23142268155449824 0.5216315800092693
P 3.9464870015357185 6.215010927979646 8.201000568686977 1.131774157676754 0.8842445432580642 -1.777829647190764
P 4.907336576767544 1.1338575690772992 3.7963849825451086 0.48848003295796516 -0.027984658138384064 -0.6442073805616776
P 0.3871533228385311 5.612081977056983 3.4338270024601636 -0.3750005382798703 -0.007386008051425989 0.04425228495015604
Ni 0.9382671156926929 8.951359810992802 4.296603273228299 -0.24458672974028198 0.49961548074949436 1.5521402685756174
Ni 1.7152763865073557 6.620168423389175 4.964460657517236 1.664074273143463 0.2585071964761161 -1.1585079741271727
Ni 6.061940928592464 5.911151893931368 8.940002242408493 0.1129166801960894 -0.664516781542991 0.9236430996603447
Ni 8.730206195160076 2.5739914495619947 10.251310688417256 -0.22816123719440706 1.0924740745255506 -0.8315793516538645
Ni 2.4003018925513553 5.195855895845176 6.897353801405557 0.7560004886762852 0.32435469109854465 0.20116182578742775
Ni 0.5789061212278152 -0.19011704679288818 8.923842834137876 -0.5169025499647162 1.8268492716225764 0.1787127527552922
Ni 1.2784034851454842 1.1658819503311835 11.234177480136571 1.9595523904169738 0.6493495868842494 -0.4400113959336163
Ni 3.8512953461343455 6.915457936574112 1.0406969719081176 0.35139935392116256 0.32333859112920443 0.6442631735002775
Ni 5.75429240334587 8.02824157258451 7.649762276961311 0.10211007649888866 0.6582941976720469 1.5756625200672736
Ni 5.193229605782073 3.161862398288946 5.010732435175729 0.9633095650120311 -1.3763709147193652 -0.680428567677241
Ni 0.9341413866662276 7.847000295703843 6.8399225628560965 0.2578137699535173 -0.8738192341596823 -0.3388045479752875
Ni 5.263339736705376 4.607503309148174 7.104521741089098 -0.4409717029643567 -0.06441076217590198 -0.6819396050051287
Ni 0.9730813621693191 7.818292855187096 11.101291746698028 -0.2442260039667536 -1.0645832616525535 0.6290144748713231
Ni 4.675686888191277 0.3515802693713545 10.264305826099733 -0.5723170221792788 -0.38827411546032486 0.06753413829623207
Ni 8.37120415729552 7.079278458953162 4.641484231061525 -0.07170960983016036 1.3476630052617111 0.7011701710999666
Ni 7.057286687490505 6.18332278455391 6.7588956075286255 1.4394719569449081 -0.09290809828464644 0.19416045476893012
Ni 2.3651241457199745 5.337984534554242 2.588474212446306 0.4396784380742299 0.18136484566615863 -0.043605395394776515
Ni 2.5097245868413727 5.540835907525072 11.35699425374841 -0.3454161397545341 -0.5970286659933459 0.1579608649199215
Ni 1.0088861471126518 3.3389870336520158 3.587008778206432 -1.0406213515203175 1.376554491485081 0.4626101071697387
Ni 1.5598163722876623 1.362799180010644 2.5210676154114915 0.5086765625104981 -1.2844881723754393 -0.574442553162714
Ni 0.9556969577031781 3.4751451790342376 7.728408304965139 1.1668658591735646 -0.14665778120227646 0.6471790615954919
Ni 3.63533978537461 2.8321221389821374 6.847024451037115 -0.6326867815165879 0.15170485670788067 0.7125704425171082
Ni 4.627304990973434 6.973599818317117 5.786961997729444 -1.4283964158570368 0.022318718101858336 0.3034071423126
Ni 0.8374257560275458 0.11442264166966754 0.002467258657897161 -0.3411321676671996 0.37839156623929027 0.6988813750657898
P 0.5234523246082201 5.872320968534703 7.725095907982438 -0.5126458315708913 -0.51435870049694 -0.21336453850120674
P 8.851633488665867 1.7367410824556175 8.105197323938729 -1.3687316530065525 -0.5834974642761306 0.5181508205495206
P 2.00938452353934 3.380398811567439 10.281596629224525 -1.0552074768646085 1.2477856747480833 0.9206819601494918
P 3.999576228347635 6.310556996226905 3.777644721755733 0.4991462544225597 1.6586847266967757 -0.8680332236055244
P 7.207548646637208 4.237096447653189 10.19560880280554 -1.0398811309201832 -0.7137220396230483 0.27944266107720256
P 6.725447213634989 8.042481698982023 9.936103173293537 -2.635162967880281 -0.3820186214689163 1.749899239329083
P 2.7396203862059485 8.75758685938197 5.66551562045503 -1.451610906300287 -0.3285661580767309 -0.6386679388006872
P 7.114201755536214 4.196847870872982 1.4552200539578999 -0.5665587795392629 -0.41084685855451825 0.6611401517612743
Ni 5.562582316248269 2.97156087506602 0.27278066246764227 -0.21534557348697753 0.11830442687056399 -0.29123759682960165
Ni 1.6353153959702025 1.213500496804042 7.012868761641261 0.2695282301769681 0.1222721532690604 -1.0059952768060159
Ni 6.748247773386975 0.9335597860986202 9.213380862959706 1.0347630929673277 0.12994586776423428 -1.034530151020915
Ni 2.7301602894734587 1.6947749664991936 9.193191144505747 0.23056136199546745 0.5673650774906422 -0.839758030809915
Ni 6.378059012104842 2.0855923729136516 2.3698142090471963 1.394222341078489 0.27475939666892035 1.1195009967363558
Ni 4.382896439945278 6.911041407263843 10.329850392567318 -0.06186742692875797 0.9316482293530084 -0.25123020319872863
Ni 8.254211568117736 7.527828809211526 -0.11460711809970552 -0.594993380730872 -0.10374581233009875 0.36593071476811817
Ni 7.9787600867935335 4.321473967500612 8.21644297250784 -1.5599731343564747 -0.09971355124225406 -1.3475789301883372
Ni 3.5238269640447535 8.580825724373653 12.432657233531263 -1.935751431342634 -0.3623108586273438 -0.1196822810546971
Ni 9.343776618968182 5.241765990650688 9.966201911418109 1.0904634718534252 -0.8680080267945438 0.35191486010500034
Ni 8.75766864696179 2.1335653322323958 5.816556379111793 -0.16378338513896953 1.3656810391056866 -0.8408769749057066
Ni 3.61899135691952 2.379155259413504 11.49643662483584 -0.13256710743716524 0.8269709063475758 -0.25754380412158223
Ni 1.1175091406222089 3.561949063749647 12.6574622104275 1.5519407509703014 -0.06537826829549385 -1.0551779091782536
Ni 3.202492650441646 8.556116787759207 7.775132640565302 0.9097342028887366 -0.5579373564188391 0.555755518276172
Ni 5.854282263430004 8.016318760948558 3.538315179434387 -0.9724552360670412 -0.23573802110040046 -0.2923611689110836
Ni 3.283589579587408 8.56074232977346 3.3931140539767566 0.7770537098021585 -0.5998280831153541 0.3824785918244703
Ni 3.74906995886847 4.463484468594383 9.34871295378575 -0.8512773443034243 -0.5187563153440033 0.18589332966413147
Ni 7.437980609025046 6.170400346942382 11.131297792232136 -1.6098831318130402 0.9541574661991181 0.3749815121164768
Ni 8.421639831517725 9.158664063309377 2.374562432431179 -1.2277894341318145 -2.0240649682780627 -1.7098226830231713
Ni 5.126863528512743 0.34586422629283764 1.347924745494084 -2.3245937606016027 -0.8872049114379689 0.9614115766583701
Ni 6.1870304881724065 5.773803284887325 0.18381940314676395 0.8357861906463606 0.04238206451063669 1.2102213433410642
Ni 8.112355554674735 9.350319625353766 11.04626778924793 0.06028054205761231 -0.7833853084471412 0.9141747551585935
Ni 0.04908981415872809 4.932699814020549 5.594078713236873 -0.17995176736871588 -0.9508836805438527 0.6969270795528965
Ni 7.458436591488864 6.195990771917109 2.6489115989295877 0.11364610216294622 -0.9112894631909982 -1.513792007814722
P 8.61716667234025 1.6136416873179567 3.612106660200467 0.17895777888656275 1.5274558784550598 1.0197463078435212
P 2.006003970240122 3.2998562204626785 1.652173633672836 0.36541649413586097 0.8840949050540773 -1.1002195227989247
P 4.632094108147325 1.2358466811125841 8.176341613371308 0.976199533600822 0.20286698140399254 0.006638074141807922
P 8.761658063355222 1.907468111575006 12.487096864161092 -1.0989686811109591 -0.6252879179493553 0.49658620700486733
P 6.653110643038814 7.861267684627963 1.4925142816048396 0.31824754975954217 -0.048379933965284415 -1.5630126925137469
P 1.644248417188298 3.2004479609461516 5.610132706404611 1.4367219050035966 0.6183356550012383 1.9652784942674733
P 7.035894691613194 3.8271861851052438 5.956836618516932 0.07560174579571495 0.48906624447873837 0.7871162362444831
P 2.4595706253941003 8.778969767750413 9.831055205772993 1.129082469777204 -0.6120644772805459 2.495598603189676
