# total energy = -340862.4805635538 ev
CRYSTAL
PRIMVEC
9.33389853220998 0.00000000000000 0.00000000000000

0.00000000000000 9.33389853220998 0.00000000000000

0.00000000000000 0.00000000000000 13.66110398681091

PRIMCOORD
 96 1
Ni 0.9031592233767592 2.8156171639842857 8.013630725302155 -0.38769767413156453 -0.7774373183938224 -0.33372533368016716
Ni 1.8745268437220142 6.1511044749325965 1.2975873743067365 -0.7471083283929778 -0.5469325206679032 0.13085963782775528
Ni 5.349173247998271 8.536886277266518 0.6992546094385347 -0.8233327953743562 -0.171490266864924 -0.24603940302640853
Ni 2.5181831531191476 8.213168008113668 0.3122123724229984 -0.06330673047844582 -0.4883548202340106 -0.4919080848029076
Ni 4.154228889152582 6.372896572032245 13.266625615967955 -0.1291154014431389 0.5095687353074644 -1.975814617912107
Ni 1.4084759557377293 6.0386963348193445 8.882586810870146 -1.0349950064724758 1.7874455730139733 0.7913536713645983
Ni 7.165801919078709 3.7956018394613644 11.192405613328816 -0.5217526789681659 -0.6928503383803616 0.9748828716719274
Ni 3.744274731391717 2.631870037332334 8.493518184481648 -2.0889842946592667 2.215071450799043 -0.8104001464730882
Ni 2.8883095658112397 7.213880830456552 7.2294292386439345 -0.2892282797090567 -1.291689318109569 -1.0446173600535882
Ni 3.22192176741614 4.484658231355455 7.054894669850636 0.583694410778285 0.10151229501388968 -1.1094852643715667
Ni 4.89800992818476 4.848820282880697 11.099482919806979 -1.237457553349198 -0.9550398688040713 1.5736737717720188
Ni 2.8386438916816528 8.561835788063057 11.722416107666339 2.069816206371248 0.5214094366961343 0.6689606762469575
Ni 2.6677028738261286 1.1755578515787932 10.286278210216441 0.4306335542631422 -1.4912555172751027 -2.6250065961725695
Ni 5.220486788831835 7.2763806150781845 7.411585868984727 0.9307961657653582 1.1096421016644051 0.9755503300525972
Ni 4.710939933652686 3.176839037469532 12.940863223034917 2.2783020766239153 0.8268405514172985 0.27558446367337697
Ni 3.8021169006420545 5.819956422542169 8.913911374369281 2.327373380229269 -0.29510427887385954 0.5523490636977841
Ni 0.5065310725609814 0.7373873185325043 9.336900321440796 -0.5209214413161222 1.141037328146235 0.42194888200495073
Ni 5.83291187371523 1.1086991363391339 12.342739537494003 -0.3418155668874694 0.7479879027844537 1.0870390195529085
Ni 4.802972173253836 1.6136910490309238 1.5684860450134457 -0.17414827331306137 0.5843143037504711 -0.11525895517602086
Ni 6.028811736265833 4.726891566256983 5.471108498350964 0.31837327670412907 0.5684428839358533 0.2164454914193756
Ni 1.1968671419448609 3.8635152852360064 2.8875068505368273 1.3487097013586709 -0.32984631034073514 -2.1493795079178724
Ni 8.736071672103085 4.540708292086176 9.340342663222227 -0.06264801384852436 0.09477214807657872 0.25800865957314273
Ni 8.979602418901626 0.7155217278134723 4.126117986920656 -0.6116001360496176 -0.47067077269068613 -0.07498596658858699
Ni 2.91887808352866 -0.1677777596404301 2.2679618678473705 0.3974943485070122 1.787411377341928 0.3825341276527541
P 7.099269890287938 8.577087378276879 8.554528278896349 -0.19268618421624878 0.8029313488998687 0.7133204333092554
P 1.3327687046824623 8.419447165840385 8.391114116823216 -0.1160318287863034 -1.0935068866654394 -0.5881079664649483
P 4.840681123354105 0.17810571837457542 6.663025873900238 0.2327655687356378 0.32738987838044264 -0.41022413736885477
P 9.30298466770705 6.412462967941908 2.4683429350868695 0.3096883473356215 -0.5827914393480415 1.4612895670406316
P 4.431165658824604 2.699008769528183 10.632095417551815 1.514109539055141 -0.1876254818638898 -0.3749527157610704
P 2.271292202846325 4.12910203428379 9.068555405374541 1.1014665078321482 1.9468017756195244 -1.10043035325815
P 1.4511785415567215 4.6413650539379825 12.227876582064818 0.5121010148110149 -3.0225947899449688 -0.4954500365178951
P 6.1632852125268665 3.670182244783813 3.293077809543464 -0.611085144086412 1.0307884245902956 -0.6768799310940342
Ni 4.836732884271824 4.6980871553635595 1.0511957876057862 1.7950185002652246 -1.1050789077737548 1.724565902770617
Ni 2.759100408326581 0.49682475146957805 7.365247729684533 0.3882440335533378 0.7839445233847209 0.4522287639354147
Ni 4.597197046048262 0.9181793329067968 4.324818952423015 0.17326304249463065 1.3685462764686238 0.14401443004215844
Ni 6.557642425827942 3.082678669001336 9.072940470908478 -0.6469728591219567 0.7439353299816349 -0.28332374129916366
Ni 7.960238025485679 1.5964140028339935 7.89140519070488 -1.491506456943644 -1.1400952759479397 3.5814328038012064
Ni 2.4973778932742223 6.842485007563065 3.270386168803671 0.5944485639709957 0.7037356178342976 2.0932240437722274
Ni 7.464813358797052 5.518387494623956 3.5949874247583735 1.3629857516617108 1.9243460177191698 0.7658827807870036
Ni 8.270198128191055 8.896754735463512 10.783433381694325 -0.9325594283133681 -0.4135290333723717 0.14724013606830771
Ni 2.797425395730468 3.781330308594208 4.764282230417049 1.8374599572588872 -0.535355357353265 -0.4684737650393674
Ni 0.4757796104321831 3.0750342060973463 5.36597239858997 0.9411700528005147 -0.20038946639777747 -1.1829488807783561
Ni 0.5451211426833947 8.991297793771835 1.6311221045537583 -0.4389454165629472 0.4444118389941572 0.25774383594753025
Ni 8.645103496935457 6.812849879699611 0.5286141431159876 -0.6208283395161049 1.6240524813348867 0.007960649607973387
Ni 3.0335076914943526 2.101984617235243 12.155787150083528 -2.3106131300517947 -0.054947816990789246 1.9980595453532362
Ni 1.1388756303178884 5.259539820321815 4.662972095667466 -1.1823819525312926 2.608138359662321 -0.17780849577346797
Ni 3.337307421163546 8.332557904334593 9.245548523043187 1.3261266738518322 -0.450987692439462 1.210928653820734
Ni 7.355569410288749 9.47624049240041 0.21661738374925563 1.905555624485544 -1.0731262661265584 0.27556620884093186
Ni 3.5733430474347316 8.300374622169809 5.188310040396028 -1.1946448290590457 -0.45128079819984857 0.058867977980801844
Ni 8.37908738855485 3.5075857322227537 3.3998800101937885 0.7028655565245185 -0.6136860720443689 1.0017892091444682
Ni 7.774670788618491 4.515796116883796 1.2359024390276165 0.6577740635025188 0.17507952687807912 0.42336118897144503
Ni 4.783482993103004 8.252286376893428 3.067997379988289 2.2186188018306696 -0.09108595747424313 0.18364130040516116
Ni 7.829955469668959 8.70877935277309 6.495950956819844 -0.1032452185445964 0.8572294481218012 0.4543563518013788
Ni 1.2047729540079617 6.478584305196934 12.851888768595362 0.0018054286398549552 3.066280403758377 -1.042079938343715
Ni 6.368453636327362 6.464872808242157 1.7570914658552965 -0.16051628435192353 0.13581775316397898 -1.6821041340619804
Ni 1.9285141128754677 1.6567669907915026 3.8725542325818236 0.2562394834878619 0.08378531004777183 0.5042714914642671
P 1.5938098451414255 8.892713157395836 3.8218030260520734 -1.1973591426664152 -0.9645043566510808 1.5538644503555754
P 0.42615873901558715 8.695749230411709 13.137378189499284 -0.38174762719571675 -0.6248739703403883 0.0774529400718408
P -0.3214734665540594 2.657407583736872 1.3919437546442652 1.5723617378288146 0.1027094006457844 -0.6566360932433336
P 6.54723512895621 5.249123189551543 13.294808389218636 -3.0681290269313415 -0.0690387478662166 0.1919253947908243
P 7.952518891393371 1.7318675384416908 10.840796721949575 -0.20764049153323597 0.5334270299823006 -0.07875700359524501
P 8.444191330869051 6.598786250590809 10.49019775839233 0.47767342926076445 0.12374359560826431 -0.06384486237010294
P 3.5414957856173768 5.940886412022138 5.145058621342903 -0.5129294242495811 0.004770939026082106 0.694866597479442
P 4.139453327764284 6.73101025730378 1.6931299927223507 -0.7293366062318536 -0.027039777726611494 0.2465304837302141
Ni 7.779869770105088 8.086142982887294 2.3803924093171167 -0.441906041853168 1.6830035059477984 1.6526161519051923
Ni 1.2017767725767277 7.846989834503857 10.549104925466045 -2.7491559118596847 -0.08331788349305005 -0.9859542989947407
Ni 6.651466773948709 7.455087436518714 12.372425068409571 -0.34274450645964194 -0.6582060088336148 -0.4835949369515219
Ni 0.6558790495348321 1.148545549204987 11.963083214392908 0.4795485347962902 -1.1258539355375772 -0.7181857318213566
Ni 8.991615146322182 7.6246937068830665 4.828476117623632 -0.6050399663335967 -1.5962537139550639 -2.3004950677811866
Ni 8.352551115006568 5.415397258137232 12.471017171904402 1.9009716046592873 0.2687299026453888 -2.1904896476946214
Ni 1.3316486368577019 3.0840040825939696 10.465020500471422 -1.5635371975586492 -0.3180688580898329 1.9476677231642454
Ni 5.175432060580845 5.956754039539578 3.6798782985868224 -1.7648826001117928 -1.0075225120838198 -0.5906448739541892
Ni 0.8528047075349451 4.9694235859117795 7.043965608050537 -0.5002490005684352 0.04126569151800635 -0.6262104297636247
Ni 2.0727695148060743 1.7630894290568886 0.8722873539567992 -0.22845794249921947 0.32314267306831446 0.287237474531273
Ni 2.670101685750824 6.006102361118816 10.931232864900442 0.4566685448743232 -0.27622466836053716 1.038408660139715
Ni 6.4359190549721 5.785467667438086 9.901772926823988 1.0446626114692266 0.9088813679701379 -1.8202073408260266
Ni 7.399298724947105 1.7481551913934161 2.3820454427484923 -1.3919556565314994 -2.5650772668067887 0.4464664075303407
Ni 8.09983581204499 3.672889075360317 6.700060916525942 -1.6550934098010917 1.2123234772857314 0.9611189851186157
Ni 2.751045253886846 4.213265797415998 0.4042950150762631 -1.2389084268631114 -1.0211876682757381 -0.7148643807576075
Ni 5.842068428182647 7.626635157779318 5.222230361079045 1.2815368030565994 0.40852438106892874 -0.29762370286160356
Ni 5.652272935276989 9.284354206221867 10.5620827779956 0.42517690202394515 -3.470708760381062 -0.44849809324838885
Ni 5.761236866829101 2.857470365036168 6.705197360892322 -1.1571527456508586 -1.1812712359656172 1.832819116052766
Ni 8.094002125457695 6.605506657539372 8.021568272620293 -0.41638604320519257 -0.43152778394263747 -0.2797036280480731
Ni 5.047678991268376 1.096462395353626 8.866315958935793 1.9480608448376062 -1.8694750767129031 -1.388471297527325
Ni 6.779359851739273 2.240910363099698 4.719924744386972 0.4254232137067964 -1.2981690122966416 0.6394618954568922
Ni 1.2558107112228796 8.377145937658598 6.134928828763347 -0.3965553816325106 0.916115680935048 -0.005518101604751787
Ni 9.153530284289847 3.2245072573116285 12.401509496259184 -0.13533798531408303 -0.40569745314309485 1.1369076222485777
Ni 7.048978844956194 2.3860618192901124 13.92134819547372 -0.008094089862044124 1.3875827242747847 -1.457605176210509
P 5.933083272842974 5.274614066463384 7.65459018390563 0.07391793033538882 -1.4262626573434856 0.7312657049337664
P 4.69496029935277 7.140413715050805 10.963022256546854 -0.007498365259574184 0.40671612421559633 -0.010103149872272923
P 3.861415158064581 0.5398736249243921 13.497785213642018 -0.09140811670035225 0.6572850396812422 -0.047754898786775815
P 2.2450732818483905 2.354793259182217 6.327891313443517 1.233414750738392 -0.10635651048006844 -0.1375121101472664
P 3.204159358495147 2.8464937003535153 2.667603934501608 0.45259514613589796 0.20729596370962364 -1.326956111731663
P 8.609522675702234 1.52684845701783 6.088111860468068 -0.15661669218720126 -0.754052878031611 -2.2141962472829415
P 6.627599995382773 9.346405963713595 4.047880315971285 0.5037685836859195 -0.12682377719548482 -0.6006510932372817
P 8.582799724183158 5.7028626653620025 5.789274964652418 -0.8084286245690141 0.1260799570509248 -0.3036632241874641
