# total energy = -340859.9920935199 ev
CRYSTAL
PRIMVEC
9.34906764091946 0.00000000000000 0.00000000000000
0.00000000000000 9.34906764091946 0.00000000000000
0.00000000000000 0.00000000000000 13.68330551072767
PRIMCOORD
 96 1
Ni 0.7556954022675849 5.57244618288973 7.52618717675488 -1.9667792471827161 1.8938589048739063 -0.2501544536360466
Ni 8.702850516291962 7.652632378491945 7.970442706021867 2.18636482689297 0.38808385382638966 -0.783723151402534
Ni 4.288707039463913 1.3808105102851618 4.655963649588689 2.107781886981744 1.5923453800395933 -0.5442536882841594
Ni 8.890009496659601 0.4303113952334013 6.443440828734917 0.8839894898244646 0.10170692752319903 -0.55874288303927
Ni 1.5721485237825459 9.355705242204978 8.963481947576891 -1.8368287514327915 -1.8189719257570285 4.279812813750545
Ni 8.471872457000142 7.7747872931971544 0.02936542071705673 0.20555609820038145 -2.6857442803722584 0.5322574351542317
Ni 5.692572349968197 4.052970304863281 13.265006558452164 0.4174551078996553 -0.5341919331727831 -0.501566176717962
Ni 1.287534864791983 1.6358343709409635 13.026848415393806 0.7566085545739293 1.289179921424154 -2.80217668703109
Ni 2.4914797179216914 6.105520657218244 5.540438715724205 -1.509251439631891 -1.003817809538723 -0.35655544420080526
Ni 3.549214505914803 3.5181756021323682 3.3662439077443107 -1.2054138946500916 0.8410826631586096 1.048529807734117
Ni 2.666251183978571 6.364695503801575 12.437932896365865 -3.0867759526085674 0.3293976528390908 0.7109889569626013
Ni 0.733793342059419 3.365019179914341 2.5605160363556174 3.6988463434263847 0.44554338149543915 -0.6882660614437889
Ni 2.539926585211022 7.58454312058608 7.335359622337775 -0.1240403009130767 0.5843171319639485 -0.07475431019375513
Ni 3.003490743388208 0.9380386780152457 2.9319628984910233 -0.8268377232038211 -0.7590765564984474 -1.3863192841813288
Ni 1.0793030864949424 3.4918112320521075 6.660307405686613 -0.7417758604364708 -2.055361721508815 -0.20950094178074244
Ni 8.387730850361011 8.700475853171257 4.582825895284476 -1.4927796672291131 -2.118835830803061 -1.7173331324676038
Ni 0.5798497283659458 5.420972592804486 0.4575284002609389 0.0008456358297469306 0.8457314747845306 -1.0575497518445398
Ni 3.6535594472147297 3.322873584055541 9.095689914461996 -1.9749571550078182 -0.8940221914701184 -1.8653230022177425
Ni 2.8296167878021463 2.6357919223752053 1.1311464699722726 0.6617171073106669 -1.3825065953034577 -0.8633823550970745
Ni 1.2345443507441392 0.35901727702132513 4.612067908311795 1.053145195018941 -0.685329347412968 0.6887139476144848
Ni 3.7379628277411827 8.358589807261659 12.888496241410564 0.6646944447714359 0.8861325043093965 0.055076115038537404
Ni 7.071167131278528 7.573305541566054 2.1033288770549374 -0.3734460493085568 0.8944322824243435 -0.029506236989233055
Ni 8.115560800085635 0.35681557164760125 12.91293470360553 -0.0778278069127563 0.9345790298465582 -1.5406196695305274
Ni 7.030685669417702 9.370850731400022 7.740263057086379 -1.5979133610456737 -1.6851017832377237 1.3825809001848188
P 2.318372385862786 2.3042552940822203 4.786187744370592 -1.0485259510793747 -0.3218038996522329 0.5747893949791714
P 7.0414931913371275 8.203591618764975 11.490377802639733 1.1935063445792284 0.44115707950228544 0.25735945602491805
P 1.1509823862840776 2.5694041947369315 8.979819442865988 1.366471396217466 0.28028135492841405 -0.4950065212225733
P 8.749810881864 2.2149903985055066 1.423173004507743 -0.42629995988479485 -0.31624388906595213 -0.7026261868202028
P 6.881642836857588 6.0949749091861385 0.3553664661999273 -0.2257587984005015 0.6788231708633341 0.4645399772026
P 0.3095588406388439 7.635299207524284 5.970806205362033 1.3516636417806722 -0.5672923152711778 0.9708562670110376
P 7.238263012996438 6.275075343663496 4.246052854338315 0.471972008000613 -0.21983909048195688 -0.2925149208801285
P 6.869199228142401 2.9193865330186948 11.207844311146637 -1.8061030402141607 -0.6468227066973377 0.6251251671192459
Ni 8.77980269009715 1.5955492394956288 8.300566690230054 1.1202437884396512 -0.6252005004418717 0.8715548636055377
Ni 6.816442440779665 1.942848395432344 0.5069503752805431 -0.34724162299904715 0.2315916030321947 0.8383981743479109
Ni 3.8367170267333095 6.1888395459257906 3.50486907449576 0.6129851893226024 0.3295007540758583 -0.08118823874455695
Ni 9.063930197582685 6.330730341921579 2.6625526929134105 -1.528875898731038 -1.0286281837141833 -0.1009638787095874
Ni 7.881058142382377 4.285593800018265 1.0822087766442137 -0.20395764336501002 -0.22504068928755439 -0.39925195462806723
Ni 3.232823366816862 8.570748193868527 5.348790313188997 0.4055604133445983 -0.4866614916919877 -0.7975767694561748
Ni 1.6469784592869463 7.215311052518764 3.348647093075847 1.4913573329602896 5.251508545943743 -0.3375022842240961
Ni 7.031022235844258 2.884243388645751 8.515476507374022 -0.9848327837957879 0.5828629160159252 1.200953544885893
Ni 4.6973360775731505 3.643696181103143 10.950516840282404 0.5338666886228806 0.42183575346585417 2.3595337670118974
Ni 6.582098717222282 0.5189461636670619 3.2106642072550766 -0.43783984220359434 -0.1671258192486412 -0.10827481054870385
Ni 4.79467856738722 5.982935685412434 6.211755045040588 -0.4118637298548068 -0.5096026738691933 -0.7860551419698205
Ni 6.028970493311442 5.426086532674664 2.494138592691488 0.7092010118242431 0.027912410139551928 0.46103684914534787
Ni 1.2394058657944 4.734283591955133 9.899474114737323 1.6197361133477202 -1.9180552996144513 0.28271104741582925
Ni 8.823696561560562 8.694230676145153 10.11423434680282 -1.0750340246722325 -0.7334884236166981 -0.24009372696593487
Ni 3.932507571358258 9.04166071902553 8.980175642334094 0.5818956670066494 -1.240416893087838 -1.976407000080467
Ni 2.6036872249086747 4.892348274560444 1.52880811710947 0.48380011098379255 1.745004116020311 0.9158220609540292
Ni 5.266647537160916 4.4071784216118095 7.920635549425203 0.9994150524853367 -0.639971488103459 -0.9834631571417708
Ni 6.915869772624905 0.7983682855279904 10.115971403526549 -1.0735597541195512 0.79847099913567 0.39408789392862453
Ni 2.451194586476356 4.2019757411537775 13.008294256223138 0.1075387037136277 -1.6528578356023533 -1.1191328147636597
Ni 8.216381142974123 3.8631281421505927 3.41711779293181 -3.1584709071507087 0.5672534916134424 1.5342592745301382
Ni 6.548236395083733 4.761003226596759 10.148866097188748 0.813637165353147 1.3886209357313117 -0.8842437719271159
Ni 2.0974632721654496 6.84548064413757 9.433640002994363 0.6642270182167141 -0.07139773501669638 0.5070598528426816
Ni 1.1056955037774165 0.7420915742875183 1.2066813251589612 -0.5438801069948247 -0.5251089970349085 2.6901835470905344
Ni 8.87391975165672 1.4590622044595538 3.614417706712947 -0.7151364034720715 0.9223819735597341 -0.948681016465579
P 5.18120641015258 7.770524118460772 7.208912550787228 -0.8000661115369317 1.854205295038026 0.6533527945063715
P 6.008355799684856 0.017169562288084902 1.152245445290405 0.07702639405738347 -0.6093360226057893 -0.6569255994592944
P 3.9485599200915233 5.9567676457476635 10.930019009998372 1.0540556226483524 -0.9225804627237852 -1.3188262835356772
P 4.693353374858899 4.151892787068686 1.485336823492733 -1.0307642562205797 -0.6667289587029614 0.01882227491282565
P 5.137854784598619 1.636563598198503 8.529228050619075 0.09955748528036401 0.13419204463509793 0.9769726643214206
P 1.6116763807681287 5.2995843016264335 3.566293382249066 -0.07929102172184409 -3.8532935387660925 0.888608733764031
P 8.238444942048384 2.7388373433059283 5.4256087953303025 2.871813216382306 0.5148690644744552 -0.9760984892465835
P 9.486311713843719 8.798098815007457 2.597666425500275 -0.8308095633673755 -1.1564665182171117 0.619804526237281
Ni 1.9368649922935615 0.8708394513262739 7.263070763353875 0.14982306630413553 2.656813456270521 -4.745051359682067
Ni 3.4048742542590764 3.434398609122007 6.499460440621769 1.2555480923023217 0.4298221141054404 -0.9218749520163285
Ni 8.801305545127148 5.962564067538359 9.636235228553323 -1.9020075021229692 0.05357459079234644 -0.551776736134082
Ni 8.811150113103928 3.117109959553248 10.487980144612957 1.0101460657495958 0.02578842181801365 -3.509671257687188
Ni 4.167758154453864 0.9735090397473416 6.763164910362509 0.8551072595724756 -0.5936453513434099 1.9910661447545386
Ni 7.061761969469754 7.065725974049197 6.387051928685593 0.6277307230628931 -0.5549754455770378 -0.8233430797870014
Ni 6.741612505275264 1.7810253877304865 6.450063708084156 -1.581679929905947 0.808506014774169 -0.8473844370069213
Ni 1.5103231410375932 8.549348178579974 13.029393231541269 -2.1146413331057383 0.46240647579936495 0.989419888945838
Ni 4.706198993472473 6.345286839870149 8.948539333144522 -1.066197914437841 0.7318580871021266 0.02958157031185873
Ni 6.979069468278297 4.530745045495076 5.933929743892322 0.4432674409770688 1.0872601344247792 0.13428768967269775
Ni 4.824819960698838 6.315023908682275 12.935704357268818 2.4733441626668498 -0.5959143498832448 0.38297352918301786
Ni 9.152503262171479 5.166977129563162 5.199752155162585 0.9785106982325019 1.1215398815432556 -0.27224202956370536
Ni 5.561021622521618 2.6244047582767096 2.783348253218028 1.191558476824238 0.1969339037490092 0.08196908277463949
Ni 5.052647384275392 7.952943121654408 10.826491177189585 -0.38655533299700523 -0.3204507280584481 0.5100590446803216
Ni 5.358960228711447 0.482078116358016 12.622562019093888 2.775622076471013 0.4220496692488731 1.5834339364825762
Ni 7.9458191322922955 5.389709311404347 12.238813654067842 0.2455722335820029 -0.12240019420649244 -0.264831338921931
Ni 5.904852274451319 9.053169421000282 5.363390751754366 0.331833515974093 -0.9414947831297851 0.6697399776151434
Ni 4.165505029209416 0.8665697322427083 10.83678076077481 0.5210679941963154 1.5552875559553472 -1.0106029507813563
Ni 2.545582770990653 8.616222057723274 11.041646874806286 -0.7434349933064487 -0.24010324004763162 -2.1012978219192973
Ni 0.6425520536334263 7.00023575688174 11.296991408474057 -0.32591457938649676 -0.4840348527024179 1.1417916898137561
Ni 8.558659849714704 2.6413452684133882 12.590556421741844 -1.2647634402530024 0.48522913012083535 3.004486510380032
Ni 2.5888689530727835 2.5175916631820354 11.065674912942201 -2.356009813019039 0.3638805171073088 -0.3916080649295643
Ni 6.887663636265987 7.397935735195295 9.323544450334023 -0.7412058468656139 0.011110508090864736 0.3471439210789183
Ni 4.071920864491894 7.617788404275941 1.2217370633069229 1.7269783688668516 -0.026615288594683192 2.7915485178932826
P 5.552186753824508 3.313767592403706 5.19468870025639 -3.1872207255898917 -1.7463747711155926 -1.2708872937625533
P 4.575134417530919 8.668408551974343 3.6107912034668 -0.4011466005476188 -0.35535705301732995 -0.6313179261935192
P 7.497624840927857 5.0037704598854615 7.960153122436641 0.22779716898676897 0.9710267311506309 1.534640312018641
P 2.6378580662715665 5.001536032775823 7.93780885134025 2.2205237321628664 0.07853820271621957 -0.1422506532735163
P 0.536752397445383 4.245710678471316 11.959071794101684 1.1735183314930757 1.4941577785235622 1.102883957004965
P 2.0442577295673057 7.23420551774295 0.906307943244889 -0.9541469246761569 -0.9969053986896056 0.5111026554534875
P 3.9535990674224673 2.180885000614446 12.705920173884536 -0.48233535351280804 0.7874265683960503 0.8153808875171312
P 0.7263524193122985 0.61925137294157 11.09171487038353 1.5757139421304993 0.7651232769131597 1.4933980175394022
