# total energy = -340874.4044761793 ev
CRYSTAL
PRIMVEC
9.21168912186954 0.00000000000000 0.00000000000000
0.00000000000000 9.21168912186954 0.00000000000000
0.00000000000000 0.00000000000000 13.48223816166073
PRIMCOORD
 96 1
Ni 4.330286174784389 8.929175997774719 4.288645654487048 1.7146391305752082 0.8260599644975322 1.491924261207353
Ni 7.773173472849029 7.2042503301882 4.986743394988239 0.4268874569571487 -1.0687705602610238 0.28489597088229
Ni 2.48550721775696 3.570874509154642 2.201878383138978 -0.6667878369653548 1.1519580888237968 -1.2054419196745498
Ni 0.8614661290113432 1.6773933508149328 5.521556573351878 1.375732509804418 0.5587943051024956 -0.07239943680833338
Ni 8.564964226357095 -0.12551755718952404 0.8080447792723017 -0.4484101615202729 3.0644806315454773 2.452221264645306
Ni 5.4955648708319735 7.238784953361974 1.3750260978293616 -0.8071952663825454 0.8427703352736775 0.585097975994031
Ni 7.223862016701127 7.510363977210788 11.514168538768391 0.21076592453609508 0.5629147550287724 -0.9482467571416378
Ni 1.5285324517783399 6.033555160834085 5.53791008536052 -0.8176321454451532 0.23294914550135368 0.8958232492345992
Ni 4.320374397101011 1.463903239671859 8.465672348595612 0.8203731985254 -0.26399161662945503 -0.8152099091569056
Ni 6.2082364249696615 5.409002626509767 10.081047080050784 -0.45210175143924713 0.07995925143346229 -0.015051752126799886
Ni 5.871051749948904 5.827922620661197 6.116284421239886 1.630751233511301 -1.3209178759573834 1.4538253974531028
Ni 2.114801205385079 3.905304889075651 4.8295265725905026 -0.0018041430882743121 -0.40939032861364977 -0.7380277062479483
Ni 0.9124758584924776 3.680383071515225 6.974550409389514 -0.02556473584298178 0.24009372696593487 0.5152868687381641
Ni 5.645743041438012 6.59232702188982 3.8080856414059543 -1.5489557002000485 0.9224768472663856 -0.48596395140433085
Ni 7.315066952428931 7.977765092131377 2.7121949161555867 0.5014471346415945 1.2298946534002755 0.09902526692597784
Ni 3.8140262598334727 4.385547098876005 13.170327103416298 -0.7680666758121998 0.7871211213404896 -0.3620339508168733
Ni 2.5414405951672445 -0.033097599643470144 11.795151776220328 0.15145057460522948 -0.06748657288774829 1.0052211176441526
Ni 2.6399504005074252 6.918024720357445 13.082220058799017 0.5414738115461771 -0.04268828289714583 0.7534239861983605
Ni 2.085065872334948 1.1863826762265972 9.39074334986363 -1.3302921180834315 1.1176490311292817 0.61174077539254
Ni 7.835426069116932 0.5883680975974842 4.987605609106421 -0.00996508163251187 -1.4825875571874596 0.884116245210316
Ni 4.064722384046398 6.273648630666372 8.92903045308383 -0.34131317332975414 0.21957658084918957 0.5869702533160794
Ni 1.4101530326249208 3.6003150681472755 13.023410791990264 -1.2761102327243894 -0.15134875892004257 0.3719501814893207
Ni 7.035961978424616 3.157776302638801 6.360326942273719 -0.7169413178912943 0.2872583004668795 -0.7534101022412896
Ni 5.995455613902442 2.0167243494418488 4.122409667098796 -0.2625913938478187 0.19912679763526994 -0.08712157350985641
P 2.2924302100956373 7.326203884788785 7.42834954389442 0.48043839360041135 -0.7755095052434903 -0.024142144463842292
P 2.6886065433732225 2.0411905962141996 7.2859091922977095 -1.2614803986263565 0.6353201053743768 -1.2197714489233444
P 6.480229974836831 5.215566362965868 2.0137342350961016 -0.3492833360194243 1.2732457666924006 -1.2586154183737357
P 4.7645896900615075 3.982434363557915 5.576320987390395 0.8031514353304748 -0.8194144341565566 -0.6219884212624772
P 1.5637947984065625 5.424229548917408 1.1847595765724976 1.3974164225357546 -1.8700484327178697 0.3371790965567225
P 3.4937081879151908 8.062134954400939 2.6730691870362784 0.6096011033417179 -1.7068695139321184 -1.9385981567628097
P 3.6841506524376233 5.796409431576781 11.390765985441417 0.5621387960946963 1.4561645871092406 -0.5119704027704215
P 8.714930528109306 1.126902798437038 7.067038533436365 -1.1011847149256713 0.5971093986326104 1.0660870998915897
Ni 6.8328902878762445 0.8712857898017521 8.341217820350941 -1.6569209499281337 0.3276251343197003 1.1160176661734458
Ni 3.39846853227538 8.647114071506124 9.682377142480549 0.7742406658333957 -2.1478630712733464 -0.6478262082611875
Ni 8.704189698389214 1.2814565214590647 9.599447988417008 1.8528950608670345 -0.8259630339083518 0.19619574003140405
Ni 1.6538206379043732 0.3029816726616689 2.455317748424496 -0.16181571988963744 -2.310667637438814 -0.15511156839658446
Ni 5.62643534067188 0.9783919435937243 6.303418046966901 -0.4370086045515506 -0.012986642067655053 -0.963902461401024
Ni 4.441756826965193 1.2963057646055365 10.823554374651938 0.2446659197176496 0.39206340729942796 0.9107577590572442
Ni 0.2918723753697054 2.2073878945074057 1.8466618263196979 -0.3693068303292027 0.15041133470743773 -0.29484022657919545
Ni 8.422662050099836 3.292598587187041 11.0224577757935 0.09526168611848755 0.05997946587742574 0.9100463348125165
Ni 2.141561162792338 8.08434433729557 4.430910983987118 -0.730817047432122 0.6171382922590275 0.09870413614113324
Ni 5.134558767289643 4.033826378144867 8.450141440441177 0.8377227455474411 0.699393538815518 -1.9194285258128945
Ni 5.665520538358282 6.300445434830817 12.66855809689821 -2.0149336954007557 -1.4844055842328048 0.1633766366188541
Ni 7.8163855073404065 3.0716285843349507 8.573234481007779 -0.35778186040873866 1.3943316129628438 0.05877618959794394
Ni 7.73083654884085 8.380057987102049 7.12195217684149 -1.5991626600717426 -0.6505592909216344 -0.6474413141179429
Ni 7.2479413725230115 3.176365491639781 1.8249959330935799 0.14603248891345172 -1.0304161288525413 1.1548662636095273
Ni 6.779471701643992 4.601026934907192 3.960866114238343 0.8410651796571128 -0.6462012710632549 1.9962836843997362
Ni 2.9027138376991832 0.014384974005912324 6.512635776614111 0.10928885363551501 0.8957661707444186 -0.08923861985285922
Ni 6.298621520350048 3.6905896232560997 13.353725389133455 -0.03738358285478078 1.675195322757289 -1.4834290792521483
Ni 3.893882394347595 1.5123843604410165 2.726729119528107 -1.3129150602575648 0.016928400324222458 -1.51034930068176
Ni 1.6690199252441245 7.073628575959309 10.868072626685603 0.5439880933275986 0.19924506838068912 -0.6884493810991885
Ni 0.6129918642568108 8.589430473129445 6.2073032808438935 0.2108865092743594 -1.2701619855607542 -0.22987410612045572
Ni 0.6998120358793284 7.285193444039347 1.5369344335859685 0.08425607903660327 -0.017412281939176464 1.459472311326235
Ni 4.531524739162693 3.9037573252737854 3.4060580430870298 -0.008693928229572124 0.36925258005249956 -0.00733689998104543
Ni 2.831231128755869 3.525783290046714 8.949900456354701 0.5479586479395724 -1.226390754012075 -0.921344276323839
Ni 0.41245154592720484 1.0514866981639819 11.996415212159734 0.36023057905954736 1.4745711146408862 0.8605500278546018
P 1.8616916185763877 2.0080561498135423 3.5300409328397033 -0.6637850455832891 1.7759817953487478 1.5056760635758069
P 5.632754559529497 8.351216187913709 9.764726881287322 0.12697701494389746 -0.38924702089655544 -0.22681680735137064
P 6.604624627101074 8.794878779516397 0.2347368725061865 -1.9346836521997521 -0.4792703414342392 -1.6673076924790964
P 7.2473334010294215 5.124370638927361 11.894488791259363 2.0499446642583012 0.15378513627567708 0.5350283130311495
P 0.050966434541439364 8.097277549068304 3.6194956476011115 0.7361641706766484 0.11629048176432877 0.7661938842695192
P 5.779579675231493 8.023178720364694 5.660572018868031 0.8180558632461331 0.16513707095338656 -0.17955324637871656
P 4.32147979981663 2.858774079753357 1.0050257008576167 0.5194168317461377 -0.8268657482282792 0.8475101639515081
P 8.427203412923168 2.70743523629592 13.296480267167302 -0.008854879287468621 -0.34449388505058093 -0.22417628440473006
Ni 0.05752607848970407 7.831428195962111 12.698596494526205 1.172798936828548 0.8237593413888136 -2.4101737006559527
Ni 4.863090283712391 8.423445043690066 11.930891545022533 0.6733572626527565 0.040456822463465804 -0.11988308421159354
Ni 8.267721436127344 2.7589470028437315 4.192962916592061 1.6518227094696196 1.6343849736091465 0.3247609253980278
Ni 0.5067552939344582 7.812083648438792 8.616511918493163 0.8246674550253797 0.9514210411045614 0.9795638220873647
Ni 8.944485825386032 6.16601925292234 6.997861510324044 -1.0008139897153925 -0.7104176578401635 0.3675438248915089
Ni 3.657372271651771 1.960929147371017 4.880704875985768 -0.3984603119647073 0.897818425287757 3.064572934148967
Ni 4.3027984939226815 3.77954690679548 10.893823904114862 0.43539163777341794 -0.40986675402943606 -0.19964410359132068
Ni 7.285884320736608 0.8768855757252884 11.699778551085716 -0.553062287714725 0.005975757967460676 0.0666854171426916
Ni 5.8251959606293395 0.8758262314561541 1.9312500056255963 2.2354530997791886 -0.7436285973744935 -0.013202614733203067
Ni 7.672959504988937 6.690671016822658 0.7178835279418276 -0.08341841362665633 -0.9847564220318976 -0.8046282769863174
Ni 1.613399745269932 5.517396574465435 8.76118978942007 -0.2889737404960894 1.7638348755735687 -1.5079612600655576
Ni 1.9054102959790897 4.5353015317743886 10.847337114078464 -0.275232479650597 -0.12717576121826485 1.6586567016723175
Ni 3.835986927117089 6.798650438759969 5.850684704913637 -0.9991443153224534 1.5049908645833243 -0.8259247244712484
Ni 2.4135270775916178 1.7074510929904525 0.3280245711840007 0.9838940740316022 -0.06756884818890944 0.3732485885857701
Ni 7.5580528927004185 7.05016640332031 9.026075599825814 -1.2018344048289495 0.19112449615608373 0.14353466219226246
Ni 2.5749895675862584 6.032330006157609 3.4761930818862194 -0.11068239154893195 -0.45134713266140974 -0.9046747860879581
Ni 0.4640913549562417 5.7389192786753345 12.856985964971427 -0.725298431606738 -1.810471344485185 -0.7664687351974606
Ni 3.9508659043377166 5.632966428383324 1.6925465797081998 -0.05664243108439277 -0.3793711565437402 -0.5323343111387542
Ni 8.834645642210763 4.895174597533211 2.4283394739809023 0.7436951889463708 0.45330065684335485 -0.14096587302382174
Ni 8.984510615380708 5.686541613333622 10.408328267908532 -0.9832579831095003 -0.46780733509996203 0.4306667214939229
Ni 5.491806501598871 1.5971042669038595 13.158179648740584 -0.7898477762430333 -1.470463777340732 -0.6424073512384614
Ni 3.3955207917003984 4.8461591987848385 6.971584245435938 -0.7752580513543165 -0.4707278511808667 -0.06342217301038754
Ni 4.046630626267445 9.02551184444085 0.6811509957018328 -1.4276713647655541 -0.38464886000291176 0.24089128316656575
Ni 4.786117407948173 8.379993505276971 7.576816182629109 1.1757189386888205 -0.8917683624389352 1.4786447704896275
P 9.08947781491796 8.639523639525546 10.66277907667884 -0.12846182701954006 -1.1246727707452824 -0.6147183699636252
P 0.6973267221070467 3.5532617592191245 9.223630409654321 -1.3277490399466036 -0.12429921100141819 0.4237651092780831
P 2.449664534703038 2.1663590303793745 11.606940382845584 0.6514810314049554 0.6893184139677031 -0.6217151129964325
P 1.579436246832561 8.971780060772506 0.4169302692633182 0.8177563297278433 -0.8884156439166184 -2.18198958064341
P 5.816619877894001 2.5534802730781867 9.69807109753554 1.3074000439766065 -0.8965308168245849 0.8296317410091905
P 7.164990110405158 5.110636010185805 7.930225406008353 -0.16203889164403706 0.26121662498747916 -0.18415012172077963
P 7.790924398123999 1.1124680813089227 2.934476663563544 -0.36193393490389925 -0.02102802431489282 -1.6597651042451478
P 8.989567832804662 4.900471318878882 4.652585681070416 0.330769593485953 0.08127334225919551 0.7520386758150597
