# total energy = -340887.22016775986 ev
CRYSTAL
PRIMVEC
9.10676946080896 0.00000000000000 0.00000000000000
0.00000000000000 9.10676946080896 0.00000000000000
0.00000000000000 0.00000000000000 13.32867763226124
PRIMCOORD
 96 1
Ni 6.800917123388785 1.9073490891431382 11.218334991094725 -1.8282255831448126 0.5767403480579552 1.1197053994376782
Ni 4.796216670089575 0.48739702666437884 5.4650906639656425 -1.4338623240676143 -0.3634552566444321 0.14044908128840328
Ni 2.9925299362493893 2.053439882762568 4.795831453746843 0.20418107222972576 -1.568209663333654 -0.28460517911474853
Ni 4.152550213723704 4.498334245249059 5.106469730390297 -0.42825528383895284 0.4562036894227627 -0.2720851922708669
Ni 3.820963635586499 3.0070734468721443 2.563958086083247 -1.229846316660843 0.9748700161561209 0.11887238355889206
Ni 5.202715532749498 4.901928048492165 2.6688143388455883 0.3152714978503538 -0.548997630727048 -0.6406559157649935
Ni 5.010262176462289 4.242206357794474 11.291588932922135 0.6736639952598978 1.5877755012807235 2.1726878436265094
Ni 5.906386492242063 8.018419328884908 12.310899606775134 -1.2470179433441233 0.14365781803368807 -0.03801478868087647
Ni 2.3193029066327604 6.71870120986203 0.03552186445530156 0.11642649312156077 -0.5220121032771398 0.31432198945289097
Ni 3.120179521972089 1.6427701197487177 0.39761703053069786 -1.6342016539537467 0.41675705339136615 -0.3881136786230606
Ni 8.180337687602865 -0.013042715036887375 6.782750939925873 -0.4223155213157501 -0.23235547778141274 0.650884535471537
Ni 8.549234699692121 2.65154517216185 1.0830507737595625 1.0516166741895567 -0.8795977885146722 1.5840456019246463
Ni 7.079101606164793 0.7487749666387001 4.74206326625851 1.0536218775450434 -0.21323084113681984 0.295229234487498
Ni 1.1247133327752419 7.277674711442917 2.291239486260137 -0.9443458794253348 0.4325891353276163 -0.5878084329466586
Ni 7.67039503210395 3.5661562296850122 3.530020568976753 0.1674371798414729 -0.09020535464150271 -0.13354849751382808
Ni 7.628440145792723 3.7725611565884143 12.596252938369073 0.08893985766551779 0.6823975184781538 -1.3373837348228903
Ni 8.245341807092672 7.226704123493287 9.387440873199097 -0.6943102107553397 -0.5316902497968521 -0.8102119417216822
Ni 7.243451472294319 0.6477681452728765 0.22400193728308185 -0.9616321773096084 -0.046593274378506855 -0.5222684422623198
Ni 1.806355017254379 6.730603757378586 9.054063904211276 0.7013915430821533 -0.8779502256089202 0.5603030284375382
Ni 0.4810878568713642 5.142893165009439 1.1888031326241448 -0.7326664419360349 -0.8114334728336091 -0.3721833805460493
Ni 6.222254786512722 2.1864897826989766 6.547259902453894 -0.006531116250298429 -0.4131739640257981 0.9133615152286786
Ni 3.9268571493757225 4.552291853539493 0.3486645026649778 -0.7845513037307844 -1.261889204029001 1.1931805858086935
Ni 6.3327290052758 6.067284892794867 4.550983210786525 -1.1175269037291204 -1.040304334500531 1.6635407692374962
Ni 5.242685143346411 2.858596679687804 9.622198815739873 0.5130880613146325 0.43132260991036686 -2.4598620690200153
P 0.4507832605662042 5.901195633722983 12.475002679455772 -0.39111441312259737 -1.6066797943843942 -0.9844718009119432
P 4.3786895097689404 6.124147560502118 12.43590914006857 -0.439304856784895 1.830581999192131 -1.5137475277300318
P 2.4578715087841907 8.584632712084511 1.0416559537622356 0.32595031772043864 1.4534739276509547 0.31428753667052967
P 6.2802011597704475 7.986308860221268 5.637551018861997 1.4486703356147246 -0.3547968096384857 -0.1805983998137793
P 4.9565959847904715 1.3238510577519325 12.450784137094999 1.4362233681006233 -0.06210216864738337 -0.5143980383753076
P 4.093957259843427 6.429952874661228 8.028608893090167 -0.21110659570496543 -0.3592394187908717 0.6749616310253989
P 4.327855523359288 1.1049880704027395 3.240827823432564 0.9467274922836342 -1.2472316020168261 -0.2101465457845413
P 0.4303312780010306 5.467476637530553 3.5457616197666284 -1.4220090242734542 -0.3938842625582507 -0.11531526233525302
Ni 0.4346023528176066 9.07466796982429 4.711967214971047 1.6022430987692793 0.360493860023263 0.1678287588529368
Ni 1.783114541919833 6.720322214803076 4.586690853336193 1.4123835853685482 0.1788161111023759 0.42835864218603653
Ni 6.018244939943562 5.892025117005942 9.396464770929898 0.023243801019289002 0.932079403353156 -0.6572117632411456
Ni 8.743627797846987 2.64184646282357 10.181257010275546 0.779449977948477 -0.10419729804522054 -1.1266134394114211
Ni 2.247159079986886 5.633283586753153 6.686891264586336 1.05694605682227 -1.3731704055041964 1.0162601490671337
Ni 0.640643919624673 8.830023718497001 9.019729562476831 0.9051432410839444 1.926749999174972 -0.9239824852776346
Ni 1.537787282892666 0.9730583030941321 11.531798187584878 -0.8015992603520066 1.0256719292993366 0.050184591274191
Ni 4.145501574260954 7.00479036841797 1.5304390307189022 0.6005832161138237 -0.3479445626033427 0.517120065292161
Ni 5.7420912667285275 8.616005532432283 7.642103942498033 -0.24502330305706832 -0.6858008877327479 0.6378153609924049
Ni 5.508457099523287 2.68450257037334 4.319011028984322 -0.11140050066187912 0.39436274485656597 -0.3019824940509315
Ni 0.903366018752356 7.484726218968871 6.796758972511923 -0.8148301572199838 0.7018455999004364 0.5553855365312629
Ni 5.454554131848845 4.843216706610575 7.280430419842695 -0.25138729760188316 -0.6186020212887475 -0.7304182693318066
Ni 1.029046720945538 7.7088164919144715 11.555336454276572 -0.13211176506730152 0.3476684261238206 -1.2750573659798428
Ni 4.902957113426649 0.6715249744285309 10.205861679655982 -0.5973359128211196 -1.0280028914253587 -0.24114607948984923
Ni 8.514893072542211 7.063957048766145 4.860902052652772 -0.9181237125040123 -0.4221684542149245 -0.2757572418058154
Ni 7.28664487923466 6.4094080030488705 6.9274338270066185 0.5490271984134029 0.134054233505653 0.49090715434221904
Ni 2.4453223806450826 5.274622583392748 2.5946269531616757 1.3886744146770664 -0.5051986312642267 0.29504540061146606
Ni 2.4995714055541303 5.329827819081626 11.421370413345391 0.706611653830512 0.5237257435341367 -0.49452109694572255
Ni 1.012126343527205 3.21174808760252 3.8500014802776166 -0.6349503807397839 1.909060552315009 -0.43696669557002166
Ni 1.7878591687416585 1.6606467079468812 2.3989616393311697 -0.4073645564328726 -1.1956496161744763 -0.2556424733338113
Ni 1.1937153240016738 3.6838885436054705 7.876395618449023 -0.6600111803631536 -0.6311906565870355 0.5964979903008566
Ni 3.581155078774353 3.2106097414360546 7.095894488812482 0.13601084301139157 -0.26649355711570233 0.5829153665204154
Ni 4.0477677257929505 7.03213799672112 5.833642529497227 0.611492921047792 0.975821581436113 0.9617674173358919
Ni 0.3830389141844827 0.3626096985426384 0.809034459306682 1.8086468896819368 0.2850150129586575 0.05403481825821661
P 0.03378065015907696 5.659966420895088 8.078311818748821 0.2517606217809019 0.5821280947324297 -0.7594624790829566
P 8.910409171388082 1.7182834510473284 8.008668710961437 0.3201604505115389 0.1261138956126538 0.04109702715062599
P 1.9064566257486297 3.512180407855916 10.020206526674901 0.10926494237611505 0.4048430755625995 0.7945683216471542
P 4.117379870564608 6.370239788153149 3.8521880155941624 -0.4060309252231137 -0.26562915223287803 -2.085845234809653
P 7.000910884682657 4.225750425612059 10.204702387920054 0.7516445257004345 -1.0846720619826287 0.8177352466819208
P 6.4020952672755005 8.19537296376953 10.166915669931955 1.2427013182466404 -0.6324139874711753 -0.7273596850111408
P 2.4593012715692706 8.635466698494165 5.667353832176978 0.03944663603139657 0.7470751611621972 0.3268383767523468
P 7.000965525298648 4.088219995164445 1.4441086788080761 -0.24159679387402258 -0.6631597532944643 0.2500624081428725
Ni 5.234325129099894 2.5016022151151036 0.8384547883097322 2.6080141753796307 1.4924456809284619 0.14572704185789095
Ni 1.6615209578027264 1.1743452256331084 6.921555407402995 -0.25394888768147234 0.007803555204818819 -0.7482280438197177
Ni 6.964811651051725 1.1898722673436886 8.758327034225314 0.2830288357665642 0.22722586986433127 0.7879829551201526
Ni 2.5773614291856703 1.6393550812493234 9.063154281358198 0.43866130966362515 -0.18540661983570006 -0.0742496026431947
Ni 6.535227128135895 1.1252050983191548 2.5657703331802595 0.7892368821319118 1.7181368593158215 -0.49008208733776243
Ni 4.340176982265103 7.390507583462911 10.306692740373704 -0.9964207457437033 -0.811247582075048 -0.07948462578988891
Ni 8.49216257629024 7.464846141517729 0.24330009217392676 0.06531270516488107 -0.7117178647088259 0.1492183428406011
Ni 7.66546826989549 3.8660876776251643 7.901839931961845 0.3125440716168617 0.12614423462995697 0.7048509623856635
Ni 3.471682604637764 8.893206484120464 12.242137123582127 -0.15446802127531462 -1.6306977545655463 0.12951777908788017
Ni 0.1511040701365408 5.032400732707697 10.317862192959057 -0.06716338522037466 0.3323289675532728 -0.4462036407872574
Ni 8.70634468420293 2.5095159976643666 5.915160864493173 0.05586415815747153 -1.432935441377971 -0.4465042027468117
Ni 3.445099944958477 2.3396018954731614 11.235888288981615 -0.07892541085230922 1.068474883397476 0.3395231713088669
Ni 1.0935317545834375 3.6046960774968455 12.124644317695093 -0.273491071479458 -1.0035789540550393 1.4003863037973558
Ni 3.251125758192871 8.445071472075925 8.00375105552231 0.0632445097819427 0.5329655169648498 -0.5374474639956034
Ni 5.679035995875708 8.1874682879896 3.3914018795939986 -0.9480922338416446 -0.7229373875737292 -0.27147018439468734
Ni 2.8078355474328047 8.503300155182933 3.343339083091987 1.4899630237159243 0.8221122927036939 0.3360421547388019
Ni 3.643099323768703 4.742614225803079 9.384574972890405 -0.2339739872214422 0.14693983121906953 -1.2883327429325102
Ni 7.507493142298167 6.458857760520103 11.50939280299805 0.46056710859778094 -1.07771259994566 -0.15911657579091953
Ni 8.133665494777807 8.405730228562899 2.6710400332702604 -0.274482745968766 0.49542458259659833 -0.18568892696280925
Ni 5.000007954194773 0.11942344098535818 1.0787587533735234 -1.2084143720393126 -0.3497559047804686 0.13069585855638136
Ni 6.234248401722596 5.536751831836937 13.445303452796258 -0.3136360191294598 1.6105248791620972 0.1806559925245921
Ni 8.276924083135071 0.22449006011926198 10.824845148425164 -0.038231275567056744 -1.7954985252254367 -0.002271312532679959
Ni 9.127077427328329 4.7859897681300545 5.848917313697319 -0.07075238812321362 1.148791518170357 -0.5670850843563782
Ni 7.544585013786257 5.918380107451936 2.6100884261330677 0.605900000341047 0.6833591110604746 -1.254725082180394
P 8.8520165664331 1.4758248243596526 3.4521012292207023 -1.2618681209830784 0.4831272532864841 -1.4505500691359405
P 2.0944840921406236 3.5805176049211327 1.1806225217334618 -0.4833344842012838 -0.776443072801353 -0.26817917234824135
P 4.722424518194659 1.5429963549504089 7.93446857580046 -0.8236971206923104 -1.3037917578000577 0.5144836561105784
P 8.801082405560798 1.6458208874748435 12.351538564917929 -0.5299303296829518 1.1695611466175406 0.9024420401026974
P 6.5295353973035715 7.6201074518542 1.05714110433389 -0.07897117648858012 0.02287201950216706 1.9418158923691589
P 2.028031996327073 3.6723320533235193 5.609214395409421 -0.18331914117905201 1.118139340502139 2.039104121999372
P 6.930542878056468 3.939551985824138 5.63145950085601 -0.16302722369923536 1.7634913761912208 0.11988848352823224
P 2.541981630331944 8.753499535802568 10.152893066514974 0.0757567833163405 -0.46071340436765823 -0.19558381747901799
