# total energy = -340874.9778994945 ev
CRYSTAL
PRIMVEC
9.20419840094282 0.00000000000000 0.00000000000000

0.00000000000000 9.20419840094282 0.00000000000000

0.00000000000000 0.00000000000000 13.47127473441098

PRIMCOORD
 96 1
Ni 6.973910574448662 5.457813444756711 7.20885601892227 0.3056866823753961 0.8895813820899453 -0.3345858819082496
Ni 5.484698907886607 0.24953317830262958 0.9164104776618296 -0.865766796168851 -0.27770459534017333 -0.8184201885640873
Ni 6.078102774181546 5.184329101730832 4.9081911883453655 -0.011833759410134459 1.4646618259469744 0.06688776296148481
Ni 2.5000075157445387 2.5558401824155235 0.3023597538205085 1.4512411816656943 -1.1037604460726476 -0.18360376229900638
Ni 4.794218362498546 3.268604091801353 4.012985342644733 -0.26616599857295453 0.36999280065263374 0.4762873475465152
Ni 1.7320736419627505 2.092003815086536 8.935078552048433 1.8785101903319779 0.9737379594342068 0.7478557480819635
Ni 0.6739341581684063 1.1049824100206296 1.0430887787926306 -0.23547705412952993 -0.7153102100457746 0.44721639832248783
Ni 7.364886508317788 6.6426514789180375 11.880802129999115 0.6334537415895993 -0.6934776875517153 -1.0692410721395393
Ni 5.222784242078899 7.006281739744056 10.602176076784483 -0.09083964579139195 1.29379453737803 0.4755424989606907
Ni 7.79241231349428 5.015993519675828 0.16775203588504972 1.7773699339455262 0.14203905148334248 1.207054258466992
Ni 2.7474255692860416 7.597209676705909 7.936197537519029 -0.46907180363468254 0.14553086668668486 1.1172106580402823
Ni 2.4533238221482248 0.015783359183548593 9.90099657133405 0.22924392873562455 -0.5832359830846278 0.3440845654273042
Ni 4.140996411684197 0.8549595683703415 4.483186413073454 2.1151588961721055 -1.8439597060506179 0.4847215943567974
Ni 4.115289085932127 4.25915070480247 6.490069802612138 0.8644871581254788 0.7822817909703172 0.05188948978043967
Ni 8.547460309706107 8.172416843032412 13.446567874784476 1.0444301837434464 -0.2911514648736986 -0.9818880993451671
Ni 7.459662137844847 7.623340395578136 4.0898652494865955 0.0010261272716692005 -0.19612014959846225 -0.3042314379861083
Ni 6.89566568500421 7.692868909266336 1.5795066923740726 -1.3236080211950365 -1.2780485873976828 0.2919883589526971
Ni 3.65448089983208 8.483638398941746 2.145327417310685 -0.7638274409198716 -0.1840519055800185 1.0442185819532726
Ni 8.2714079953645 1.3088738099704595 12.592961323558981 0.3108000923425615 -0.8581311340004641 -1.3586025349923505
Ni 0.07573030247865706 0.4587749787034724 8.70536661470788 -0.7816102188245895 -0.3687548144804746 0.8066399080997076
Ni 4.3878806217263735 4.790242148848387 10.572417983376313 0.18384621732711565 -1.3328616785828207 0.5932373172717139
Ni 6.262545703199001 0.7847195701563141 6.91431983362638 -0.18772164112212186 -0.1892041392049193 -0.5046327314584277
Ni 3.5306752289795535 5.584546050657272 4.2868157635253485 0.1519488543978867 -1.2425869041559634 0.15182878388025467
Ni 3.71979389071525 1.1766739103009305 11.952267207002114 0.33267529514909805 0.03507498932626218 0.011091224817155092
P 5.974850078053107 4.803984016856923 2.680756799998546 -0.6642298464301916 -0.23936919009508453 -0.31150483171907
P 3.492542235570735 3.6270339806080645 8.968716215024989 0.08338884594030155 -0.7105436418950666 -0.9054430317125504
P 5.822446963193532 0.010525921135004765 3.047984061506235 -0.17205128157471658 -0.49141494721657303 0.9319547048498336
P 4.926961309865665 0.1336642876133724 10.325879851188873 -1.204112659340165 0.2987025377480791 0.6256830965052451
P 0.15095529447260636 2.3795061520688803 4.756653268122632 0.3196161479722947 -0.5256247603290626 0.27586368547669265
P 0.5322336850505106 5.522942351674597 7.990297974076682 0.5403702940693532 -0.5588742664108116 -0.2059397067920453
P 4.32681997044129 6.481982994017161 6.787043259608402 -0.46179995256361756 0.35545089828271687 -1.7042385040671748
P 0.7595967109940234 5.65279518078674 13.024324358991842 -0.35441782903251223 -0.7948822533431471 0.7648404555654182
Ni 2.1086726181431064 3.3784469938870005 11.355920758522094 -0.661587523711338 -0.7186870969378073 -0.5952404637446715
Ni 7.70682247383495 2.0260833471179245 10.258281457876688 1.3099248672809891 -1.20175932861664 -0.6835141485811003
Ni 7.467743423920864 6.929960527736833 9.150511096201814 -0.3251393917833691 -0.5850905197948634 0.3372834833450707
Ni 2.075381033021287 4.6330160340983415 1.2219392369447222 -0.2932754531952368 1.850012340002601 -0.13423806738168492
Ni 8.397790841731018 0.2779631059012678 5.465983091136066 0.8307432289058144 -0.7015429810583531 0.6183526242821028
Ni 4.172115806015652 3.649722329329459 1.5914426966831619 1.672140080870733 1.565228469218143 -0.029287693220523756
Ni 6.396614055116173 3.372123709679456 8.621682964509079 -1.1788189177703827 1.4847331427755528 0.1254343530471259
Ni 0.649030358924805 7.383856360940423 4.410765019870797 0.23784581147202266 -0.31249624909806184 -0.5299028188791262
Ni 1.8553270609194215 7.271914901650524 0.756690025182171 -0.8961886029938179 0.1412867466983502 -0.5182582926616623
Ni 1.1947325472954036 4.898538745625639 4.6133724341627635 -0.24662690009876234 -1.365493348574913 -0.9782559019092185
Ni 7.640690309306261 3.5306660247812895 4.13607216561282 1.2919420575503233 2.4544781790002825 -1.5361832310257284
Ni 3.3561728340874977 9.654467643344875 6.861782269933999 -1.498530196559645 -1.2274595615962214 -0.34067322575291004
Ni 0.6565501889067032 1.8566064444781534 6.857417639117088 -0.6845644442224856 -1.3518719011367362 -1.300998768435953
Ni 5.05097867727827 5.602595483453481 8.63833335916912 0.4099279462846746 -0.3914787384405516 -1.3450497360085802
Ni 1.4272305954505455 0.22399705063827383 12.308528586697769 -0.6109154512777673 -0.04420549087262065 0.13601495677644962
Ni -0.03678365794327828 7.49445400728374 7.123219237851792 1.754641896220391 0.2554486121554504 -1.9687510261971062
Ni 5.447164187364966 8.106174228124551 5.455461772100194 0.5942397903942992 -0.8544480287219219 0.7899994713295492
Ni 1.5352878830729275 0.44266671132119545 3.6878286305633114 0.10325113208186734 0.1995165768745209 0.28221713849854624
Ni 3.271889990581693 5.482204570156994 12.401722934963026 -1.5741375987823147 0.8634049808048936 0.9417390379301072
Ni 5.782896523252019 2.2968984726471704 13.224117129454598 0.043287349933725454 0.4891076392396351 -0.044414521559633185
Ni 1.9871035674687947 5.157922256910677 9.79202714766368 -0.6389826418276287 -0.18488879965901706 -1.0103473831271246
Ni 9.13431999103516 5.960114156632031 2.1144381279358373 0.6769768616832148 1.589269826438063 0.0556039625175494
Ni 6.372655527034311 9.036617426460067 12.117196315279516 -0.21511186020961662 -0.06974965789031214 -1.1378445322405502
Ni 5.2291535472777655 6.90204419440134 3.2589166731282218 0.32445753522499604 0.3615608678351967 0.19547840224940527
P 0.7707972998617982 1.6245225852449028 10.87747456728825 -0.45395525970821815 0.9489820926457656 -0.8593920029907587
P 2.2958307856485165 6.506963188106356 2.7406365526463254 0.1709485354288411 0.4968487166376346 0.6660419599382659
P 8.804809693174745 8.302242059549762 2.1290810869544443 1.6505860088490414 0.6514054409720136 1.340732596690465
P 5.748840989674266 7.197471346089211 13.128053832590371 -1.0084331968235472 0.5451286346899451 0.7773756119179516
P 4.009624889858452 3.396109850356111 12.352417885701053 1.5462064195896856 -0.021546358712208055 0.8203019789678325
P 6.9545173287058715 4.843074246885224 10.126868517158753 -0.061734243785003355 0.4945061845473871 0.6172164537951306
P 8.384766901187094 5.595977664901479 4.986971762128798 -1.1536753286252195 0.716594990295469 -0.37670440834485447
P 2.782594810853769 0.37359932796603434 0.47789117807850856 0.6823355548919668 0.30468575191470754 1.2776814338662512
Ni 0.3955448978875033 3.6643017793800428 2.4767208941359673 -0.5437183846059798 -1.8485573527236294 0.07755167043323417
Ni 8.528877033410572 1.278960165611623 3.045316684849253 -0.17132777314513073 -0.030706427944921313 -0.7055040225886302
Ni 4.477308612061899 1.4906383172930149 8.627179711712493 -0.3284939100778988 0.29680866315947596 -0.4511892669273068
Ni 5.339429046681833 2.4666515012348698 10.498407025133421 -0.00963366643502212 -0.05666274279936693 2.2572892218176737
Ni 2.0322961809462985 3.6539470563327527 7.042310653429665 -1.0948914257177917 1.7096151949980556 1.473298932796682
Ni -0.11366264436531466 4.89685437734328 11.094725861018649 0.23784504014107424 0.42573740251310543 -0.03798522099452168
Ni 1.2642702651818682 7.221052502042237 11.570396986475819 -0.013087172201261332 -0.6819586311685223 0.44906604993671695
Ni 5.069966938297433 8.054023240759268 8.233332988404745 -0.4815969326848867 -0.34261080909525504 -0.8679406638917182
Ni 1.9817099072859399 6.193735116975412 6.292741916444549 0.5391881008357939 -0.3805610630867833 0.47293591457577905
Ni 2.599044689067948 2.3264347448771723 5.128406233916857 -2.1305533763503046 0.3628263648111816 0.7608429043702509
Ni 8.58145141389601 3.9243019719487857 6.488263938912691 1.3449476632130772 0.11950436071593613 -1.403229686783422
Ni 6.725443242305034 1.6534974013807853 4.546097108209653 -2.301257656978824 -3.20737174661647 0.5172769025849995
Ni 6.35185403895709 3.2288695678945536 6.200180817019871 -0.4971287097718986 -0.31727670120584067 0.7573269207971924
Ni 5.5439923531049535 5.062677213272141 13.349251886536484 -0.2788124836923715 -1.440364129741874 -0.8680720472632598
Ni 6.282574038622024 2.09549220622869 2.2630666010872393 0.05248624282417412 0.9037417327507274 -0.5955032304877551
Ni 3.254033845949033 7.9126007344289535 4.67948987197423 -1.4936448434428857 -0.43081276015348385 -0.022168051456606986
Ni 6.7101918857811595 9.209996909163882 9.171607118623493 1.8430132829769486 1.370232663032111 1.0011369202724498
Ni 0.4472485612171428 3.2737124218380154 13.19329503072708 -0.8904871817336664 1.3280421457069902 -0.09350433710774864
Ni 3.6059195497898577 8.006133797190337 12.664493591209313 1.007903292462006 -0.40814308647011 -0.5639689073248997
Ni 3.6913345096821666 1.6474042221298468 2.5377594553452165 -1.5013082735254144 -0.06679006104135593 -2.3118621719675474
Ni 9.013330804851496 3.4746952951363403 8.670435761875197 0.5558907583024555 1.4469649228878434 1.9039368579351985
Ni 4.182341670287242 6.379936047861339 1.1785506463270126 -0.36272609178789145 -0.5016325111795232 0.031058411967701347
Ni 0.6472033255693499 7.437277527666173 9.251397392956514 0.8988712920323034 -0.8115026355086477 1.3952443545851003
Ni 7.4480832564284105 3.4645338602526 11.929392933475782 -1.2594327720687084 0.9626703887661356 -0.11263051641423828
P 1.4401809024083556 8.91654866010283 5.888805550999523 0.05586158705431024 -0.33464861682538494 0.25858972888759335
P 4.449106948580214 2.0824958782795586 6.223472961147402 1.9993492106989372 1.0835541463281015 0.29764324324562935
P 8.543769426202141 8.287441708740836 10.88422400587543 -0.678462702200122 0.22625193598683616 0.11970002166650999
P 7.187632058144719 7.749640404160276 6.928438153343924 -2.9987925453190485 1.0599658174852005 0.04487603457708401
P 2.9638714956683185 6.9939112972768935 10.176658627669253 1.1274251366794388 0.6838455637785901 0.31698436677640246
P 7.946831147773727 2.4582480682196026 0.8321948248033537 -0.5260803598092424 0.6817665697623743 1.2650750579561503
P 7.724595780683231 1.953213709459799 7.939376667599505 1.0467182084466748 -1.6816860726879552 -0.9541831772307308
P 2.488373409138517 3.415898876624264 3.373045049925708 0.6834385581481585 1.2264951408004232 -2.2382735999471195
