# total energy = -381173.16518172866 ev
CRYSTAL
PRIMVEC
9.21557776203085 0.00000000000000 0.00000000000000

0.00000000000000 9.21557776203085 0.00000000000000

0.00000000000000 0.00000000000000 13.48792957960929

PRIMCOORD
 96 1
Ni 0.27899516368900157 6.693891520639255 9.527846619445768 0.573573006073567 -0.7609820010512766 -1.0519426900704076
Ni 7.4250093767504435 7.261147189827735 7.404657694977758 0.46339737895772454 -0.37506841540332825 2.356599624084238
Ni 5.216164422318399 1.9720967635516453 1.6018397339892072 0.8461618774537298 0.6247320454458853 -0.5226924171736159
Ni 8.861192650840515 4.374109441963605 10.000760576696498 -0.17924188578588485 -0.7983560708243604 0.9507289001335433
Ni 1.9751379041896573 1.7636864740709053 5.727649258436813 -0.4589177459198161 -0.85387235872411 0.378802942745096
Ni 1.39913665177247 0.44900782716264676 9.197176025412556 1.4831069200260392 -0.03927128679579688 -0.5868465832540216
Ni 8.630277920638486 6.269081035819725 11.886197733873564 -0.4765940801536567 0.8840745933391032 -0.5989652208944265
Ni 0.8520087258187845 6.149370681614338 4.36936065477946 -0.6695160345297952 0.13956745001439835 0.4188213921195626
Ni 7.426023090296447 4.456469059787588 12.417055557413883 0.21386127563196716 -1.487564955797393 -1.075125298834458
Ni 7.893897969665766 -0.31773376607066145 3.3680171787099753 0.36816500341527564 -0.4107288449194152 1.048466301486033
Ni 6.997802841731267 -0.01936930119082996 6.6151149194215115 -1.6752498301443086 1.9821086784509347 -0.4498972875887606
Ni 4.55937020028469 5.088058676836561 5.566306610454809 1.3354687771883644 -0.21067413615323718 1.4609962041699291
Ni 4.9312832691581905 6.739858822161692 9.561849336452049 -0.5855340350901852 -0.3360958907948728 1.6240491389007774
Ni 1.7657139011629133 4.615870907107878 2.7071349264125613 0.4653491033674566 0.3446116415753678 -0.41531389318693634
Ni 3.408980421546229 3.2407316196426312 11.580305063577999 -1.3933175698760327 1.528190185517923 1.2536033098711248
Ni 7.98248731800883 0.7692583675007055 1.0296675541026075 0.47420243999302847 -1.1542725958895863 0.14244065779713533
Ni 1.6382440305417507 5.872848057419818 11.984281891911609 1.0771202177773 -0.22693559231742205 0.1970935692553251
Ni 6.945006797139838 2.3654084038235226 6.905213011112564 -0.3655928718127252 -0.8181862181764102 0.9517419147790899
Ni 6.583055767750249 3.5486701481855865 5.106449283676612 -0.5484358446863071 0.2966775368982503 -0.5474673101254507
Ni 2.5270680676780946 7.1252819279301205 1.5862211729185922 -0.12325405756635548 -0.5755237020420346 0.08203387457430387
Ni 5.620018683468719 7.5033786494342465 5.391530414872714 1.271493045667352 0.0006111512214376572 0.07298899076321623
Ni 3.267843849209394 5.249957945711098 7.607677793067063 -0.5117845120118606 -0.8001540432650477 0.6708987738099349
Ni 0.4902429295407839 2.861197268018718 1.3765105654256595 0.19194673494706296 -0.7941325196613161 1.1917387111558444
Ni 2.9584031815028142 7.285227494334176 10.691072776349946 -0.6382231379537847 0.7225360383702525 -1.0425501931119143
P 2.1058332270026514 3.1867744122621438 7.472744226074004 0.7176997933238737 0.4400633322174744 -1.0544708558089002
Ni 6.323830782881634 1.1318480364242767 4.666553819734773 -1.7864888655276585 -1.8217011517627335 0.6846541757228144
P 6.482946947293505 0.8556368987557099 8.663876995341905 -0.11475193363261528 -0.028487308806415455 0.25635492601980364
Ni 6.032342060517017 5.702774571133412 0.3283243079530965 2.1367481923071074 1.33390040425998 -1.4206124010362438
P 6.436841412105703 6.562449736033294 11.62791734571827 -1.2219964815991213 1.1829787055750272 1.676382915307487
P 1.791803201605981 8.8712837084121 6.584133068782321 1.1111515963303962 -0.4182277243996217 0.9007679948343841
P 4.418353430457835 0.8740090744403797 3.500077328578998 -1.8563264551460867 0.5191358101706092 1.1204505051338187
Ni 0.48443527247994983 1.0933361372538142 3.3263120818695997 0.39848756565821697 0.7274697282264438 -0.6849051153913559
Ni 7.338834509762409 2.9789999976420787 0.6934427313950633 -0.3602681171657021 0.37471334605675466 0.0283222439834609
Ni 5.853541422157286 5.558790385290075 7.852200245287545 -0.7638557230546458 -1.8257354697331074 0.25277620752960983
Ni 4.519365377528293 2.1226977341770823 5.619260241424754 -1.221796449773173 -0.321784102157891 -1.7432159137716365
Ni 4.798348560966296 7.588936072716988 0.9102152360725676 -0.2696678410786259 0.20608728811350313 -0.33442570218130147
Ni 7.210387787906005 2.0532214939650415 2.936942865733909 1.034350173799625 1.6121678140821591 -0.7859579542703238
Ni 4.09676663135459 5.706285706233662 12.17707822811058 -0.6105966344857677 0.9077534250132819 0.9748355633737599
Ni 8.781413394769997 0.2830352729487122 12.076970329211603 2.2145862836325083 -1.3809248526386348 0.7933475618661757
Ni 3.295932930011397 2.9170344532481587 1.072378992026834 -1.392842172901511 0.19099696943928393 0.43904517536560517
Ni 0.5465565601368466 3.9436682391749067 12.855480215156248 -0.2522293338872043 -0.0365510596511564 -1.0308575872653343
Ni 2.0269294508127733 4.726365683622318 9.934669218170342 0.7645213816631027 0.4922410426622942 -0.4155704892824327
Ni 7.239297055122502 6.131308149340085 9.744665202011726 0.5362177053535604 -0.5264500844438353 -1.2434047720715684
Ni 4.727536061989069 9.122085655271192 9.937272618868032 0.2672039529191656 0.6949743267019 -1.4948905429245287
Ni 3.1645003609831273 2.5367905021420425 9.35913980333093 -0.719314188998845 0.45622271558615624 -0.8761350267770524
Ni 3.8770303968916777 8.936622154240906 5.613932715961618 -0.16274105991738425 1.0664344559286794 0.16993654922455895
Ni 9.279718111674821 3.9085384570170216 6.323964408758153 -0.2125376717245372 -0.003408768571232839 0.3055239315452867
Ni 0.4340583170323944 2.4768984627285855 8.570742524081668 -1.0733982888410223 1.1098225931063272 -2.0211989595841775
Ni 7.093654065294794 5.69495976125149 6.025543728854406 1.113960783644417 -2.1487994670446864 -2.440913295831654
Ni 2.427088265309023 7.324836047249861 8.21391996367709 -0.27318613864452945 1.4739483934552229 0.6281608686217762
Ni 2.5796613695603225 6.72082865422989 5.8427555100278035 1.4744960384285768 1.0374285556146325 -0.9428875497122536
Ni 2.444349042324165 4.055029279992296 5.232399505536539 -0.1827524700423046 0.591525991007562 0.5154437060310026
Ni 8.347239883016465 0.9140885433760721 9.842344796189138 -0.30192618689169937 2.0467410697193396 0.7845397337665585
Ni 6.936712777217987 7.116858889920596 2.1702344485802882 0.5722177775972532 -0.550595314231471 -0.5345567727113697
Ni 4.6630915271962845 7.671010007632551 7.500421370553222 0.1885950448660107 0.46965441561102983 -0.08831816492111887
Ni 4.944682719120825 8.444206191480598 12.153771110572407 0.004715660308114459 -1.0483156348407818 -0.19496752405125778
P 7.934446511505929 6.934777505902888 4.453714523615765 0.36964107374016986 0.19361640934000202 -1.0502329064681526
Ni 0.7054570800307493 7.447550679782496 -0.11335713494524836 -1.0199689653772885 1.118075834254055 1.3958385365256736
P 8.245278731443841 5.069968497829234 8.036876735983022 -0.06559038430629995 -0.46458471439760635 -0.681920064621103
Ni 0.63335347861902 6.338594138342529 7.007950114326767 -1.401016481182187 -0.2653195914122592 0.18273035855511754
P 3.4869257776562494 5.647306009011609 3.8806797656572916 -1.0269433398125927 0.2088676790721177 -1.282191663031779
P 8.449707891362092 2.402666984428017 11.825528821260761 -0.36354293126223197 0.6896727119833285 -0.11148020485987899
P 0.674031960104624 3.2027818707113163 4.242520208114589 0.18732749100749674 -0.5687485881017301 -0.9363019260749359
Ni 0.24023444392088336 7.166705949650922 2.3020255035807353 -0.19302788382638367 0.45427124828674026 0.11074795467954476
Ni 5.115023457160269 3.715297008415578 13.173283098059592 0.168828917982677 -1.32064379636039 -0.008900902034055639
Ni 5.698876381770141 4.6835132473594205 10.87543870207724 0.40337163322339564 -1.0378702711377417 -0.021431944621530828
Ni 5.162271723981748 2.2854540517768767 10.587862914000198 1.0982976231858634 -1.2282141803740592 -0.042692653772520024
Ni 6.669857294021268 0.9307825623632204 12.355118581310807 -1.2075466247223785 1.4600652077152274 0.11332908514315966
Ni 8.371172738279851 1.7533742426347367 5.210683918265594 1.9421784179149006 0.15594871958589915 -0.05622848347542574
Ni 1.2113508251640666 2.4392436122833807 10.656556751666278 -1.8995179029318965 0.7651505306066694 1.6827844479584568
Ni 8.194454820478274 4.530009369761336 3.7327301167335403 0.3853973081331621 0.40936281780982403 -0.5496162381476535
Ni 8.822680751670053 8.96462829484369 7.957662394824959 0.8590153363776303 -0.12476715177677222 -0.15322952088252323
Ni 5.903425344198376 5.806118059359679 3.8000084416662903 0.795633529686875 0.18012325994957368 -0.11778969201767456
Ni 8.508411121253417 5.359586457922589 0.9646387516842173 0.051766076828697945 0.22284599562908075 0.4430290997140177
Ni 7.037411394646951 8.352308450746486 10.367483432214458 -0.6769737763594212 -0.07287663355506803 0.4754306559731748
Ni 2.1913722191300105 8.830762813305011 3.983875804640504 -0.5535662239343369 -0.1911067555442709 -0.3667259569759039
Ni -0.0564887265721907 8.544637557156525 5.626098200071435 -0.20703165430464346 -0.4453621187225685 -1.27523554342892
Ni 6.719870234150031 3.2169462136223004 9.028684853815687 0.5255962210839722 0.27811777161819196 0.2824613932988683
Ni 4.241202380504784 1.3801341305737396 12.902863950969785 0.6627596896425683 -0.26150715964470445 -0.21805371644675994
Ni 3.2813538861043203 0.22959229480337912 1.3627931780326867 -0.7308975229610702 0.5207512342868451 0.7515421957946153
Ni 4.685688123694484 3.294974509931538 7.361442164953837 0.10086206302440048 0.9329273531757482 2.1490738037519956
Ni 7.125982311834632 7.920429617838001 13.296265903903034 0.20996065502598035 -0.25311250782310607 -0.009547534479119041
Ni 4.90088107835576 3.719960090727197 3.3890314605186385 -0.6585937311903367 -1.5050700545606917 0.37083483693795494
Ni 1.8025393496159328 1.7639445102462517 12.94270657955882 -0.5289232285746762 -0.36761787266255397 1.0240842730972428
Ni 4.237350269029969 7.679847746638168 3.3964629023686177 -0.11866052465840209 -0.4341731919852845 -0.4123514681245028
Ni 2.714927618908025 2.338793815452071 3.321578039609761 0.09883063441666849 -0.8218657239105265 0.2807361830776456
Ni 5.830170717133047 9.176945989265393 2.3252920725770663 1.1225513535269054 -1.1010407331486394 -0.7070070894967179
Ni 2.802807367768885 0.9088798988651495 11.027569458599373 1.5888731052202765 -0.8560300284970612 -0.5156771621980474
P 2.535048757958454 4.550624617055981 0.07125945449523868 0.35183438457605215 1.3567945352493342 -0.525043948124928
Ni 2.5343299428985597 8.528086379623586 12.565516670899482 0.04610193656438512 -0.11770150317924245 1.4060830970718172
P 6.578512487948613 4.538441623348551 2.109525908983413 0.5573110356887498 -0.6802102810188478 -0.18620520447759545
Ni 4.408142570376268 5.241267655948536 1.670790686272864 -2.801502286671885 0.186432232886737 0.7364680750703123
P 0.9550103161127171 0.585406671008567 1.160564698067033 0.4369677240112862 -0.3549094239569501 0.020925694409073638
P 0.8332872797396281 8.30946523006128 10.624428483162333 0.5850761216171602 0.3055992648679124 2.2985068337065644
P 4.246740942697043 4.353171649449776 9.471116444738072 -0.19002457822368563 0.7136510771757968 -1.0988097869355915
Ni 3.4300472321477318 0.8664016150565038 7.952942175931657 0.19868585344310943 -1.3841117350070484 -2.1313894990983555
