# total energy = -340858.61686609837 ev
CRYSTAL
PRIMVEC
9.36317671483157 0.00000000000000 0.00000000000000
0.00000000000000 9.36317671483157 0.00000000000000
0.00000000000000 0.00000000000000 13.70395556656571
PRIMCOORD
 96 1
Ni 8.495098003557182 2.4066267105398795 11.715059880668642 2.858265816715174 -2.1618727552888766 -0.7412153599473106
Ni 0.8724364752059423 8.063633450844131 11.334815650630045 -1.1170597342847148 1.2509262772595942 -0.7540755037394303
Ni 1.6744075540270866 3.9863257306659543 9.542530381571144 -0.8680694761600986 -1.0378625578282579 0.5993434301694518
Ni 0.24008309040658582 4.562619902991546 12.117901201732124 -1.1009255477270137 0.6349213272740613 1.0071489307944848
Ni 8.566379868963846 3.5634378479532325 2.4119506129003456 0.5435880296757025 0.44740486018421016 -0.7855308940352341
Ni 7.663095471287288 0.06751037776896421 5.272007889058049 1.5802154295452786 -0.8311903437455621 -0.33549939486145447
Ni 2.3468709158432652 0.18872325639697451 3.88930636471682 -0.2124731370351889 -1.1945337574024784 -0.43596525088870075
Ni 5.616276920979546 4.386395551379985 8.79396592722039 -0.06944292528317073 1.2331920932046245 2.2775718833261096
Ni 2.9443539573945596 6.449281313173059 7.24981701698214 0.7735276989267711 1.1673571969876864 -0.6389921549093253
Ni 7.752083104129129 6.894256930089685 8.439430171876008 -0.04888824106027064 -0.7186518728244978 0.2861838364557781
Ni 7.00145594191694 0.2829711219966583 0.47462973433806854 -0.8069039603943716 1.006129488391035 1.5964933407696957
Ni 0.04361274147874655 5.919653214299039 10.309787482197727 0.7474513135546933 1.003293818714453 -1.5902321903513323
Ni 5.591080612059366 5.685114997226727 10.973059013294119 0.7543200156500687 0.47758395487075167 -0.22708060253571857
Ni 5.251684177373863 3.964678065774295 4.2210783644882754 0.16536898445853457 1.0166013344566363 -0.1549040803714687
Ni 0.9464860956913145 2.960112184043635 0.15851202995258465 0.3158867628368495 1.9174390061866913 1.1822850219421122
Ni 3.5397490105069096 5.607597256033798 9.689450798575686 0.6551934472595362 0.1418737295500718 -1.0197571064767987
Ni 7.770331935821968 3.2860818231172697 -0.17333768418677759 -0.6781238308034644 2.20220025126333 3.37093658798673
Ni 8.27201095178007 6.628361433725778 12.20912850647798 -0.9536247336240996 1.077034600042029 -0.7352727692106306
Ni 7.981827374651038 7.535503460267112 0.9247007920998678 0.010645909749620375 -0.8884398122863344 0.3471290086805828
Ni 4.202652568752852 5.586932724712046 12.935876758753663 -0.34719817135562137 0.267548737853094 -0.4479481342821898
Ni 6.2337035292346625 8.163491732016082 12.4115079563198 0.057057664244940444 -0.5197744721958726 -1.76591746913421
Ni 6.577350846212905 8.083296122242267 3.0416888624037504 -0.08179347642872364 1.5650006694780532 -0.381944059477239
Ni 4.363577489381294 0.7526486720954538 8.004042448060188 0.7855882296357309 -0.5485803406839713 0.020174675175662026
Ni 5.723887912588475 7.310974479254136 0.8334472704588142 -0.08785870878619707 0.0027888755990468097 -0.6392677771682151
P 4.23637873178908 7.634734408589694 10.587374777502038 0.6047082940257908 -0.09232780030114422 0.6992444148321635
P 5.109317073274518 1.186679671584804 0.0777237310837663 -1.0364098845421312 0.4563605267156012 -1.0163822764672947
P 2.9419569841193587 4.437490407484565 7.916035139835197 0.39070046551363036 -0.9262304007715468 -0.16513912783591558
P 7.817737700245184 0.7689340456015369 7.323914389669479 -0.6760654056125389 0.025767338772091107 -0.7467735707613784
P 8.678840986184316 5.5196957517072835 0.4444615785072174 -0.686626726068153 -1.73184983802654 0.7801500893392951
P 7.564407587222369 8.207863827137873 10.422050100068844 -0.10512546628644474 -3.5787881670895074 4.389791494364234
P 4.139928646992805 1.7706891016399489 5.944351402210467 1.6935157183330318 0.10287420835842283 -0.05516198988412436
P 2.156985689198429 3.9896683848036374 11.773287604902317 1.9544212398379956 0.8598504306844158 0.04592941554226283
Ni 5.529676898236051 2.408415077319424 2.0025316600953453 1.4339906221153627 0.5075851292185323 -1.8704122438151916
Ni 1.2900491440778508 7.743422165537093 5.796129503622906 2.762433859915513 0.06028491293298649 -3.4796299741300913
Ni 8.08448524570301 3.003117255344411 6.848894210856504 -0.7351226167860114 1.9479739415507547 -1.6946647443358105
Ni 2.6332717695223695 7.571149074558872 1.372122070811347 -1.5911845269622726 0.827653277126581 -0.8767729174713673
Ni 3.635478130685253 2.7564818137738185 10.66905070553683 -0.195279913085354 0.36250934779139504 -0.7144640599953953
Ni 0.7624041660619852 7.000191913041346 13.642191750175945 1.6003849625146178 0.21977147046881504 -0.9995464358568786
Ni 2.2019476644621623 9.00936112921009 7.643738039454669 0.8740249224125851 0.4559275529432406 -0.5911254131350335
Ni 2.5704916687011847 -0.024541822857927945 10.035064382693744 1.0827259939998515 -0.8669425616445068 -0.5556107651681914
Ni 2.716744491195876 5.025928620192718 0.9965463207532778 0.5221681692390298 -1.0026759826247957 0.10485601467514201
Ni 6.377802821052415 7.362621762793234 5.675658188601911 1.2346895036857575 0.10677174364061612 1.2946998228011186
Ni 1.2442538460739114 4.19143548287906 6.467197752087502 -0.7213240203400223 -0.7792815706914127 1.0641158350978317
Ni 5.773662560756324 2.8588026104589646 12.360776391477243 -0.0500830326993202 -0.07934835732234077 -0.7374684913103686
Ni 5.4264104206884225 6.724128006611545 7.937728684293452 -0.004755769517430519 -1.2628870491658961 1.0879903277225844
Ni 0.1114854741920478 1.9844691556219451 7.998231660503196 3.376920830594623 -1.4637632253921051 2.59914746901762
Ni 0.9998281142413948 3.9733577307200427 4.04781933098709 -1.1013382097844 1.4550453859031327 -0.1521735688141831
Ni 4.654772289610801 4.509062531373772 6.6294803333601005 0.44628643030905074 -0.03919518214222281 -0.8586222147042697
Ni 5.969661941888293 2.7028214472106256 7.445153485192687 -0.906911902948593 -2.8833284161107566 -0.9811795033139165
Ni 8.55596801629969 0.009493325014556159 9.245977035226804 -0.19622170817333304 2.0708472187389235 -1.0557798044283107
Ni 8.388788493531273 6.326530064587566 3.270353558634134 0.566724872803482 -0.11142364059033069 -0.399031611087145
Ni 9.392951758657112 8.372936635113634 7.375688076096137 -1.8132473645684257 1.4790260650884464 0.42992135868746606
Ni 4.3757308929407115 6.7880878677166185 2.454775911205481 1.5578704861911752 -1.7287981956844096 1.1202509875285027
Ni 2.289671268428408 2.5909689364858126 5.226264088526818 4.228896743626969 1.553991462851743 -1.263469146921611
Ni 3.614710604418081 2.9756550576250174 13.104586224620395 -0.17457173400372514 0.7948627129591214 0.8755133340326535
Ni 0.6181475728730476 6.139191622047632 7.412962883160885 -1.2724597804559958 0.07792062373687869 1.0225665509011357
P 0.8202704716690076 0.9775063006160848 10.014535617436406 0.08756148926075243 2.4253928315985522 0.7554680132115829
P 7.374597265992383 4.165995731360617 11.409817506201696 -0.791518736187553 1.7753408193306393 -0.3473863761070275
P 5.496428257219493 2.377966026182885 9.791860545440969 0.3218424661996522 -1.1683445006016202 -0.7684914220544442
P 6.793827495129502 5.141442133068326 6.990319379364111 0.22884386508372848 0.42558236499248 0.0868714051722633
P 9.063648828622652 4.573237745546538 8.712975383731475 -0.625657128363316 -1.0750368528857097 -0.9748700161561209
P 8.567100833581778 2.569068465819034 4.392816818068004 0.8895515572932744 0.2635195620890429 0.795793709413823
P 9.252785001118987 8.333461481487666 3.582638914732353 -0.14832488449205425 0.5383915730764276 0.4692412393330112
P 2.478301829374505 6.887843153943152 3.4714174821276513 -0.44127355047549166 -0.1322680881395077 1.3191821242131991
Ni 0.4387004157875642 8.871198091519203 1.3848943803609635 0.2569941022656993 1.5790008404118872 0.5978082244718479
Ni 4.480738921383603 6.878105450012646 4.822161547540799 -2.1411131541440223 0.08446176728950615 -0.5163150528923623
Ni 0.9818695410310992 1.1955372368908206 5.66051512267229 -3.9853700797200844 -3.1751820492578027 1.2454950789416936
Ni 6.487211542617746 5.3858304121934175 13.243009558627886 0.5863850702365707 -0.3612561921105843 0.5224160235837777
Ni 3.9356803070504753 2.020948092653912 3.422124101250216 -1.7607472377871802 0.7576300538599081 2.4074398466645572
Ni 5.8620134975719385 8.681509491588349 9.445314388908029 -1.606061444074105 -0.04784077363236277 -0.7992099341842235
Ni 8.556267637959092 7.062344681013162 5.5118821806207405 0.5820715304628814 0.0071384108169941585 -0.005672110684112812
Ni 0.8744898198905189 5.748962500209525 2.091977152285456 0.16295369014882258 0.017053613048177083 0.39403852874792783
Ni 6.822993791036735 1.0668497341784626 11.069219775925538 -0.9819636897781089 -1.0905143796960188 -0.8480107577370104
Ni 6.573455764640703 1.994852918755531 4.8780466049250375 -1.9684190967789843 1.8129537445874064 1.4110311851057118
Ni 5.242555079939015 9.367952076450914 4.72685096136793 -1.4421001385963745 0.30974568293611815 0.175027333483905
Ni 0.5844897610278705 1.7028716116700995 2.782150026807554 0.6065119228934328 -1.0347535798856309 -0.16325399499806076
Ni 2.46519338177575 6.4429424424413755 11.517379809290974 -0.32427010180453825 -0.6558683618393737 0.9586329854719684
Ni 8.32077437684744 4.70889145183995 5.341486406602198 -0.4384152550910901 0.3747159171599159 -0.7889933986625379
Ni 8.406784519448992 9.239760822111938 12.518097425333714 1.5319576229801553 -0.10803004152774943 -0.587869110981265
Ni 7.477470490112048 1.3106668595153226 2.947885747704739 0.4910007424972898 -1.1925383242390042 -1.5625642921224188
Ni 4.300685030437834 0.45794080790948094 11.397224033330035 1.4559884665426925 0.7536353308782182 0.05164060699442719
Ni 4.071006302153918 8.528206196920896 13.293166224411468 1.4343438916897233 -0.5013185794835301 1.1173983485710561
Ni 3.0573487756958357 5.121788824847048 5.122949858777224 -1.518742666951778 -0.27911484542413867 -1.288112142281272
Ni 2.6373541146316963 2.2011986103136616 7.6722826204186445 -0.7556050530100793 0.9430955519580015 0.0319698680383772
Ni 7.662749033743607 2.8674822754047122 9.592344355081789 -0.011050087166574516 0.7999830649048222 -1.5868902704622927
Ni 2.637166851094571 1.6837988204139096 1.1343779019834537 0.8556219944253651 -2.0203525524234816 0.6788733073749792
Ni 1.6754187771275622 1.8658189784994919 12.030867663900183 -0.00705973506025881 -2.314615823453285 -1.586816479801564
Ni 6.677976907887069 4.694069542876499 2.139626359306934 -0.06242072832906669 0.8722138373457752 0.17498002518573735
P 8.826076942248912 1.5676392483352197 0.400473373636535 -0.08943248103122017 -2.3514350491641633 0.8846731461550504
P 4.4814692491783905 0.34082900074451006 2.3239030430148735 0.4448365852364016 -1.7074073887134593 0.30982872956822766
P 4.912746538354317 4.715867018597859 1.102918564064125 -1.381459642096182 0.1451508576394468 -0.8252608656350046
P 4.552582577401641 8.155982464177367 6.778332373750088 -1.130986628778452 1.589981764903423 -0.5198006974481177
P 2.164663494220558 3.2027214595660385 2.5112087144358113 0.8197898152181043 0.75952932776515 -0.800928202426911
P 6.407821166053566 6.139388248761613 3.7852515076778954 -2.2254689919832833 -1.4694409925031726 1.0707647078729172
P 1.8062223578094336 7.329101589647844 8.97214437384185 -0.48664272263891023 -0.18363872930199987 0.9565869015762171
P 2.1118458135744276 8.793268370544599 12.971890345895874 -2.3706329622488527 0.30586768803795067 0.22085133379655514
