# total energy = -340888.584974718 ev
CRYSTAL
PRIMVEC
9.13494739857397 0.00000000000000 0.00000000000000
0.00000000000000 9.13494739857397 0.00000000000000
0.00000000000000 0.00000000000000 13.36991889244740
PRIMCOORD
 96 1
Ni 6.648570076518699 1.835987421053796 11.261576053225411 0.5974017330620485 1.2223890890518496 1.1849908509090494
Ni 4.759234562129807 0.21341155673010864 5.801702894129766 0.2630009705814116 0.48107114208840374 -0.7514599204934542
Ni 3.0797105216656546 2.343442889008914 4.237181448087449 -0.43368931037033054 -0.6940852392287272 0.3587938466130208
Ni 3.8220894341924594 4.50462530571957 4.884406180096271 0.01329543155732549 0.9745123757063862 -0.6895158746904898
Ni 4.137299932243967 2.8510536510713433 2.199846081957367 -0.140824462349951 -0.021161207458647427 -0.7334406010978982
Ni 5.342217775923037 4.912226662673674 2.531393520097999 -1.2289932246319286 -0.9689523651201054 0.4307675087378452
Ni 5.113944573123259 4.735894771295703 11.3975351306815 0.605028653479687 -0.364726667157688 -0.1115128578700273
Ni 5.653308412657057 8.028285140397607 12.381213681127234 -0.4501492556985667 0.5433908260632319 0.07874646207228374
Ni 1.7996760047854732 6.60517907594649 0.41313987561661464 0.38915034741769106 -0.26617448321338677 -1.626219921299851
Ni 2.9609836091526 1.6340137320745218 0.26031494461179494 0.2977993092075194 -0.2151828226568681 -0.12242024881115045
Ni 8.02940873893874 9.105194964914913 7.045573067396195 0.09710259598196826 -0.28282134774144835 -0.6278572213384284
Ni 8.85671525826972 2.6199029398125666 1.5571139171235797 0.32652341661508927 -0.15491822143885575 -0.7306452977409482
Ni 7.192473984954473 0.6801023215160721 4.679391467097946 -1.4642357941531492 0.7669292197736468 0.01816741493764613
Ni 1.0517521791329145 7.5912053078968675 2.3154963441561645 -1.0067056726094792 0.4018297426575725 1.564628630850615
Ni 7.459981787219016 3.8159598844274165 3.495444722369113 1.5206794789631746 0.46038353183206515 1.4460331551021934
Ni 8.073704099312348 4.032759593181153 12.626350910486245 -0.9919087168059626 0.021797812601381816 -0.5895562688757008
Ni 8.331830310505806 7.300558683642974 9.107295089342609 -0.35393549007945496 0.6243517792883312 -0.0926101074282534
Ni 6.967407148723294 0.5702637129097042 0.380010161558671 -0.3098654963434341 0.6425791009296353 -0.6856034270099611
Ni 2.201266566291889 6.725431524690187 9.159958975110785 -0.1146730007655638 -0.012962987918571225 -0.39686674222534235
Ni 9.070756212881811 5.197483667909124 1.667991169259434 1.845759221153202 -1.1520547623026611 -1.5777862512784957
Ni 6.554434442645727 1.9047370358551536 6.908317740891434 0.23330241507571434 0.5873237800007562 -0.09882189266592013
Ni 3.2796105775649513 4.264860338978774 0.1071849063608464 1.1639098618690342 1.2842225774188787 -0.05525892047330483
Ni 6.405891061528947 5.713060104181862 4.8583213375417555 -0.6110573761722702 0.5276482185169944 -0.5338494622316999
Ni 5.912576492286625 2.86608977463805 9.081464198328284 -1.1732033713558183 0.3394164705276735 0.31799146788467814
P 0.17549238970374195 6.007333302588842 12.165276311416449 -0.1130164389987473 -0.07837930854085211 1.000045229870168
P 3.9912777966341206 6.234300207897709 12.611737734988273 -0.40721646089078256 -0.30215347241115703 1.0073345644427296
P 2.5738628044685803 8.786129519023095 1.303015304277972 -0.9008739242846292 -0.7991636543273204 -0.7330639344847698
P 6.559038456180125 7.880006672758005 5.816676900053548 -0.4679580017452134 -0.30416998862055356 -0.3481937024996713
P 4.797720095900485 1.2002681554072265 12.307491914407676 0.11028644166209393 0.32910017620333 2.117721000472327
P 4.187277229955663 6.404548224248081 8.043035340107911 0.43850601503268355 -0.5458223183228599 0.3813938434007238
P 4.866698084389065 1.237876734218971 3.616055261054375 0.8402797076413399 -1.0672032157739038 -0.09144231237239736
P 0.12269056622848187 5.868783554024905 3.6996573869779126 0.14357605695315917 -0.041341024840632026 -0.4424254046917478
Ni 0.556797886816337 0.13916361703519037 4.771310049215366 2.04711362256741 0.5284807417206189 1.4541616977465988
Ni 2.0289449168615397 6.211846506970026 4.817569423299085 -0.46216427788157183 0.7478117822179056 0.5945082135643375
Ni 6.023547834381615 5.731759341691611 9.286023990941661 -0.223850268523879 0.8530838013845439 -1.2230848295672936
Ni 9.060050054424838 2.633495741676029 10.124799436844938 -0.6035361280945606 -0.33216853071600855 0.7222537312431433
Ni 2.861814619213251 5.038161048755459 7.024033774712151 -0.5467507436744004 0.7536523001590827 -1.0853320641641309
Ni 0.6629889108903926 0.2159848714377279 9.029749433604202 -0.5660553575402831 0.1720775068269617 0.9123816678139125
Ni 1.680300511000708 1.3482268998847164 11.588217111069762 -0.3970554611973807 -0.5051796051008332 -1.5947907562562922
Ni 4.238633904738182 6.808970619476052 1.3850297763279413 -0.15086102065034665 0.7433861423463842 -0.5310446457930532
Ni 5.804994215710012 7.978472271740709 8.008608463506546 -0.1378954616286141 0.5129998724762004 -0.316723399805532
Ni 5.531576102420159 2.918780151753946 4.786110491136859 0.4144980821538603 -0.07756838260378254 -0.3170036500501121
Ni 0.8834005778812348 7.881943281625649 7.200878136644248 0.3386932192084038 -0.8561431570361578 -0.650726412627118
Ni 5.232178198471913 4.508471118612392 7.168068145748415 0.7241437491770044 -0.05561758936430421 -0.34148260902808286
Ni 0.9357109411815928 7.8566486120289225 11.060038101241357 0.3947399256903267 -0.49207340673617833 -0.2515096821123604
Ni 4.783734491295 0.44752473145953126 10.345790259506577 -0.9194542583899777 -0.07402848777132412 -1.7720719187713805
Ni 8.248455644774742 7.721542738668296 4.448118347542818 -0.8082427338104532 -2.784184364218728 -0.4490346824781493
Ni 7.572277696699895 6.161394191988908 6.908865837740767 -0.4017842341316177 1.3782707028452392 0.9705801305315156
Ni 2.4264795616828896 5.5031846856247 2.5803276068064647 -0.5596898203335716 -1.4919682270714112 -1.1572501904606713
Ni 2.120979512812068 5.490825101672238 11.478342876168186 1.0972545266333296 0.19505262756589634 -0.1966066023165775
Ni 1.0408359168836954 3.609765849708277 3.6595339571224783 -0.4926079390834097 0.06409194538390252 -0.23576064680821976
Ni 1.641212070695764 1.0952527990749905 2.7623989856917026 -0.9642850415514232 1.4628378853643582 -1.5915156850494463
Ni 1.3118698088789493 3.7383585055093285 8.011562705524451 -1.331738620721971 -0.03926743014105495 0.8520792713794293
Ni 3.813100645863395 2.470299904787077 6.489090336268225 0.3182020412335875 0.7812569492502286 1.0150607294423937
Ni 4.339748638492663 6.904668329369623 5.72257963296003 -0.021449171012711446 0.1426208921287415 0.11489822940249245
Ni 0.7465800748769438 9.074821264514366 13.298309426315974 0.8440432884488301 0.7383295537590833 1.116510032428832
P 0.5037037450214327 5.82756667095505 7.8866614820036585 -0.5036845086125455 0.07958669858539197 -0.34435067460449725
P 8.78970128349125 1.8817169681831605 8.077770977934401 -0.45511328457206135 0.045801374604830795 -0.611074859673767
P 1.8334479056518855 3.695999754003363 10.275545253801289 0.5366455369195984 -0.2595482361461207 0.10385277022160826
P 4.048718346444237 6.381053139306666 3.563337479096013 0.5714323055814804 -0.15862498086648166 1.3920137634629446
P 7.111912883049985 4.20173785183057 10.374843046500231 0.19270572460027455 -0.7031635473809116 0.8868907226316597
P 6.311271275439064 8.03580320218096 10.169641980573132 1.4145301993979056 -0.9249237661449814 0.4647166119897803
P 2.3334492564560727 8.264514882460203 5.622612248610153 0.8647355266908592 0.3583001948060539 -0.13396835866006604
P 7.009747630334282 4.117349206928239 1.39634066830868 0.8350943067856585 -0.2103553193612377 -1.356819989170631
Ni 5.512584546590765 3.284196321204372 13.32676113376486 0.18847960233406896 -1.1937012341988538 0.14404913993483578
Ni 1.7314105422010266 1.5563758133664778 7.2346235461629425 -1.2350088346983892 -1.6312921936164355 -2.1787193945325702
Ni 7.2613240841782085 0.7610699285838151 9.235886831648912 -0.3652133769861194 -0.4330925573265961 0.05820360492392557
Ni 2.681244112200438 1.927282086257725 9.203972979101737 1.2266177824212166 -0.2282643384311746 0.5372500032728167
Ni 6.450871542964223 2.1374041483970854 2.260157745763241 -0.09704988836716189 -1.2706096146211343 0.07430205314768494
Ni 4.222318888523031 6.8909567731888055 10.654862986340301 0.22009542946713706 0.9693799395758274 -1.8401783846313147
Ni 8.33278034504465 7.449924210033752 0.11607503725703047 -0.9871277504775517 -1.2282977412268006 1.2560024062309207
Ni 7.9194787808574825 4.177365811930222 8.257181346616125 -0.5133953081424061 -0.9913803551063185 -0.9382788472956487
Ni 3.049126717472863 8.378683456176304 12.280671708580305 0.41393552478217105 0.6296636784195478 0.4831694193783292
Ni 0.08422147536328425 5.146428446393739 10.004964455201483 0.4863928114116334 0.23733776148735256 0.8405193344559717
Ni 8.716027931993382 2.3812158968754584 5.909651482100684 0.49674330140802186 -0.008038811144076476 -0.5307998767720987
Ni 3.612880866801987 2.8895391848420213 11.247658047231344 0.6421777517261587 -0.16545820173823117 0.906511839296697
Ni 1.2306144509653065 3.426226484761575 12.764796520648808 -0.3464137277811131 -0.20948114428640052 0.136615566474926
Ni 3.351128081455441 8.447003728445683 7.591319494740478 -0.3903808773906825 0.7046463025740252 0.8854352211320557
Ni 5.651527097896723 7.956511857977427 3.5216236548827626 -0.05012057080547497 0.20873501014899537 0.053688490662391404
Ni 3.2107604783412156 8.845862940652923 3.5952513316431856 0.48984451740565965 -1.2538599059666213 1.0493533320766766
Ni 3.69873110330254 4.601857686791275 9.297776100886114 -0.14338528109859178 -0.6846878571742273 0.4585282237908813
Ni 7.303189548519774 6.340804560670634 11.233993992777467 0.3828112925735407 -0.09673389978863985 0.4990045866383729
Ni 8.313953218270056 9.195420841262642 2.3114988911350283 -0.277781985545328 -0.565669177845458 -0.2821412909552883
Ni 4.5850037086742805 0.21918210305883806 1.565109736660602 1.4756738607867619 0.48899631047275144 -0.39446764586554645
Ni 6.240530242085129 5.742712143730786 13.33693563827798 -0.2640412389204678 0.22340135391191845 1.2365715511998188
Ni 8.048336350135711 8.879470412464535 11.636509010969759 -0.672890350318667 0.4814609213276546 -1.344409788431736
Ni 8.986029574922393 4.835520508609496 5.641410143552783 1.804316380627383 -0.1677115165487821 -0.14748079132420408
Ni 7.289752040763623 6.182020903418813 2.5169411196758325 -0.5982363131482019 1.9725359471608348 0.19132581353361242
P 8.81775470722962 1.6650086089043128 3.6113352336868676 -0.7309718278424314 1.7567121484858585 -0.70579558568712
P 2.100042213167541 3.3117107830408976 1.5954587727029286 -1.5538662501277885 0.03166673497566159 0.6420579383188426
P 4.836972965260229 1.171246427235035 7.924952441392823 -0.5458233467641245 -0.35139369749420774 0.7079997924272904
P 8.780794709689586 1.7359414761555143 12.458852513330028 -0.5225291521228743 0.26323571230003695 0.23881820268762097
P 6.269104357830366 7.717824815040319 1.2014821899284995 1.155362229409339 0.5902342687793319 0.5229996640013896
P 1.7357679121532252 3.258536253708091 5.773438453104404 0.8553872527067397 0.17326021428115324 0.19723883658393773
P 7.05151261025347 3.962383957726774 5.99227708213766 -0.4921911632609653 -0.10410242433856909 0.3212287438750532
P 2.613928684154835 8.90690265977366 9.744799323728508 0.18368012406289658 -0.6759903294002294 1.6135770357248596
