# total energy = -340862.4106346511 ev
CRYSTAL
PRIMVEC
9.35796645843701 0.00000000000000 0.00000000000000

0.00000000000000 9.35796645843701 0.00000000000000

0.00000000000000 0.00000000000000 13.69632982966742

PRIMCOORD
 96 1
Ni 2.7613768515768573 7.187844770181043 11.656987823768423 0.425154533426442 0.3730560129589897 -0.439372733908353
Ni 4.571450894788786 1.4996890077707088 13.509512410765685 -0.012704334940545863 -1.699196570767893 0.3570292985134303
Ni 4.220733023398711 7.486176744670492 9.692892880251383 1.1360540159990304 1.350043589678746 0.5259307216052556
Ni 8.842670147872896 0.7027402433210479 3.6504276588785447 -0.33386494458182503 5.582457088209721 3.469519110948334
Ni 1.344739797181113 4.36232841568227 0.8904778972047503 0.7125663287520503 0.5140576243167534 1.2081883720714355
Ni 6.012137923288603 5.6205350959216025 9.335212681727677 0.39529708374537725 1.3924395381464536 0.3365849146161493
Ni 5.844087559490562 3.7704463876244527 1.9642998829850853 1.0077940205776514 0.47802875571765413 0.5569693360786149
Ni 8.146184769412223 4.486714507429878 8.174640474180967 0.7273763971816892 0.05419396954390021 -0.36124770747015206
Ni 3.8262760162255836 7.6286237119126 6.506592289715161 0.910304987790542 0.5331390664282366 0.2658734070332002
Ni 5.099081124325756 7.7071370514974955 4.087532662931792 -1.4054323508616957 2.156270321500435 2.4571721808926776
Ni 4.769858502164109 5.78399069813011 12.046689112326883 0.5401085557675344 0.5365378076971405 -0.8995559768041541
Ni 7.265843421604178 7.022957399086184 5.605771032052343 0.8599810427250093 1.0271649689050955 0.44206802135232903
Ni 2.9632094747195317 2.3030423645459837 11.512190135322058 0.07838187964401339 0.25998866611764904 1.1919587975864505
Ni 0.9025786837860649 6.2791019938104045 2.7348554384996757 1.1979651516815304 0.2869477112049961 0.564645364566634
Ni 2.5674423522255605 3.5039502154315247 9.462177829064036 -1.471852944378775 -1.3732958753384672 -0.6749770576443666
Ni 3.873683474907 1.8273020596810328 5.053809153617316 0.324005535289242 -0.08138184281260179 -0.5707910724530556
Ni 5.425384060915236 3.645648545347436 8.408190989241286 -0.9923769146916327 -0.984291309470021 -2.1106093291282106
Ni 0.3684615118175983 7.2023496183761075 6.913743378550612 -1.7681283607426002 1.2756083533873064 -0.2590540701185216
Ni 2.899687597591728 8.865643955820563 13.507950566143908 -0.30114534286161687 0.9729625147207632 -0.6027773955516651
Ni 1.9244283947884981 7.031379569005899 8.976218624696497 -0.7152101941328005 1.260755347534874 -0.7671084256639885
Ni 2.7070538555946975 4.896181692993251 12.627646650202172 0.22292569982708058 -0.23802835979647394 -0.021247339414550506
Ni 4.6661441585861105 5.746381030455296 5.080201426755729 -1.4941444087871236 -1.2748686470078043 -0.25204704267306915
Ni 3.5010960356253995 6.657659815768426 2.594632859913031 -0.6717168988358561 -2.2577466210700665 2.106293732471992
Ni 7.237320339476078 7.788701088186644 3.5089585991437815 0.4060363245397523 0.9331620948943734 0.07964660528904993
P 1.0444145758106644 5.59787945883757 10.749865847209001 1.6803105324966674 0.25699693047917677 0.05065638870428695
P 3.2651723402410355 6.467627588479929 0.5473605662688891 -0.18315021970135553 0.4806934470340109 -2.460495074618324
P 8.722570004817765 0.9103139789589939 5.969613451567306 -0.4771838912188556 0.8847587638903215 -1.5901522290430161
P 0.30903468086409136 9.144661087294132 11.10258725924331 -0.557713156223175 -0.4738311726965388 1.3803000745704421
P 3.971595879206972 2.0428347458931095 8.946223534425762 0.6214153223678266 0.06620230685868599 0.14705758774385638
P 5.583561769974055 5.98373649472601 2.8362630433163294 1.2592713067901795 -0.865479346835419 0.36736050523610925
P -0.060282149098686816 7.149767204177355 4.44621229228597 -1.6149399775106574 0.48487200389173274 0.7559812054025755
P 7.873156736548228 3.101922613297232 2.8770235383377756 -0.09917901889502274 -0.7135232933486809 0.09895867535410054
Ni 2.0206376491713725 7.791171591363093 4.669586018693301 0.816493918075652 -1.938791246610222 -0.3929740920391554
Ni 3.2042987676546533 3.32091774714297 6.8706405844948275 0.8470455656102638 0.18770981404757994 1.0485511478903555
Ni 0.9150930924901032 7.515963152286551 12.921062884848482 -1.4111844228541244 -0.1278077383753089 0.8246574277230507
Ni 4.810303633711894 1.6265362447281895 2.6043436218304614 -0.7916640035161656 -0.6871496884511585 -0.1613981727362446
Ni 0.4002392947213395 4.3086791932936865 12.552042702426208 -1.1455030772270722 0.6776888001485748 -0.5256389013964495
Ni 5.546813035224366 5.793694909470936 0.6665810604657394 -1.626100107892535 0.19406249573848514 0.22473524223199362
Ni 4.972926376895007 8.07779674966414 12.877289124589092 -0.3297843467545482 -1.4619308001690563 -0.5691923605073681
Ni 2.384578327335399 0.262353400389086 10.477349695116791 -0.681138192149756 -0.8007577382873176 -0.5957395148682771
Ni 1.6718662348294095 2.186198793859808 2.5934687288707945 1.2882111297529815 -1.0239246075909267 -0.18764425091696718
Ni 7.669546099755836 8.989796098403735 7.4760186719506585 0.8998907344357534 0.5355911275131551 -0.3021025645685636
Ni 0.19115611907444896 0.6069202803477959 9.060683631024657 1.8395191537807611 -2.223410566792358 1.5136490544789545
Ni 6.393830664050074 5.145384342951032 6.4337685938093605 -0.1713894796210016 -1.9799936889904608 1.4013787496176122
Ni 9.225401622924464 8.478963418873306 2.635858445873376 0.7586710935299128 -4.782787440780259 -2.04670918804014
Ni 7.541108008480188 9.108642273937486 10.327292829453892 -0.8724300671216394 0.5578226852178457 -0.8029308346792365
Ni 0.8938982339888123 1.5863999260774602 7.239455827449055 1.7250181598166872 1.7487664112762205 -0.5110175519388489
Ni 4.631603903948703 3.854611939022135 10.63978808635833 0.3839181524844743 -0.48767219234468917 0.4737100737376422
Ni 0.3809497182152196 0.18285747431355676 0.8097457837443385 0.8600268083612801 0.5118559886797444 -1.6920674159222793
Ni 1.5680021637861725 0.5376123724851481 5.228629070437492 0.3589033756076916 0.6464997761402802 -0.04183287687538602
Ni 9.22810607526535 2.4183137968471455 1.0129549637705568 -0.22824531226778108 0.3542648483944157 0.3368137427975038
Ni 0.3422657559773123 3.112740422660777 10.352398382187905 -0.1195436985943038 0.303189112764523 -1.4666166356805
Ni 7.927404868797768 0.6997054547599771 12.908654221166769 0.21589270423969917 1.2444594385883276 -0.27227236858100856
Ni 7.576855440806087 5.1309730744217426 4.003505609439455 -1.0793624768442573 0.3776868268627818 -1.2958848442481552
Ni 5.30120384443233 0.3443020495045678 9.326516323387242 0.19357784279258275 0.8353822703397226 0.2634120899769012
Ni 1.9737916684846037 8.106516349090366 1.74410412202746 0.5642180472212283 0.6294716170133998 0.19314589746148672
P 1.180881802409775 3.8552950705822897 7.691913511469283 -1.1190050309365438 0.14639424312824464 -0.5574323917579626
P 2.295350116019311 5.263444449292276 4.273336960920591 0.30864293679024263 -0.48527772397058355 0.260214666085526
P 2.339042461969475 1.7193111253771356 0.24528727674177084 -1.4932306387236025 -0.8135605464789408 0.06830906878904365
P 3.9588128968621605 5.393239445721658 7.850023843168745 1.0577649531791395 0.49562949951855284 0.08856910458966037
P 4.318476984300288 0.03130239820160629 11.294692276128714 0.39498829425570686 0.4004089510506459 0.14651097121176704
P 6.632645971106872 6.88539529039751 11.019259245854311 -0.9162051553250607 -1.030179073141071 -0.5396601553762062
P 8.13676129706872 2.841424897680457 11.966182525860988 -1.348234047273833 0.6534121869893973 0.14062803006842878
P 4.931245993758997 3.5539872627212077 12.879878473941078 -0.32303442962522433 1.4366697116094225 0.5629623204372562
Ni 7.827836104413586 3.199619784365923 5.4413328433532016 0.6503155503419445 -0.5979072119435573 -0.9950814581069896
Ni 8.344264847957335 5.181365724441369 10.68208235210182 -1.160126226456886 0.20278547743377978 -0.1931420408067448
Ni 5.002488193313206 8.23095858863744 1.9087612871445134 0.8427461669039614 1.657245680257404 -2.0281563647386167
Ni 7.253874582351607 0.9900822218619274 1.7938492007599263 0.04879182469172242 -0.6361338595249239 0.505648831427768
Ni 3.5348970109031876 3.2395221538522154 1.1318535439171424 0.31369644005375 0.8048468207550268 -0.6942559604786366
Ni 6.192054188706865 2.035975356391831 6.635159520929578 -0.4309294882370062 -1.3501024679411395 0.6381575748231718
Ni 7.333276928761361 7.13261405144087 1.4005048558128597 0.7562288026370073 -0.017488386592750524 -1.7360682469832618
Ni 2.161250454964298 5.930461591000526 6.733431271146125 0.9326249914439809 -2.142839649916826 -0.807854240122783
Ni 3.2333646118442463 5.494296126791657 9.930578680742283 -0.271281722532965 0.6099291761050979 0.9112925485147918
Ni 5.801536885462848 7.787428404732109 7.973907412111143 -0.48741533913887664 -0.9103854633194902 -0.7608004811680898
Ni 6.891711917837297 2.6242264934175923 0.17516616158354173 -0.6950352618468223 0.828696630789431 -1.1477749039803846
Ni 0.5258980699234829 4.116728582856811 3.196476443392554 -0.9165993054396859 -1.9385089394831134 -0.47781432571400295
Ni 1.6581661717600067 2.902682146896515 5.162954860996872 -0.7756102924874126 1.1860524594043445 -0.4249843263971649
Ni 0.20742494396936453 5.133368713865573 5.247023089542149 0.4629818886868607 0.1887014885368879 1.8171580124767412
Ni 3.6424106889116343 0.7497855486959164 7.28742008514183 0.36496577975168754 -0.003803947127122481 -0.40272602921959666
Ni 8.06047515352926 4.49584788280948 1.040693848299466 0.2204738958524784 0.6881272218730794 0.5638382952843063
Ni 6.553365278262625 0.9229565918051434 4.139496515539774 -0.5586320684930186 0.006515175410698457 1.0108379496102977
Ni 4.055471333640753 3.980972561717588 3.372953656093598 -1.0896142364792525 0.05771689509549415 1.2937544281687139
Ni 6.9804628728579345 3.3327742907966122 10.01711273348072 1.6305262619846885 -0.5482666660982946 -0.37846869933412886
Ni 7.85766930186253 7.911047143220367 12.324971643424123 0.3895213576038647 -1.752570358403343 1.1339446829655115
Ni 6.902267704136672 5.009497310279724 12.658148006464748 0.9712804990326498 -1.0160860853831146 -0.693429093701967
Ni 8.983236163832935 7.2653474493755725 9.747089543684748 0.15337016022544553 0.4019073899730433 -0.38185329953564556
Ni 5.907908891548845 2.1111946917414603 11.594929532613333 0.42904975471579015 -2.1839600741062193 -0.24001967919488987
Ni 0.5974125863050957 1.8075006024031257 12.270418441464157 1.9374167348601987 -1.3229107380176959 0.8954530103793739
P 6.070924669328212 8.885239537833765 5.853565308040215 -1.0833178619475796 0.39110078627584255 0.25489633919640614
P 5.258821613803011 3.500684285095991 5.283961791013359 0.2654322057307235 0.0836349005128366 0.226215683432262
P 6.415344629211655 8.982131923776794 0.2755771429596958 1.2739073115357995 0.6588331008946524 1.3530342968759534
P 2.0742775135933775 8.663605457413183 7.417027922239661 -0.8473872652203986 -0.30137134282949385 -0.17511217988822744
P 9.340280020629374 6.203789078795 0.8477915326616631 -0.1597701502145184 0.7852079634781768 -1.4689085170384701
P 7.639067202613046 6.569797867572645 7.659727721222764 0.7149026901947108 -0.4102701601154418 1.6355545684372155
P 7.839271539571242 1.517019961872166 8.719699916468457 -3.0199902624425863 1.7397999461115523 0.4683606365002708
P 3.3898578869191227 0.11989239619711194 3.7271133875908626 -0.1254567216446291 -0.4509128733374686 -0.6405888099724838
