# total energy = -340891.3491982492 ev
CRYSTAL
PRIMVEC
9.10796220917759 0.00000000000000 0.00000000000000

0.00000000000000 9.10796220917759 0.00000000000000

0.00000000000000 0.00000000000000 13.33042334005986

PRIMCOORD
 96 1
Ni 6.344287618198662 1.7223793883050316 11.518099186942337 1.9919611457649822 1.6287030927330208 -0.6471188977815178
Ni 4.546075337472791 0.21171184655953493 6.1428459096998695 0.20464387079875723 0.3724808571818101 -0.6497560782940488
Ni 3.1125094272682663 1.767809903245597 4.883760318594165 -1.1730174805972573 -0.27524893471082923 0.0006672012703536896
Ni 3.211367247870691 4.16545360143305 4.848981565326212 0.9874640507710478 0.0911242669113463 0.14379897159724267
Ni 5.01325914528381 4.570885426225417 2.535193052574765 1.1560736536540672 -0.048718805361941904 0.35245247777602523
Ni 7.553770336927098 6.433390811395044 2.4752726807338497 -0.14209792974573593 -1.1690111876513416 0.057682442313132916
Ni 5.198433122680889 4.35270419418828 11.80816865301604 0.6943279513671526 0.6577774059366285 -0.2618588865571684
Ni 5.55706823821812 7.864342736477687 12.693029029862828 -0.6576128553343061 0.4282272588144947 -1.3215542239898015
Ni 1.6414642530339845 6.685271503191622 0.5475788784463186 1.3897895021181161 -0.15074429256682426 -0.7626856140059445
Ni 2.9579928502901804 1.74881069431095 0.36925135615766347 -0.06354995683750346 -1.0419045891081151 -0.0048748115937980565
Ni 0.6731913377091109 9.421002754425144 4.658902950339819 0.5790563977856414 -0.37674014667879635 0.706571544621196
Ni 8.603918366728058 2.044017961803654 1.250849260981255 0.010264872261117804 0.9486560767649147 0.45271778775669125
Ni 7.0909037031501265 0.8186764594716665 4.784808685982139 -0.1868559506877169 -0.7587045178710095 0.45625511148598846
Ni 1.0387812931037215 7.559526568972495 2.652967199656753 -0.5296583069684878 0.0994852372815319 1.0581102523337003
Ni 7.617025133691779 3.6724396131145247 3.789919573020775 0.226313642462707 0.9754832242600878 -0.24046833669653425
Ni 7.597980384946646 3.344707812972912 12.828839674285796 -0.2646709020846668 1.1525815813404086 -0.8411258576917191
Ni 8.082077678372066 8.94703351485175 7.130069761760275 -1.7449951171592462 1.0640631274830255 -0.7459096800991863
Ni 6.816535452935694 0.5782253493107963 0.4976663353577476 0.3123453253424943 0.5993349455290193 -1.619325765283179
Ni 1.7728283903611248 6.589273582687701 9.295050568176128 0.16130021370579964 0.2063821936461026 -0.17922851604944617
Ni 0.26142037129712986 4.822875413567162 1.550794490356894 -0.9091665033107246 -0.5125468440991817 0.6258882705375156
Ni 6.293629133014335 1.8910770622683741 7.078975005191495 0.23992609103981907 0.4814771192775708 -0.02804842149678395
Ni 3.4447041288374805 4.253372759556803 0.4302983829099958 0.673774295585517 1.1550195013579398 -0.588594933403696
Ni 6.531283188015171 5.7188711848739215 4.5658969953848105 -1.358971488295995 0.44707678742083007 0.4601017389255882
Ni 5.250649069383829 2.907771547286516 9.331775692944241 0.5702570543264566 -0.21650771211587874 -0.06042452383464433
P 0.15193446972354477 5.534444060368808 12.85142104471325 -0.324525412348454 -0.29774968691650655 -2.395080553768256
P 4.081368895352196 6.180307868601641 12.606514319494455 -0.2672672020569332 -0.4437392384071648 0.7492999367276579
P 2.4410340296182578 8.687201572144362 1.3521844472741038 1.1292603901159648 0.039656695159673634 -0.011661495498328303
P 6.392987891532103 7.923007120345406 6.015513867193136 -0.1081701666500395 1.4631212209327318 -1.8664671431245143
P 4.765768491218055 0.9664731820144776 12.515973889879145 -1.583945328901356 0.11485889152412475 2.332493475064654
P 3.873497876409028 6.1897255014100905 8.300494806627519 0.9869228335555971 0.306098315991518 -0.7372535470860851
P 5.01338665675317 1.072061786606694 3.9610955234707506 -0.6852270175071489 -0.5379187472050672 0.08379610868104924
P 0.20942119409210264 5.753836651364867 3.6384723792694276 0.357830454258487 0.6433789711231114 0.5485731415951197
Ni 1.321027930532186 1.2027701506628394 2.4639824509182273 1.3702329201424273 0.7370319179935823 -0.17235929973343864
Ni 2.235257841957433 6.343950623601068 4.866070834609087 -1.3768262570892287 1.1419675532699882 0.15376122501627712
Ni 6.011555546865716 5.630360009213854 9.009006821349363 -0.8407803014268422 0.010647195301201017 0.9784878154143665
Ni 8.824076026540277 2.29261978724526 10.25250868930685 -0.564117517087622 0.8559845199711066 0.4049212370987027
Ni 2.2828651598392162 5.314368372215463 7.160237153818442 -0.5118788714978797 -0.6380364758642755 -0.7100481903158867
Ni 0.4466781419455036 0.14579023849280995 9.010139851834248 -0.08136873018647922 -0.02506748449158909 0.6548005826964917
Ni 1.566296241846237 1.1744443885407148 11.4511265200496 0.10292125954627435 0.5366537644497145 0.10685813270683533
Ni 4.097189425514939 6.737332614538911 1.6050761228634658 -0.18747044434326424 1.6278926810165835 -0.22798768773102024
Ni 5.636717366757663 7.84154550734853 8.103431295508825 -0.39369142982115424 0.6379341459584562 0.6265194763636113
Ni 5.420895096903686 2.9949620684424967 4.830932316838298 0.1762735471861803 0.4322011558605782 0.04076818305629753
Ni 0.6639722584743795 7.572377903491568 7.055619457985783 1.7442178726735895 -1.007199324416446 -0.6923294328798851
Ni 4.8077470885238025 4.720019197604089 6.660692756676263 1.4967296530157965 -0.24431470702581792 0.6285488480888143
Ni 8.160788686815602 7.06488225543858 9.165319488453006 -0.27429942631336635 0.9345800582878226 0.7065622886498154
Ni 4.752653025798164 0.23098338356088663 10.504147109311646 -1.3467124684229839 -0.9225660645460823 -1.010440457061563
Ni 8.31363850672991 7.592761522664982 4.627136200137393 -0.44098044471510506 -0.9501635145483766 0.544534452749372
Ni 7.39389827823589 6.370363713682792 6.857555892628821 0.6242440500658734 -1.957843378145667 0.9248538321389942
Ni 2.5413218002699347 5.378187862630168 2.6832539060183938 -0.9044457007962875 -0.7559210415886014 -0.6298174303885927
Ni 2.31269373570737 5.2866164117054595 11.616010690282868 -0.5389176207832267 -0.12057213985881815 0.3744233256201616
Ni 1.0559224777705507 3.7450027471424887 3.8317497105443388 0.2930610231915856 -0.7320236661457135 -0.5688851136795945
Ni 3.733854601535582 2.5879272423210318 2.725365479570759 -0.5345611435867439 0.12123342759190088 -0.4879100193871081
Ni 0.946308153931396 3.286726526262479 8.167990352445816 -0.2029250883354376 0.55142089545656 0.7480457526055827
Ni 3.743718524486791 2.651719408849444 6.961533298726052 -0.2161744971461761 0.016021058018604668 0.8965652696069462
Ni 4.287363674103353 6.9380083434253335 6.180543764819958 -0.009383498097429001 0.06737395856928396 -0.9059927335684332
Ni 0.807009160025222 7.434128146818986 11.493570534218513 -1.0611593235726693 -1.3472014922442603 1.0028127653129761
P 0.20395823842623434 5.63241840864781 8.005892307818067 -0.028153579616080546 -0.6794353505260363 -0.0015280066087522072
P 8.2185604903978 1.7921919177796575 8.140809461159302 0.7362348760135836 -0.17781003843536475 0.48927218984195736
P 1.7647405200188588 3.430468384079641 10.469061417721017 -0.4315213561847343 -0.9850420715931164 0.11993810581924505
P 4.222259961032951 6.079081977853958 3.9593222032504363 0.4794878567616838 -0.24637081822389825 -0.0695776510888221
P 6.964084438909463 3.9568812694084015 10.411714045172547 -0.11888781017785975 0.043058007531738746 0.7607634572825672
P 6.298838887333903 7.7264299744026985 10.455410404129815 -0.5648698218726144 -1.1889117832300105 -0.9828424928386366
P 2.3358370673962185 8.401557664853662 5.724123746615347 0.366296325637653 0.5441333606562112 0.9863929291940562
P 7.113974171142198 4.067779815903254 1.5848008884390088 -1.0015675800519654 -0.13837137282376813 -0.023016772610147455
Ni 5.3881701890886395 2.8712304033527656 0.5905547976017032 0.18273087277574981 -0.5479630188149466 -0.18298155533397517
Ni 1.6092676070205727 1.1753096449399434 7.077921213976854 0.29455714812113787 -0.7117808567362773 -0.7979981732643096
Ni 6.904682310111875 0.5352758432454935 9.479743645174478 -0.704621877093993 1.0290369891168276 -2.6130787343867317
Ni 2.9297308439027354 1.688825655939145 9.334988981972113 -0.993341078377115 -0.24278541486548508 -0.49859423857383167
Ni 6.589328230460285 1.792601776074029 2.6128958096141486 0.29831712938420235 1.3287296586923183 0.02582724547574907
Ni 3.987083271722538 6.728661834622427 10.410326902545151 0.8105114752399718 0.9862016391188563 0.4676702953014656
Ni 8.042230344197051 7.186464441473386 0.20019756087632265 -0.0019054445528289762 0.48315862074505184 -0.28632756112249397
Ni 7.5152891970666555 3.9882946306814584 8.236748179909593 0.8591441486460107 -0.34121624274057366 -0.7844595153479265
Ni 2.9638219460323536 8.480232241448812 12.306633756649706 0.7899061402847944 -0.4409174526876536 0.8042271848931569
Ni 0.13004348282305384 5.039080217829219 10.256707459833635 -0.5886579254311475 -0.9070574273875217 0.40408305746812345
Ni 8.724462245083789 2.2220695128407653 6.0256710665238735 -0.4691139697265275 1.1155376412132336 -0.26496709316884687
Ni 3.711430798852408 2.701922495928914 11.40463037354367 -0.6948635121556485 -0.4701439536529387 0.5206833571633871
Ni 0.9511444818049805 3.282309164645363 12.807763849993 0.537414553875139 0.8349747504886588 -0.5083302349146729
Ni 3.120952508132321 8.38242183648756 7.971925984769179 -0.615101978555289 0.0982045707968954 0.9064552750271486
Ni 5.495553062213994 7.920930504987257 3.823179118210924 0.2622890321160515 0.14074475815195114 0.1872076776001808
Ni 2.9997346405814014 8.841909416326489 3.600547735893121 0.5134935242831672 -0.6409899020656444 -0.003149344262259092
Ni 3.3809483941574565 4.3776691182965575 9.384924294965929 0.11298095777512154 -0.22748735105583404 -0.16085284175573586
Ni 7.110868356067071 5.981462840096745 11.552797790143833 0.7410826910241882 -0.44347312922997173 -0.33348390709332243
Ni 0.4555766209144154 8.916212171115008 0.4827784605137524 0.22298380675852564 0.8025500543010501 -0.656098989792941
Ni 4.817100965597572 0.45465034116913566 1.8527425605976953 -1.7720580348143096 -0.5793937265204021 -0.6013535186209449
Ni 6.017175159479655 5.82081660462728 0.5207213198142538 0.25721470291693765 -1.453242014145807 -0.12842017514832724
Ni 7.979385405726742 8.796597304893186 11.220297061048155 1.4237596884159736 0.00818999200996009 1.9809406262847624
Ni 0.07034170207247004 4.890793486925581 5.774313171751671 -0.2552061571273411 0.30539666193880305 0.5132305004297677
Ni 7.999322734757395 8.811197368134911 2.47884573426456 0.16265904172653922 0.7744149866277308 0.18555111583336428
P 8.849250433776788 1.974961393183091 3.6886745555526876 -1.2711842561776816 -1.6963814699166009 -0.42010231571451523
P 1.896250384739553 3.4157863491790414 1.5349848897486673 0.09644979288931776 -1.4689015750599348 1.1889071552443202
P 4.657611441314444 0.9955093651801797 8.256504260494513 0.4783455156271245 -0.025259545897737143 0.10964932229872729
P 8.779747575013467 1.392343273752841 12.458213926647671 -1.3420510583915723 0.15377305209081907 0.2688530584868144
P 6.154878438426409 7.882631524368756 1.4911145687153433 0.8012189941944523 -0.9527359032612432 0.9815985931292063
P 1.6225287998340177 3.2302844851464636 6.06148994906332 1.2628340844407737 -0.37434130742931654 -0.07213229918987576
P 7.030363079090396 4.098901722389202 5.951340987849063 -0.9771027621413818 -0.13625638336329438 0.9357632799626465
P 2.029581841879677 8.546884308075729 10.246950100038962 2.1465286687326386 0.4126777411156699 -0.9013824884899314
