# total energy = -340869.17920896795 ev
CRYSTAL
PRIMVEC
9.18685741454548 0.00000000000000 0.00000000000000
0.00000000000000 9.18685741454548 0.00000000000000
0.00000000000000 0.00000000000000 13.44589444796716
PRIMCOORD
 96 1
Ni 0.08151314591768474 2.991727584024411 1.0027803654843765 0.4979640611890005 0.5193286429077056 -0.611762629769411
Ni 0.6005200458868761 0.7057352831925812 0.06481327703197028 0.8625233495308886 -0.34782757740950415 -0.513542889463864
Ni 4.438620834120398 3.3338002091534555 0.8851784887141492 -2.7386622114172123 2.640146022917169 2.1534408224714396
Ni 6.606480257840051 4.864450035677575 3.8437644856524034 -0.0456332244580827 -1.0723629055979724 -0.16281947856380347
Ni 6.138171028926981 8.23718414533585 1.6606622285874002 0.5210497393638703 -0.36194833308160246 -0.4764259300069085
Ni 6.1190348055311485 9.311890252640026 6.943257578521013 0.10679899733412573 -1.5521991468380105 -0.45041870730986944
Ni 5.796447504368767 2.8008246929224487 7.585339884736782 -1.250322325127008 -2.386365799603077 -1.0082123390619926
Ni 2.665483913725427 6.3519308205612655 6.120422939643059 1.1561230188347635 0.5299352147789583 0.18343098416656797
Ni 8.668874561740141 3.3306766777302284 5.190034089634831 1.1838577657458709 1.2773898707677613 0.2936845157081975
Ni 5.127102280942498 0.3886334544208143 8.966085007460226 -0.697601994132734 0.7179481618892538 0.5091365328660522
Ni 2.5075802134241507 5.637919097782844 8.27610885898354 2.224845756576988 0.11554203363407842 2.4823255402298536
Ni 0.3273745724113344 0.6667655539449674 4.490269344889177 1.6134880755554792 -2.033381617693298 0.3055316448547706
Ni 7.233262772196281 1.7519612147169141 5.856479940951773 0.3041571331047471 -0.4191638630606458 -0.4495352762636516
Ni 5.072725273606959 6.6788818788590385 3.219928196376847 0.3223931964967996 0.9130126165296921 1.1811334248361722
Ni 7.337055884018706 7.124573065525093 8.121306641648385 1.0294383383203047 -0.08084293958999626 0.21245822463685343
Ni 4.115675245530058 2.8954860687604955 3.3070177645707055 -0.5379357164859315 1.187169346617607 1.2867633415628614
Ni 1.4338295392611946 5.032753258246774 4.731462010590815 -0.08454867057635762 -0.9039769886899851 -0.3269741309992627
Ni 8.212636863092133 1.6338457926332794 11.657885592112057 -1.0846412087446933 -0.9455321864239521 2.1551639758101335
Ni 0.8149394538628902 4.6874652331232305 12.316048573043172 2.7339030994656723 -0.7095198286162426 -1.9110534143753215
Ni 1.4532964895136038 7.340675505726798 12.402761480094815 -0.37664578719277714 -0.168988840599309 0.5074964261594679
Ni 6.451681715247749 4.854179129409434 8.984654401771314 0.5016163132296071 0.8432598733155864 -0.5877768083777748
Ni 2.715184810783253 0.8908201376759257 4.066710215728116 0.978905105457443 -0.7045149192024834 0.1753554062472851
Ni 7.8808075836598475 6.351682775418833 5.310307504457629 1.2174386870251095 0.7271216008584058 -0.3952199506505387
Ni 4.516626437986941 8.856810097990037 11.122255074171306 0.11565747616602017 -1.0074392083413939 0.8181833899629328
P 7.144297247777062 3.3910159553412815 2.074432761479494 0.8707326248145585 0.0054939332350356996 0.09935822478536437
P 1.4502648266616476 2.5703356344596417 4.541014787602358 0.12661834605289807 1.3120385711898823 0.2919364226688392
P 2.0824308392943816 5.947240577253638 10.685774630460923 -3.4105390328697007 -0.3315640643627903 0.39598511095133737
P 8.319388142909496 3.6427634011962895 11.384046510923415 -0.5786069689530486 1.4692129356527666 0.7770750499583973
P 3.672822797716291 5.347044827423349 4.308790331828235 0.2217350219530891 -0.12299926124307203 -0.854260081080832
P 2.30090348863489 3.2388172933159587 0.25741849275959133 -0.5965591825560952 -0.25758828420627256 -0.6320254937835051
P 8.980575437206863 7.644429749778544 9.830239373638916 -0.41056146610361555 -1.9675600912127986 -2.403457722088357
P 0.5094452190712644 0.3975042836627804 2.1941411845889744 -0.2914949642560464 0.024129803168668123 0.8418254548619051
Ni 4.259725165283608 8.261510943008515 13.845505945512187 -0.5642170187799638 -1.2686779448160603 -3.0002030525133296
Ni 2.809543020336104 7.676096846295795 9.678744424869532 0.25159658539921187 0.7117487179467614 -0.048843760975580394
Ni 2.4181645330057004 1.7643818455528069 1.8857595206022888 -0.3301887812818184 -1.5786172318202232 -1.0430549006624747
Ni 3.4759760100530688 1.4993869517204634 6.872398430813672 0.23782884219115819 -0.4134318456728751 0.4366962155174544
Ni 2.7123736325023478 7.403633037619087 3.502695984007355 2.3661469014530407 0.7777090839979702 1.1992352766432057
Ni 1.4744170740488978 2.224643387622504 11.692831477937984 -0.3944074820515724 0.05367332115373982 3.2863403520018886
Ni 5.55198523621558 6.281155273253781 5.974844326863553 -0.9859319303972376 -0.34209735979394634 -0.23559069688925877
Ni 0.21747863139935167 1.8153689026084319 9.782721273834499 0.7009380004845025 0.46233114247673923 -2.591940923966852
Ni 5.376479517658704 1.339517263993979 2.2325027438947713 1.482606840461169 0.6417056971857464 -0.22217570903493347
Ni 4.2598997155690235 1.3870225021984182 13.448314014991729 -3.6071088684110717 -0.06894515971114577 -0.2666437095403214
Ni 5.059973915914489 1.0232137731065607 4.859817103628359 0.27533918043179034 0.48938351860884105 -0.5962678765679215
Ni 0.8144249898637704 6.498139651739693 2.688304985514955 -1.0066588785319437 -0.77784458113457 -0.9413382029472628
Ni 3.3001946857823787 3.585823260722278 5.716831444447836 -0.20913558802152368 0.4238332435118572 -0.15603562287275063
Ni 3.938038176119685 5.417994925016249 10.568929750717972 2.1543203968629157 0.2366150243887151 -2.2187486425403145
Ni 8.023608090844107 5.929032226427646 10.942322209164862 -1.256312738382488 1.9863232307529144 0.725314372446338
Ni 8.076450893039414 3.323685479456475 7.714259050801933 1.945874892929881 -1.8421059406713307 0.8313906326818262
Ni 5.0318437593911876 6.836317049446832 8.271739589733873 -1.4981980100312067 0.476756830983766 0.7873702612368182
Ni 4.226193136769548 8.24547069046453 5.585047816330443 0.0379026885830444 -0.46501820239059916 0.39256374397461424
Ni 7.341447201725478 8.979895609779454 10.163468730097376 -0.7517720524172343 0.24022896699221852 -0.10365428105755697
Ni 2.1056184666832825 8.27803809898024 1.38822138705351 -0.818139681209191 0.027365536497146417 -0.44183533651623264
Ni 2.0144664702678026 8.770343398709398 6.078095414115476 -1.2908223421235834 0.01805788594297535 0.6371697569886058
Ni 8.096064833005856 1.740450082736608 3.36815629875182 -2.017329706436758 3.6772346786938797 -0.33979288003048574
Ni 3.576066818453256 5.510286091715494 1.8455293545568314 0.03705705275329747 0.8999766092813405 -0.5908433631182406
Ni 6.554932802499671 5.635273282930228 1.4502207297474374 -0.8268480076164663 -0.40024748577211716 0.7173830334144032
P 5.403332701041333 2.2464254258709517 11.348899432926405 0.5258163075145783 -1.0406650602740593 -0.3876853328363904
P 2.3877652227719954 2.50893068142184 8.497280606948001 -0.3993856519924541 -0.5377056027529965 -1.765438472615263
P 3.5266782745377525 8.630344882948918 7.750509470339913 0.20420189816533219 -0.5770252262882256 -0.06678723282787853
P 2.540349732796658 9.364347206835996 12.339606430774296 0.67577178563152 -0.40671715265686087 0.17284755222376683
P 8.425928125012934 5.344399012570733 7.140629854411907 0.46241778865327465 0.7055662432851333 0.9927181000811355
P 1.2492839532912134 5.879597748226508 0.5840342307722239 -0.19799011292766547 0.7947282442637862 1.6598584352899026
P 6.387493144500423 8.006097941159778 4.907885496174691 0.08842023771662191 1.2861375350534043 0.1654350618097796
P 8.027310394266344 8.910066308756067 12.659752783997996 -0.16264130111472633 -0.4534932324701352 -0.303840887415909
Ni 1.1822658305487295 4.284042776099146 7.254342015874504 -0.7978840162839484 -1.698995253390364 -0.8493107074953566
Ni 7.76915970899372 8.730784791919936 3.098566138984481 0.439196870452121 -1.921317772415807 1.0849214589892735
Ni 9.125764527244177 4.223547321916931 3.1176454038661245 -2.596693351050173 0.1432875791784629 -0.7186372175364785
Ni 4.664442969162618 3.3436301462794953 9.357966015875483 -1.9908468296548811 -0.6852149333222909 1.758396735277133
Ni 7.680423856002677 1.2748142292475344 1.1965431252100174 -0.50833640556226 -1.5708964661371978 -1.3034693414636327
Ni 6.756786427297183 4.282232965245099 6.2869237008439125 -1.2645441251533447 1.5864567824692999 -2.2689859414293116
Ni 8.92527974415861 4.506190168290511 9.568071275744593 1.72668294911362 -0.4856127387124992 -1.4818483650285899
Ni 8.393875180496343 7.481390596343197 0.7536576047105924 1.8346458848488596 0.024819373036524997 1.5771061944923355
Ni 0.6444424098117307 -0.24386512243992217 11.109535870478782 -0.09473255308789492 2.5649574533994732 -0.07988237544893984
Ni 6.374208949094579 3.033380794238862 13.528317760283425 2.193484468656887 0.2526389106207972 -1.745145783804498
Ni 2.0200061451154676 3.9154568813011763 2.451979516719276 0.4769056978568045 0.5391783306437811 0.058840981397608336
Ni 0.4486172006610473 1.5683435013167737 6.584951776848312 1.026532477527419 1.0237250899856112 1.7679650956918584
Ni 3.2062590716573762 5.984043126904958 12.761457723195422 0.8185114627263129 -0.9536725561428995 1.030554968423251
Ni 2.811362018047278 1.1817605534067368 10.219525094915756 0.9897268786632955 -0.6503212067688993 -1.143829289069075
Ni 7.083370011309871 2.471723910056925 9.693857723529389 -1.5463665993166336 0.15820691949245655 0.8666255446247204
Ni 0.6637835001214979 7.017766664564967 7.743665261780194 -0.48141798390486124 -1.511622510967229 -0.1447029714687508
Ni 6.578763509887471 7.19970318311084 12.82677811474081 -1.4885579158382813 -0.3001703805428572 -1.3759001457305338
Ni 2.037056951943439 3.6926204748252767 10.13149479255208 -0.0561444084020517 2.1903906602229117 -0.5449599703225647
Ni 1.1737128665633627 -0.15339846556612713 8.555003467649245 0.25755151743106613 1.61717195216497 -0.06311646884451065
Ni 8.130460426089867 5.260725117856745 -0.15662948321774214 -0.8079779101848408 -0.6204609288743571 0.05740013518602373
Ni 6.012770429141524 0.5370664237097225 12.80309990918132 3.1408282543682806 -0.7219076607576341 -1.1449117234999766
Ni 8.589784908732597 8.625595277814186 6.43053908225535 -0.6217678206112389 -0.0026343522990535276 -0.3809061051310279
Ni 5.917668084161374 4.696413231965065 11.365585521526429 1.601188946473152 -1.5799405786173373 1.1793169404527237
Ni 3.7140717862171475 3.452549524378863 11.883804189154112 0.02717141820846934 -0.025019919083105295 0.8657241158563737
P 7.768801421565761 1.106961162677566 8.091254594614087 0.3180570310152909 -0.8338550350619187 -0.32492367622813717
P 4.17132922600627 8.875826892243216 2.3522653694613025 -1.8182293911640492 -0.9102011152228259 2.1543782466840447
P 5.971907288640007 2.8921971739089796 4.4739865593170345 0.41964543068275467 0.029622193741807044 0.30291580449847827
P 4.490526576888737 4.704736524522253 7.416042644226427 0.2511047333644579 0.2127299902410014 0.38261897405707657
P 1.0467505010662925 7.215449456226758 4.844945419310945 -1.5457281944016863 0.7758208658363219 1.1182964349052933
P 5.6635320554533095 6.751586666163222 10.606645473967731 0.715047186192375 1.3549081168598986 -0.7542490532028171
P 5.215167493363259 5.237904964752929 -0.11235618135063072 -1.1390560360501478 0.06273003203936939 -0.2933109344188626
P 7.800275594083341 6.406225146182661 2.9794080086169163 0.907357989347076 1.2904623876810033 -0.15737388206819994
