# total energy = -340885.81943796546 ev
CRYSTAL
PRIMVEC
9.10095445349652 0.00000000000000 0.00000000000000

0.00000000000000 9.10095445349652 0.00000000000000

0.00000000000000 0.00000000000000 13.32016678126966

PRIMCOORD
 96 1
Ni 6.317982518479858 2.3475456319898225 11.335368603949918 1.17850961406008 -0.31414638310697507 -1.0281260472667841
Ni 5.0020937521221285 0.6858879529649103 5.866654368293978 -0.5823098717259326 -0.2940107886993646 0.0922925761878346
Ni 2.8501640297796693 1.9800673031659066 4.68418286027148 0.11362476200670754 -0.5114042458543062 0.5285275357981544
Ni 3.7631353516455364 4.144210506049296 4.535063725649163 0.32324808829792717 2.1239793226772132 0.02369940049946886
Ni 4.077227483112449 2.776145969243612 2.6077956082941425 -0.7432976963976361 -0.2355179346697944 -1.247799301594838
Ni 5.382540940685855 4.805149103161072 2.7517863552228556 -0.4397180330629136 -0.49891202692456654 -0.7766060807417786
Ni 5.563158477806056 3.2903589826885593 0.06202027260974644 -0.1471203226609918 0.04046813531737547 1.177865552718178
Ni 5.476571999515136 8.374334019778463 12.20139265355767 1.1663454678937202 -0.43354352882108566 1.2946774542036155
Ni 1.7640652561029806 6.730701690648756 0.4180213880877852 1.9433014757757496 -0.2853127467047344 1.6203189824343835
Ni 0.7792937762404193 0.10575581812949016 13.366120941265267 -1.1134578758660696 -0.5813428798269731 -0.27307506698796197
Ni 8.094789110467564 0.11837793151415234 7.058036620577001 0.7223216083666012 -0.4217025703220995 -1.1640605285142855
Ni 8.895563868914213 2.28866245829398 1.3103845092555275 0.29660477467878593 0.4210595374214619 -0.9010929822739706
Ni 7.1543238059532985 0.8425918228203197 4.8257363716645285 0.6550492083721879 -0.4656128985518046 -1.054954480313538
Ni 0.5872745636942297 7.90046553631708 2.1830686371493098 -0.18011863196388334 2.631464693093087 0.42152233599049344
Ni 7.677719682189452 4.54093020072866 3.7021007123760157 1.3146644388485036 -2.2475761082949677 0.247220053598071
Ni 7.7933837091601585 4.236539686442546 12.530986440319193 1.1901477125196405 -0.8862111800661319 -0.7815433701423959
Ni 8.41161152819549 7.738914498252953 8.835878901153052 0.9781096061393413 -0.02964790477341991 0.6340533228468112
Ni 6.922094757545754 0.9907389755337149 0.16146275880835467 0.495863727016546 0.3556108208993488 -1.3757440797686435
Ni 2.44720108051679 6.537934379667049 9.232407475794146 -0.9285479931611298 0.648221129706761 -0.7453676915527873
Ni 0.3200423353250798 4.710672097575825 0.9678937602924005 -0.006998542805020205 0.28546855555630835 2.292886145085677
Ni 6.795336667401133 2.1228703755710794 6.930322930241025 -0.04889338326659321 0.5430298431793874 -0.36496038043504886
Ni 3.4623215123613496 4.465610703741519 0.22034229212251605 -0.04421654661621417 -0.8937324281438414 0.4997432645766103
Ni 5.874456616332531 5.701957130361744 5.090834426272987 -0.09576433678651894 0.8711486293060545 -1.0588198768062154
Ni 5.417952753491191 3.1090679749573096 8.903571798517763 1.1837587782741614 -0.03752833596276117 1.9681357612106105
P 0.6289314512739224 5.856937279491033 12.336432612027364 -2.2551474928843227 -2.32758318224723 -1.7623294946726358
P 4.330033788973827 6.209781273955921 12.838935427698827 -0.9850860374571745 1.6282130404704798 -1.7318724637343592
P 2.5827142886050587 8.653578597600648 1.1556027609278712 -0.740394406707912 1.3662762494875245 2.5583183508164007
P 6.7568214292124456 7.858883276561856 5.79921447745612 -1.6074421264717154 0.7065221794404994 -0.4281406126379594
P 4.8471500068096525 1.4155169120220865 12.634990324764534 -0.3825117590552509 -1.7012130869772895 0.36020075426287645
P 4.629072942188356 6.433091387244158 8.057222191706868 -0.08303429081436023 -0.7709473397941046 -0.05656272688639291
P 4.979332265659485 1.09559106891081 3.6528026636471687 0.2963821171450186 0.6404507417327228 0.13926508828263112
P 0.6341453879370365 6.118617015700703 3.042219646142672 -0.5996424494671092 -2.32139222294517 1.1691158315500056
Ni 0.9121158321707498 0.38482838791723223 4.676324186316864 -0.8760825762725621 -0.1331692597975384 0.5023354507838188
Ni 2.1421097927570165 6.987057368649451 4.734972555394259 0.8103883193985463 -0.9736466852719813 -1.0443247685138337
Ni 7.061202842544356 5.938372617702841 9.002328072769437 -2.027047447945154 -0.4985405025177607 0.6853476022454132
Ni 8.9144028441152 2.4857072177512736 10.313138506681682 -0.42962362494138917 0.9521080398692571 -0.4579222147757662
Ni 3.115220219998792 5.1609236048794465 7.15672554776757 -0.09665059604621419 0.8083640898796659 -1.142494886528368
Ni 1.1271531780881179 0.1851698344127288 8.697588991937334 0.3446548361084774 -0.660717719511875 0.76194076542012
Ni 1.6883271152224857 1.1786008721998025 11.213462232491118 0.14176728587919454 -0.44641781368059247 -0.37573458823241745
Ni 4.047840501989748 7.077056704766637 1.6019235661110542 1.1864787483084858 0.4084793867636062 -0.2534349241595313
Ni 6.0358347362667955 8.148694062214162 7.922302365832661 -0.7562897377819298 0.16593257027148842 -0.11746033370271383
Ni 5.67911373531127 2.9571639483487613 4.673260805132007 0.7903936214441742 -0.09468678745162402 0.9266790582731911
Ni 0.8835215441591626 7.76325044979278 6.47000485749305 0.018936174782870612 -0.5179312483395467 1.9504727967132083
Ni 5.710147989144781 4.574203289296203 7.126528581720769 -0.11402611121018427 0.7302398347724133 0.5717611496758088
Ni 1.2980964008901295 7.5517988798315425 11.264291971812392 -1.8001625063600093 0.29516855645289164 -0.4878771092666437
Ni 4.864714848422167 0.5014598463197567 10.179976985159566 -1.2719764130616737 0.45936177543577017 -0.09937442273528048
Ni 8.486585188922902 7.585390501796203 4.602836711410864 0.08545704132323992 0.285323802448328 -1.393774197797477
Ni 7.850200966251835 6.158324478890033 6.553721804923645 -0.091041734499869 -0.037593384872741706 2.2371369152395144
Ni 2.6819874970554842 5.330365170237901 2.5037380282190025 -0.8175436994964049 -0.49659880541035767 -0.04584071248319847
Ni 2.5472751729371126 5.251013950538665 11.49587667266234 0.5164901450176459 0.394408767603153 -0.8635613038770998
Ni 1.1494414149321857 3.576438377117481 3.391620749632423 0.04773124463769199 0.35130113778040145 -0.5703989792209597
Ni 1.788519520047452 1.1695818265842566 2.558031590710083 -0.6321977576953112 1.1709803955625704 -1.592295243527948
Ni 1.3426000669446378 3.8213268528219224 8.126833570217652 -0.6083428054545846 0.9343378603700295 0.45990453531311765
Ni 4.101335910797192 2.820822553427985 6.814863674739896 -0.3281882059120219 0.814928887581377 -0.9505046999378792
Ni 4.29925436185801 7.512582868169195 6.071798066896855 0.05853656278331209 -0.9449182069890373 -0.5965504408053468
Ni 8.40188260815208 6.799523106334685 0.43489455718084424 -0.07664047147287445 1.690167113575773 1.121952543600642
P 0.6132131932692716 5.971117850926587 8.004967242957346 -0.09620193854456979 0.675291760671308 -0.906000189767601
P 9.002072335956322 1.787391001726233 8.088031651971558 -0.9335305339773857 1.5932936028854752 -0.06680111678494946
P 1.9665614871280965 3.285935918945719 10.170733145975197 -0.7437823493435385 1.1084449960325105 1.3235481144913785
P 4.140579225322149 6.276372955862023 3.805571280905038 -0.7809874976389259 0.38155145202451063 0.833963278505009
P 7.158118903856106 4.201173378408226 10.425454292600966 -0.05156861610591119 0.26341440396974636 -1.2031855195402053
P 6.512306092630341 8.171237125775923 10.158158357552391 1.8942882791018407 -0.5046412160988599 0.5450841546052548
P 2.6505254983744133 0.0707644694083501 6.074995232108502 -0.10003185381362127 -0.4815344548780674 -1.047454572392067
P 7.022278061416516 4.1477234743718 1.4241391560343648 1.3889106990575886 0.7378119906927164 -0.32368131918060383
Ni 2.645046723943981 1.6924862512934282 0.22935769735638034 1.1557304113820355 -0.4714328476676913 -0.15075791941357908
Ni 1.760615994459901 1.9099171481662842 6.928044961403921 -0.5929964049055013 -1.0331001034426077 -1.6794587260193334
Ni 7.18098960176919 0.9252576100404247 9.234085691749248 -0.5958475012010512 0.9773056221808072 -0.6653171659570992
Ni 2.9732453344261263 1.9929178505010736 8.853168893948625 1.0784618194068587 -0.7818670720304017 1.2312398545742602
Ni 6.7047093654439145 2.4069020553042413 2.55295598855086 -0.6677502008786242 0.5695456300817288 0.1941098040366528
Ni 4.68313261015641 6.983589905097965 10.180816093137118 -0.3595667202233033 -0.0535553075186368 0.4500207005405024
Ni 7.531849588217742 6.81625066016049 11.583349583892668 0.45400848154365675 -0.36051931394455977 -1.7191683859041296
Ni 7.895605626772478 3.74972054514976 8.314580794860778 0.4290620960109643 0.19727226092503444 -0.1776809690566682
Ni 3.1246579095076927 8.266087270483508 12.524179836670488 1.463143846640551 0.2336829383435846 -1.3186591618301935
Ni 0.22136887975665687 5.3691170332358755 10.035813320100988 -0.14506652545575663 -0.7468633022617073 1.1083753191368393
Ni 0.056861851767272924 2.8252820209876393 5.282244784982971 -0.673696134049414 -0.5346791572218469 0.952813550576714
Ni 3.61749278152891 2.641251626041173 11.40190294984454 0.8959255791404184 1.2161613629745829 -0.16205791780743056
Ni 1.1319038761822802 3.4726328934737745 12.443566314623245 0.26248186485314795 -0.5821838876710296 -0.5819609730269462
Ni 3.39633049343267 8.639608632898467 8.078027883111206 0.9818968410959156 0.022397650968909815 -0.20101038781122801
Ni 5.358123080558197 8.016211471875616 3.6924300384395083 1.563806906280268 0.39801962488286285 0.2932559128112111
Ni 3.074393339442447 8.821372890248291 3.692829570329036 1.317200832117112 -0.45172431349517045 -0.13216807222653365
Ni 3.7139810979931025 4.58422343987412 9.403131365599855 0.12583621647123489 -0.26657557530654735 0.37963289484555907
Ni 5.27771615017137 4.778838244559112 11.419285772372987 -0.42580168009213765 -0.3141759507933299 -0.6768706751226536
Ni 7.325822186961716 0.29144986750433344 2.2711012570631457 0.6378968649626175 -2.4659910647358885 0.9884467263992912
Ni 4.830604472067915 0.5171307793625498 1.5242532926531822 -0.3543810622573058 -0.6888664140319491 -0.7526102320478135
Ni 6.363669308580806 5.791874557891099 -0.007023206358745261 -1.642711748307287 0.7953710200541075 2.0842763476606363
Ni 8.453348504172173 9.083134535045792 11.061306109451134 0.007294476778884212 0.2803564311407236 0.5113309694142097
Ni 0.39321127683396184 5.447794782324062 5.161871014212018 0.9456571420375907 -1.4854882757740222 -0.2967652115160502
Ni 7.09544973321166 6.39239192004666 2.7957830981282368 0.5480152122091208 2.3857685323387106 -1.4628890503172678
P 8.733148240200764 1.6133079497240572 3.313524551517833 0.5882198094524643 -0.0003041615039801213 1.3981229616844761
P 2.1159718522849205 3.3605455415049956 1.4402296430659338 -0.7634065513323691 -0.5309592851680984 0.7304666060712387
P 4.948825867169768 1.282406355843509 8.038107457593519 0.9356164699721371 -1.215669510939829 0.08565553048729119
P 8.797127948250498 1.7802558536307866 12.376819006400265 -0.8337187665943706 -0.5524202832553519 0.4603454795052782
P 6.389525119472597 7.701382163118231 1.1953156846897228 -0.1756773083630781 0.8383351823204594 -0.41393501056153875
P 2.1105021788086913 3.904118233210034 5.714085061933162 -2.0178542114816604 -1.1674939796758665 0.6037662418274957
P 7.42180084999052 4.09243517758629 5.822657625388596 -0.300817784318869 -0.3306351247906177 0.37693117964367984
P 2.759800655494349 8.579715253286048 10.16219463074159 0.6326914095022781 0.6851997638136393 -0.11572303929663297
