# total energy = -381167.8575938225 ev
CRYSTAL
PRIMVEC
9.25098891359492 0.00000000000000 0.00000000000000
0.00000000000000 9.25098891359492 0.00000000000000
0.00000000000000 0.00000000000000 13.53975737933246
PRIMCOORD
 96 1
Ni 8.067444908280445 8.666788709442477 0.29025346904439503 -1.0463937352277204 -0.21659410118209793 1.2929540437546057
Ni 6.884891030148372 1.6563895163854143 1.036090375751077 -0.222810514405455 -0.38694845467036587 -1.3482667002839812
Ni 8.594316464419503 2.370177298040068 2.4488948854953887 0.7836632446988762 0.21411838594809574 1.129398458355726
Ni 1.2222683723730248 3.4451606802406713 9.245121665200351 1.0250060135805639 0.17411484897196466 0.5670552595597073
Ni 8.322494665145822 3.536171906502607 0.2162409344124961 0.22779408366297543 1.9615282831964218 0.6624401015196204
Ni 8.642199581631516 7.279778731329204 2.2440113898389185 0.5982969911828083 0.4775901255183388 1.0579125345005973
Ni 2.148819641809573 6.370221528028371 9.458739019233919 0.8201731666994521 -0.4985024501909737 0.5372119509460297
Ni 2.730762333335632 7.346478359439446 11.732673656934889 -0.3332568786841809 -0.15732605954940002 -1.8685870176809949
Ni 9.120568204319534 0.3745355261679971 6.452750522804277 0.2964757053000894 1.0128359538769331 0.5967558719479336
Ni 4.009850277949032 7.7685824692056205 8.182359764094954 0.5935371079003197 -1.1025581982344301 0.46685731248186696
Ni 8.778734923001705 7.350280515771389 7.007988385416906 -0.614627867132348 0.10591376651569501 0.4558972139259374
Ni 7.83560588191834 6.695097747165055 4.759116526145377 -0.06490492820350112 -1.4524513999237114 -0.663818727034702
Ni 3.637090941600337 6.294446680060134 4.00627847123428 0.9869166629080101 -0.6742823455701871 1.5506585418237682
Ni 7.0086137522491185 3.205153030907506 6.954398333311521 0.04139193268322549 1.0685587013605338 -0.4030183636490349
Ni 7.439284277497968 2.0868750218614203 12.363071176771049 -1.1140098917147974 0.53393379441539 -1.3724697798927459
Ni 8.184913962059065 3.177483323878694 10.01504722123245 -1.1001722145007569 -1.4043067218976848 -0.03335980640736835
Ni 3.9758436437003155 0.2437848279957741 11.593159497221913 -0.1359049135611466 0.8520108800353391 -0.14420957677210003
Ni 0.0818666239891244 4.0892052585218 6.307062253271498 -0.35412240927928046 -1.8772079265807864 -1.9281592208176725
Ni 2.38694008945973 8.818819456788345 9.744576991399393 1.5643509517091962 0.07653505624326173 0.6141205884786262
Ni 3.891594890135825 7.223486465441433 1.7515979161943156 0.527031410868602 -0.1577729172788315 0.6026979484639814
Ni 0.9904848519427731 6.151777933220168 5.136617919272062 1.0971341990053813 -0.679606585996578 -0.37042885974878786
Ni 6.948972628472873 8.864103046191902 7.318102801977234 -0.6549687328432398 0.902513259660265 -0.574398844408972
Ni 3.6974351405133894 3.844821891560876 9.331451891209335 -0.19080002293712947 0.5839756894641297 0.5891778024903596
Ni 2.1299291230022064 0.9895505020899114 2.3985001248670192 -0.5573550015528079 1.2296694247633466 0.3626440735970464
P 4.130695942582055 0.26145884179669193 1.9430767293082423 -1.9790979166490692 1.719327280079497 -0.7264685406554392
Ni 0.21943252549405412 1.4330058936422778 0.282455810717887 0.6462606635462805 0.9160089801538547 -1.2717308727097711
P 0.563741371372536 3.936776718664316 4.086800001474829 0.59413746048848 -0.37951359565887544 -0.3452472182768377
Ni 4.6671515229544305 4.355263691871393 6.969643962593862 0.5681657190150666 2.178085103382681 0.493838211946085
P 2.3998267166383105 4.870543759241778 11.182106618487705 -0.06956993777933826 -0.265897061182284 -0.02901721316795648
P 4.578443792864401 5.746704893544278 8.848691824212866 1.1690690374724704 0.4207594896825399 0.3994144483478605
P 0.14411652656246957 9.4352683359498 1.8799008027718132 -0.6167829658021378 -1.3337152848323675 2.2445290939385276
Ni 2.524585549466982 2.224279956163976 10.898136420929092 0.42857512907221673 0.33718758119715475 0.8562699124220092
Ni 8.300227535484053 9.334340049863428 11.70463206016266 1.7064419394763966 -0.025920319410187617 -0.7444986586842727
Ni 2.4885621996942664 3.6101890666288274 7.07001441406511 -1.5196708351930022 -0.04522621882765114 3.1718427004719247
Ni 4.591311918065697 3.9732441158918577 3.21685645663875 0.6399357497695173 0.3246418833216603 1.6880752640437506
Ni 0.009967015163103297 8.283696018780446 4.72867892331482 1.8695642939925996 1.366745218704143 -1.6012236563658293
Ni 1.910264397693233 5.396379204652911 2.7191079378441922 -1.8431086709042321 2.647535887623337 0.22133907206625109
Ni 7.193355995433796 1.567256240817844 8.591259937772122 -0.7360590125573517 -0.028873231390924466 -0.13411054066488515
Ni 6.509606173900358 0.45988329718318033 10.418666930592652 -1.1897738741199897 -0.012879427065829433 -0.7846778020063195
Ni 1.9203294733359435 7.948958245751182 7.2356598413957 -0.06396261889488984 -0.6321944152612016 0.8350621679961425
Ni 4.421232491878901 7.7919967214590224 13.160981898544659 0.8055690436330321 0.324453421459938 0.3389343886849324
Ni 6.0720621640903545 6.7617326183548006 6.977402766768074 0.10080292765169091 -1.7280494904438435 2.7468218644098696
Ni 4.758449529864275 2.0762456359115355 7.1065040136653925 -0.4692898331827595 -0.20725276917651403 0.8789323870165314
Ni 4.2309674084748305 9.013802544399937 5.931577575668812 -0.35058559977061554 -1.3107260230260458 1.1936071318231507
Ni 4.717439897213414 5.534524218046842 11.348320056520928 -1.0669635889592721 -1.2218972370170957 -2.3845346599316093
Ni 2.57766772229591 1.236533396859293 6.589921407094185 -0.6453535783509788 -0.23440541833190598 1.4589961430207645
Ni 2.1809298233866397 8.756995099692542 0.7505928399676357 1.9942905652291076 0.25662000675573227 -0.21981492211224077
Ni 2.2068603445507184 7.959384109950938 3.225346088915694 -1.1542425139825991 0.32710705703270115 0.07287534800348738
Ni 2.818498709618231 1.83977186423969 13.322903802946767 -2.529144043245289 -2.3159468835598824 -0.849015544852441
Ni 7.576291419288909 7.04529392221543 11.864401259507728 -2.217197753113427 0.5677214323887964 -0.3256201880745295
Ni 4.181742897909699 2.5932648891466545 1.3016335290332992 1.724210062093095 -0.0698195918962991 1.4732292559010112
Ni 2.981501129493746 3.6725499810658793 5.028178755507091 -0.33870298940041665 0.49321189121599573 -2.300127400029122
Ni 0.012923631133149533 2.161956045681493 7.817327778559086 0.1273256565325678 0.45848991435377817 -0.5187228910029066
Ni 8.217717967784296 2.34660577897975 5.0158296107686215 1.0129431688787585 -3.5191282893350295 0.32491364892580815
Ni 0.33218727546061083 2.5643925535943572 11.639344132919218 0.9791933261218234 0.30799296191106956 1.040594354937124
Ni 1.67860114011533 1.4879290132110028 4.663024656921146 -2.9897751723117865 0.3237188572867586 -0.8598676570755965
P 4.884364736273221 2.0088336816758448 12.851192191685671 1.3882175296453059 -0.6300521721072182 -0.9337513917389403
Ni 4.849340493273862 8.595509841954346 3.710840748154798 -0.2937079127469651 -0.41679073484277895 0.6076416656225019
P 5.3056732610161665 3.070541895174894 5.272083846355213 0.16036124683129802 1.7725786832044699 -1.4890675084848486
Ni 0.7241710913066561 7.551239742045839 13.333871775080954 -1.5437150206263992 -1.6448421643867286 -0.1710979165225118
P 7.953935277640685 5.334527094591181 7.383554471719643 -0.9166460995172213 -0.008824797380481576 1.0082442207411926
P 3.7791306212126337 5.077978677565767 1.7279033589850559 0.7735451824282679 -0.07436273118229128 -1.7946143228482707
P 6.1363935391081945 7.764891324737385 5.205210299658498 -0.313976176077698 1.6786786533201994 -0.8446847786875711
Ni 2.0715553846699417 3.2801507958297993 2.360128874176914 0.01882973111199338 -1.9763823174901185 1.6099101283962338
Ni 7.632842712858661 4.2267952125971995 4.329432156285785 -0.5645679743614793 1.9136060055938464 -1.7315947845929405
Ni 5.935240042072258 1.100377346023434 5.381958763557455 2.4191154832302724 -0.7466583853397527 -1.1832257885888267
Ni 0.4854669062731768 5.423170067760715 12.278109171982244 -0.07473939779541967 -1.332488097293486 -0.5873379210681432
Ni 5.928255545647398 8.680332156814654 1.6409644179234146 1.9762403925956158 -0.3557632873168131 -1.6018101249969188
Ni 3.2347931985171057 1.5663496439309086 8.835720087938777 -0.23244289528889645 -0.221690798978715 -0.30221954976240206
Ni 7.81459688671191 6.10816877276085 0.3365306146281225 -1.1339721937693372 -0.8879261058747095 0.868756217814478
Ni 0.49557453646364147 0.9445351913569795 9.832300416297894 -0.611286718574257 0.33068448997131433 -0.27095622087274623
Ni 1.4856162660504535 3.742505957178175 0.264313696891674 -0.6069922049639611 0.30880285940687463 -0.6452697603879209
Ni 6.229208708155359 6.558266374158315 2.701587490454735 0.12772623440509615 -0.49550377257396594 0.30045088789775354
Ni 7.491487606405887 0.17162989188322836 3.4530850771115773 0.22827899371919397 -0.08012868713179103 -0.1964911597846358
Ni 0.2519044207270306 7.36620146722461 11.026926834608034 1.9358745871840595 0.8711632845940739 -2.420436516034541
Ni 6.74955831730167 4.8156483926389795 9.1962570180934 -1.2321148009800458 0.36802590673425006 -0.40549022222829517
Ni 2.680890253565547 6.06420807473313 0.008175098663109693 -0.45762576658126997 -1.3483613168803166 1.239857421039942
Ni 3.7378342079138647 3.9107074326706046 12.745893738564726 -0.18980783422718925 -0.026797322698502237 -0.40374495740241434
Ni 6.543881086819698 4.276713547310496 1.8188637048094602 0.25523058260737336 0.048441897551471415 -0.34731361388756316
Ni 7.001351726164994 4.80196618043717 11.846651387599945 0.7767143241848687 -0.8478876018955849 -0.10354320940098942
Ni 7.215225332583951 7.302434402513944 9.243307546327616 0.5287815607904893 0.2220461254356047 0.30652691888850436
Ni 6.148725106968244 9.393916416719179 12.692425799509419 -0.9477132532356711 -0.40886993733380556 0.2795462765346024
Ni 1.4984658892744656 0.09923813046144236 12.076095333002584 -0.004857585202617441 1.4120681110106585 -1.1065359519352556
Ni 0.9093897604064081 5.567004439169597 7.630248735643389 1.5213610784112315 0.5491403269524994 0.9317600723405243
Ni 6.066918614405293 2.211208309212551 2.9857195803145875 0.3760238373380621 -0.3756481991661982 2.1707255776938164
Ni 5.390051528421648 7.570047001955426 10.980228769041085 0.3870101611462367 1.4378364782240138 -0.7914344040038628
Ni 5.251841758107222 5.565940575475745 -0.06867008869103006 0.9915281935380922 0.4966111467055319 2.470652988987932
Ni 3.7851715167959883 1.6130301326194358 3.991547196920445 1.8949115145081366 -0.0532539742281341 -0.3544445685053896
P 0.611978801449545 8.098232198481677 8.953326981448166 -2.1943990100513564 -0.3997684892531696 0.07048036540874959
Ni 5.857170948920755 5.542378307404068 5.040337329879531 -1.692418114393479 -1.5701472466759991 -0.7974818957495234
P 0.48399599907906743 5.651225439768161 1.0176966350337964 0.6953497077634476 -0.5046160192878792 0.1423316430230968
Ni -0.1846571340891705 5.20253398864431 9.80949950459147 -0.15002361235071582 1.6909052772933781 0.26654292229639903
P 2.916540687248237 5.892648490363581 6.470501319810925 -0.22866414497275458 -0.8438972497892692 -0.4251540192058097
P 2.1817809143417217 8.468392007021915 5.298580528024195 -0.3607915937693399 1.4559229034120797 -2.158684330258566
P 5.0297440227853505 0.33644273023602156 8.310919828156706 1.1492170357435498 0.5748662709636938 0.9847911319245749
Ni 5.655425388611718 2.9623978379476084 11.00049768515614 -0.6135032666096015 -0.1046187018533553 -0.3154954409357018
