# total energy = -340891.4237567607 ev
CRYSTAL
PRIMVEC
9.10428367514543 0.00000000000000 0.00000000000000

0.00000000000000 9.10428367514543 0.00000000000000

0.00000000000000 0.00000000000000 13.32503943367154

PRIMCOORD
 96 1
Ni 6.255316678237042 2.134599480836322 11.542775155712562 0.41928496201954246 0.6440235466856457 0.5866537505169251
Ni 4.6466352546042256 0.19711138568844588 5.92102103402718 -0.1987172209016771 0.40488344188223174 -0.2250021227401351
Ni 2.780375434087401 2.000001749338614 4.656155604159633 1.5311271566590596 -1.814101742148921 0.9100121391404716
Ni 3.1841322114453803 4.6166184309605605 4.948999444290148 0.7153518619169873 -0.8238598715224197 -0.5237830791346335
Ni 5.331322916758253 4.5786535675713935 2.850519388519496 0.09937210874243531 0.10686301780284176 -0.7653374498064949
Ni 7.413782164350029 6.317817586430478 2.6900718640671446 -0.013340682972964124 -0.5999484107433022 0.38374665990361656
Ni 5.029588743510347 4.4451210372766905 11.84493449901329 0.0938267534441739 0.4595947173821827 -0.3712711531444251
Ni 5.613646756973616 7.828509603670586 12.44855852876185 0.06756524864448364 0.27286989295569136 0.17990368773959983
Ni 1.848679448525342 6.4676012632838535 0.2427557124514167 1.730124370695001 1.2344295651561514 0.7897739855823043
Ni 2.5464499664803855 1.4619203689965172 0.3677711852639695 1.615978188967185 -0.42145702997019674 -0.10468323654270359
Ni 0.8176894127039857 8.924692684401007 4.380020856062244 -0.9325727980498069 0.9867518551953717 0.2601030802083262
Ni 8.883823554483989 2.288898882447737 1.4617838047397218 -0.8410132433732549 -0.2574766983290727 -0.09420599116046356
Ni 7.10648527370865 0.6409142657091567 4.934754881877993 -0.6691794771259829 -0.586611327314764 -1.3569246330692952
Ni 0.7454086828672294 7.384375327720051 2.289388692915444 -0.5563041916907903 -0.272895089766672 0.9881729039126143
Ni 7.8910014075802355 3.698979459564658 3.6007988632124337 -0.45674799196200694 1.1019071949139925 0.474847272665879
Ni 7.670468341422972 3.8972707604318177 12.700535059832104 0.40729436531656954 0.0816870327578464 0.5611324663173691
Ni 7.9623061581950925 8.978071100240502 7.018884765544567 0.22181292637887606 0.5055562717139616 0.49516078741225045
Ni 6.595835100414889 0.640225981854907 0.39468891070675394 0.8240192799184196 0.40115894184279294 -0.4515988436608997
Ni 2.0426735274453347 6.434716590247483 9.207762165458474 0.38902410625247197 0.8567777052963632 0.3381643432881273
Ni 0.09578799057316616 4.8223297231136115 1.4739762615864296 -0.21616986916048578 -0.7885920494590613 0.7230579723119934
Ni 6.311499213482738 2.024055267102206 6.769839813853526 0.6345503170878878 0.05637272236277389 1.5606945859035315
Ni 3.5326988204903786 4.385597229881397 0.4087431935877748 -1.094004395127148 0.21387850202314776 0.7458744559858768
Ni 6.056442703207555 5.638465034575264 5.049097402807782 0.45836367318855903 1.3799182657509912 -1.0994016548833196
Ni 5.353737663440298 2.9458640004722656 9.09970979419669 0.759455537104421 0.36751040055041223 0.5167346569282842
P 0.23929608461259572 5.454321790712125 12.7705979861385 -0.5895143598941719 -0.18616098150322136 -3.1943753343568018
P 4.0520071676649785 6.300209901587637 12.801605355858122 -1.0675539142451034 -0.5587601094304506 0.19684957156531904
P 2.3697722353220705 8.384571944490764 1.4371457919570445 0.6153981696394693 1.3612281455406556 -0.927720355053512
P 6.322597335418323 7.75044947448624 5.75126073768975 1.5318689199210909 -0.1497042813380841 0.3525326961946574
P 4.669541632610734 1.1343300297953172 12.64914046742966 -0.31984420482270076 -0.7136279372473452 0.6368367991292194
P 4.154940200153688 6.307966751373625 8.307056251476844 -0.676107571704384 -0.7232582612482577 -0.022118172055278034
P 4.782616837237462 1.3653512308744804 3.9705957516188706 0.8142313472937203 -1.0626775599894085 0.018344563945458726
P 0.2968242330019165 5.534876493653935 3.611471815095196 -0.42467476557654604 0.4278827309908824 0.7695728280440811
Ni 1.705277874606213 1.2143931014126634 2.630082827770367 -0.45828216921834625 0.3033387509685098 -0.6315662947588994
Ni 1.842934645456142 6.733673956940546 4.866024822717921 -0.09336678308861984 -0.9422954246542095 -0.36584946790822154
Ni 6.063726130236652 5.66702517281311 9.217129563046273 -0.2597829778647462 0.02306742334242479 0.12051943224401179
Ni 8.643506879658942 2.5362531686396497 10.350757652561661 0.5358317827690514 0.6659064628016661 0.8824195742341836
Ni 2.3165485923069458 5.281531588730591 7.0402843845844325 -0.4724386632243863 -0.7644812724537866 0.7972288991984527
Ni 0.2622579987502019 0.16734128813539148 9.425853462704234 0.3720152303993013 -0.3340698615037795 -0.2628153369331668
Ni 1.4806569850288687 1.06631192562734 11.529636763780447 -0.642518680005345 0.026299557126477288 -1.0068524825999885
Ni 4.171027469604207 7.0320850666064265 1.76073115672062 -0.3168529834048608 -0.40978293606637817 -0.6346760440324747
Ni 6.031014438592221 7.832497279969016 7.88714392253995 -1.4661551226630494 0.5889415181098373 0.7121228134567285
Ni 5.3480383817900305 3.308797169332158 4.883719908685111 -0.2151090319961392 -0.9067393819264707 -0.22300026181875787
Ni 0.6499102085184698 7.442305885452729 7.083511524002121 1.158847102634146 0.4379308592555039 -0.2622008432776194
Ni 4.966496056870796 4.663842350960466 6.992648040529002 0.06969412206202837 -0.4617765555248499 0.933213259847283
Ni 8.13275655924353 7.188032343583174 9.03384394271581 0.2860213427359848 0.5574827853799238 1.1346936453163943
Ni 4.59617020957637 0.4853548312217078 10.408015403722526 -0.6284336626671887 -0.4776256067419645 0.3435857714140147
Ni 8.497765504806715 7.134817804851836 4.875831957212599 -1.151694550749765 -0.16903203513241857 0.05287036563647023
Ni 7.608586524527008 6.156790119100935 7.0068525440924985 -1.607978972811792 -0.35681229740661774 -0.649312562998727
Ni 2.2887167967720097 5.60267609501104 2.68670145820943 0.747182633274339 -1.2882057304363428 -0.5540799303459619
Ni 2.259710548628632 5.2814223373251545 11.470647377843415 -0.3391056241554741 -0.9867978779419586 0.18948413233918335
Ni 1.22466273352369 3.4193686959176333 3.879585689176792 -0.8490289145888796 1.1931520465636032 -0.8940227056907507
Ni 3.9078863553267262 2.5152860030796376 2.3548138970610633 -1.1202777270013802 1.2864247272765201 0.5227700644890867
Ni 1.0125784427201783 3.134522969093445 8.256954467372067 -0.4678343316831556 0.35815518458775736 -0.7953316821757399
Ni 3.7268021508158076 2.507155877658408 7.076594999609615 -0.04725944720759603 -0.11370112377059773 0.024595687061493128
Ni 3.926477302818496 6.726727388411544 6.11651276763003 0.8932819708699841 1.4888240250154745 -0.42061242258171433
Ni 0.5930776274104277 7.4932625618050475 11.295529210497705 1.4842356343138439 -0.8178769144661076 -0.27334888947463887
P 0.32971618946531756 5.505524282726675 7.973051033919767 0.6003340762174951 0.14745070941721702 1.2770767104027168
P 8.267436229295315 1.7495429023755487 8.241523616782548 0.6419527801995459 -0.09146750918337795 -1.0338770908179484
P 1.7366785493854064 3.211791025588375 10.435304583943795 -1.243030162340969 -0.2977363171800679 0.7356219250199332
P 4.16617488634607 6.23876509031342 3.844807325112855 -0.23530916109309796 -0.07622035321632034 -0.07620544081798489
P 6.816122350909921 4.220126872064105 10.72826951104867 0.45620677474655624 -0.6950108363667901 -2.058754806350764
P 6.310761766496041 7.959401891667241 10.232005016565752 0.46822539647398714 -1.0515601099200085 0.7258447910285112
P 2.473406297662331 8.571637663449328 5.70556906865109 0.24654899567297542 0.4059172824633848 1.3244752542913383
P 7.081858186066516 3.757520004311023 1.559349861936366 -0.701273015226418 0.641034896370967 0.26529979391791725
Ni 5.336239230002893 2.896045359593244 0.5932333106631746 0.625922980430193 -0.3281187861266672 -0.714343475257131
Ni 1.2651767963730407 0.8319057518364039 6.919453240600095 0.17236984125639992 0.6441253623708326 0.11805323009170636
Ni 6.930435738131595 0.9291832032370203 9.733994320452611 -0.6116921815427917 -1.3999607862241632 -1.4205041575931536
Ni 2.4386188293146076 1.4557385603055715 9.089369148672128 1.0646691364981407 -0.6769303247159955 0.8241750887699933
Ni 6.545779748157422 1.8160770082863478 2.7194941779795596 0.11897317080281446 0.1495304747643812 -0.11751689797226211
Ni 4.196501255638472 6.594851837765961 10.689373279428157 0.3240764977364935 0.9551697095137163 -1.271642683871339
Ni 8.290825134342503 7.007621856072448 0.44904421619652446 -0.577732022547263 0.7593804608921115 -0.49574082828543653
Ni 7.850860620366126 4.03840536768814 8.483120353907958 -1.4136637376325525 -0.6450409322065666 -0.7526218020120393
Ni 3.2717245257540553 8.479884691450282 12.19985953985469 -0.7881084249544232 -0.1727367376775154 1.2194973693263513
Ni 0.04274188109187575 5.191581264921246 10.19862598091978 0.34631962540541 -0.6214783143952781 0.6320874573696921
Ni 8.681052945993935 2.2035735348018686 5.598461722046329 0.6510981941442399 1.1126580056725934 1.9667201118100064
Ni 3.4327337845160257 2.6929469968868807 11.657531011126252 0.2508946742361808 0.142801897791296 -0.04950890536340506
Ni 0.9959449162424787 3.1836132672695574 12.878571150131345 0.22451824112518107 0.8365644635732818 -1.4069207624817641
Ni 3.358215221724579 8.54873128544282 7.9194304441315575 -0.29190042722458115 -0.6415681431666177 0.6221809968892574
Ni 5.640950504048943 8.080916767363934 3.777449281519389 -0.3363146916738982 -0.26069314838384133 -0.9662897306862779
Ni 3.160788827817125 8.59348794453662 3.4604062550847003 0.19953997391328862 -0.4771733496958943 1.5100484816118898
Ni 3.2231167546186206 4.0212893141697625 9.253000441164575 0.9137957745526198 1.2301749036448555 -0.5583356202985222
Ni 7.292167141531686 6.247022675707658 11.424675296864134 -0.01731612268094437 -0.24945408513491232 0.5090344600705492
Ni 0.5730281736560815 9.204977165048225 0.29445256707556694 -0.5513717873861794 -0.8005911308024664 0.07245368708503652
Ni 4.6686767256510295 0.34801488944754455 1.7953228829669363 -0.08661326641487019 -0.17063537506379645 -0.6924633873545881
Ni 5.894422868945297 5.743974579375518 0.5729726375249846 0.7910407681098699 -0.9875671520078153 -0.10593613511319819
Ni 7.8407366567956815 8.617787277962442 11.779121452378371 -0.42123848620148746 1.8154590275077638 0.040178629101414676
Ni 0.04745698966483728 4.746800584821878 5.851863983957528 0.5756733402460216 -0.590496264191467 -0.625285089735878
Ni 8.040020324595556 -0.28524904659592454 2.265096642916649 -0.3954161258217448 0.9715682054763977 0.8274221349523814
P 8.817435117113773 1.656360557822042 3.5989333954646066 -0.5931007916938494 -1.444136452300113 -0.9052278303779506
P 1.9266667434393958 3.2744011851872483 1.5314597989851972 0.34320910480088634 0.09572422757720289 1.0375581392139615
P 4.921557312101268 0.9714817057084998 8.33647765496088 -0.175275187828653 0.38205975911949686 -1.4759422839568
P 8.391245384506174 1.6247231716644028 12.439524347960633 0.05199979010605884 -0.4835448004398769 0.45534545518752545
P 6.2599689672518775 7.732514035427091 1.4151061417669977 0.5169259470034839 0.8387858967046328 0.2571360271602023
P 1.8221313570042843 3.201721687720649 6.157553968510612 -0.4245953184888623 0.03824361686223091 0.08487057269215062
P 7.039432223622027 4.032615043200009 6.1746636490303395 -0.042529645832094495 -0.15856173172871404 -0.20929088265246537
P 2.4442179638432258 8.460119291350072 10.205327644214929 -0.9617080248528663 0.34954456010061097 -0.6602541496118952
