# total energy = -340891.75288783654 ev
CRYSTAL
PRIMVEC
9.02545203254406 0.00000000000000 0.00000000000000

0.00000000000000 9.02545203254406 0.00000000000000

0.00000000000000 0.00000000000000 13.20966135630380

PRIMCOORD
 96 1
Ni 6.4437483378930045 1.8525822726882497 11.389778919247904 -0.05637786456909645 1.7401295615368289 0.28753135162260807
Ni 4.759553918102733 0.27996138971043877 5.983276108522913 -1.1233172851586524 -0.25035114302788497 -0.18083159887050793
Ni 2.743060416573824 1.474596354300122 4.871048933485156 0.005384147130048792 -0.6617353621431119 0.5027380855388761
Ni 3.771005215735654 4.260157623063289 4.891101682135461 -2.703816564492937 1.5723393692313112 0.07556857856493437
Ni 4.450053127430199 4.6485408618426085 2.2495523262420316 2.712725179836476 -0.4160374016165222 0.22422719224732351
Ni 7.353107726794528 6.187425508804589 2.5710091328192624 -0.009023800765165103 -1.02285117202109 -0.43886339837210225
Ni 4.84766940332774 4.364383539623606 11.429447584684855 1.7543151090085918 0.964644481773371 -0.6264027482800889
Ni 5.6695360631735205 7.852386690961502 12.439207001159001 -0.8234230410953174 0.3327567991193108 -0.7207221250899651
Ni 1.8875829744912382 6.58409411227064 0.3862884314331431 0.36299760028172323 -0.5983196168906276 -0.2487218349545781
Ni 2.7634128102215136 1.6720822635706718 0.287646561857227 0.44795456204009304 -0.9710930656121921 1.1036385757828024
Ni 0.4793155674887809 9.111915556024023 5.019195405791704 0.6165819055349253 0.41298627349502426 -0.14725273447379802
Ni 8.3909263701473 2.4260053228045657 1.5188598772120343 0.6290774668987748 0.5972448957692101 -0.21877516799381674
Ni 6.926700259883185 0.7328233581830877 4.849926668805029 0.07066111396098798 -0.003870795809315914 0.5964044021457857
Ni 0.7810499569489694 7.517226541024942 2.3791126858041514 -1.2532945203814545 -0.9414521028173076 1.3157463590587726
Ni 7.981179887126702 3.876927917220923 3.68648637302444 -0.580443250830839 -0.3231005069764694 0.538122378575441
Ni 7.455564654816067 3.8283529360183226 12.744984792993542 1.1415127251207566 0.2401387212712574 -0.8354748300535287
Ni 7.703006439403673 -0.2248826679923063 6.956366017169477 -0.3110487180182579 0.2209284668913937 0.6754745661060755
Ni 6.908017574805261 0.6795524344461669 0.4100506407438466 -0.40218455489382987 -0.04043548230722714 0.26827378894457665
Ni 1.6212057921773126 6.664258174522869 9.070030239642561 0.7581884974665394 -0.2884633765185742 0.7651980960151532
Ni 0.17750085150820902 4.996679611364702 1.4024035710144733 -0.24480527350899126 -1.5361536633393738 -0.8217551664745912
Ni 6.326291109098757 2.0621803381784 7.065147079217151 0.6474125177625366 -0.5537695981943946 0.6318262332885054
Ni 3.5324083738419443 4.03385344642375 0.14354258937985823 -0.8969853878635002 0.7259489207065433 0.8305557954853567
Ni 6.02516593763024 5.502790842490124 4.626657751581772 0.015645676957056924 -0.05737750947820441 -0.07762340421143406
Ni 5.19435505512155 3.1377704970147984 9.301847162197848 0.8203202338002775 -1.4864884349037624 -0.059600999492084444
P 0.45741621141483263 5.319844935954132 12.285565833840163 -0.8368704248494749 0.5323957605043089 0.6223866851421604
P 3.941207184431053 6.352212206462909 12.549970052406247 -0.6316879079384282 -1.1609726336175812 -0.04530258059154134
P 2.348738430557174 8.550054109571873 1.5347112780827379 1.4358343601923207 0.21594026964818294 -1.7507248205541721
P 6.287328233986972 7.795896388593038 5.682915392815797 -0.1243010107736311 -1.5236516742176212 0.3277315779905775
P 4.75903946735421 1.23777752639692 12.68988711782678 0.12112081327343657 -0.7232382066435996 -0.1796234374950197
P 3.9003489644562905 6.120592038755303 8.42505611585849 -0.875456255542473 -0.2578273968002721 -0.15724635535140014
P 4.734580493170069 1.1094356028181434 3.7785180017544286 -0.12667182499865282 -1.8569502047730146 0.18138387182955212
P 0.3936974247570403 5.557241392767955 3.4630315314955773 0.041729518528302326 0.9576230561502154 1.2034917379267143
Ni 1.3408933123946365 1.1753484767911255 2.401371254856892 -0.14745713717512027 -0.17142007574862092 0.7907754302636252
Ni 2.0412232392649035 6.428657782603011 4.79000759732492 0.2213699253041865 0.3710451531765481 -0.48337613607249647
Ni 5.855469394231635 5.756279679735801 9.21317029387533 0.3401980858887044 -0.9374743491164823 1.2412499305120945
Ni 8.605190594181066 2.3093513592141517 10.031785986008517 -0.0937961573165546 0.3883898151025827 0.23331578481215304
Ni 2.3184760909116298 5.315711279062494 7.05249249334867 -1.6342083388219661 -1.2214210687116256 -0.06495557893577845
Ni 0.48997462598009844 -0.11247698453048058 8.905821170894864 0.11378211352017825 1.1243002178972121 0.35392263456364853
Ni 1.3702170050604203 1.0188200674643513 11.587105078022862 0.04221391436388859 0.8859530413087386 -1.2809621615000517
Ni 4.070370424117121 7.014526930652881 1.54377373416329 0.4421862920977482 0.21655990551005283 -0.10473311594403253
Ni 5.580590236389495 7.540133137511787 7.873565815987519 -0.21814113395424367 2.1147012398093965 -0.380024730967339
Ni 5.297470841119266 2.8003449586943936 4.980557446942145 1.3521506087194195 -1.2527625591373843 -0.04174803047106358
Ni 0.49568593183387133 7.486025554399638 6.862392111227523 1.587442286311021 -0.7863415628619876 -0.19082341997589716
Ni 5.209535864928828 4.408806813031113 7.052109814195384 0.014319501946465661 0.2690219799645109 0.12491473309823004
Ni 7.960258890020119 7.1890069634675715 9.068498620484242 0.5734660481820575 -0.36587749293267957 -1.0445384271865368
Ni 4.656059063132421 0.35341141842186247 10.62110917443487 0.12647282161396928 0.49131698818612807 -0.31849694676618695
Ni 8.131408531147008 7.308693478838751 4.61710701856271 0.013307258631867403 -1.1992892698095927 0.18126431553255234
Ni 7.115178768328725 6.041429801644934 6.805511909344389 0.5720485990092405 -0.16065666658452976 0.3422696237057525
Ni 2.3396588261183378 5.209346330442531 2.386682332168815 -1.178931789199163 0.4162793424239992 0.7279073299844947
Ni 2.5088860460270626 5.013629409710759 11.454334365280927 -0.997557687561624 0.5560843623705004 -1.0613053622322304
Ni 1.3159559892688868 3.2893980860530156 3.7676197687923065 -0.7121094437202897 0.34671146152718996 0.11619175140293538
Ni 3.4656922346651293 2.6121281883489775 2.987377589773035 0.43083538586130316 0.6280356558978215 -1.4379467785496332
Ni 0.7939301791106622 3.422848415310104 8.04399703115682 0.8553767111837784 0.10969200261120464 -0.09726894635650345
Ni 3.774200225647531 2.5212418894433317 7.0892685015066474 -0.24090028202763025 -0.2699807443333544 -0.5378891795187123
Ni 4.075641287926544 6.364568049879178 6.2080387380072315 1.44468255461157 2.105566881608296 -1.060052977882368
Ni 0.8930901096157923 7.319677453592292 11.483950482582712 -0.4870790388453805 0.22115472396958685 -0.586777420578983
P 0.1082936876543369 5.577350099218976 7.9374082513339905 -0.2961792571055931 -0.06185611407484831 0.1806675624888179
P 8.49119011339882 1.5927395174257328 7.838348503343047 -0.24459572860134654 0.10264280907390709 1.195536744745696
P 1.6493020234080253 3.086578134810943 10.195665625768127 0.2131915032584522 0.3318278595471382 0.2927365499726314
P 4.089847348947148 6.1699432088065524 3.760301932530867 -0.8799610853913619 0.451297510370397 -0.21960820541807338
P 6.819504969704202 4.123512283894324 10.37827578549982 0.5588549831371019 -0.6937923905786568 1.1359920524128435
P 6.505202638712126 7.860121503092796 10.400692299957809 -1.959492997933948 -0.0906936071318309 -0.009809015670621816
P 2.4168444893001735 8.377469421620157 5.880439208983607 -0.06318254619575571 0.16853195556754846 -0.17259506989332857
P 6.526006304946238 4.075993280543954 2.0887774418770144 1.1955421440623346 0.857635425310968 -0.05249575590587088
Ni 5.542042532057219 2.9308439652362734 0.6837402440481749 -0.6119307799161591 -0.9982200037359712 -0.5934242364715393
Ni 1.6605567617134216 1.1796716681690602 7.064949421824298 -0.4209741767965072 -0.2373768422554041 -0.004838301928907797
Ni 6.8744970470857405 0.6762572420201043 9.306073781242288 -1.1754145200745243 0.2518657799001985 -1.9493690221260684
Ni 2.988940798012405 1.5677119397826986 9.252588051754229 -0.6280312850224473 -0.8866025019672796 -0.2957406269062778
Ni 6.509002353889809 1.8852544079452942 2.879494560172343 -0.41079595071192476 1.0189353819064517 -1.1783810589020158
Ni 3.997318417826922 7.148193870751452 10.481944831688493 -0.320860304792041 -0.9361006086974072 -0.5737930925041731
Ni 8.269200102685488 6.836193029950134 0.2199042288188848 -0.44960803848311603 0.13699634685311246 0.16833500906539398
Ni 7.416069278052302 3.979321667080362 8.273765176169746 0.5446756063129264 -0.1306737470691943 -0.17805917833169335
Ni 2.9904751248062444 8.494565632345267 12.548675802628384 0.9554427606694449 -0.4079605381456587 -0.29363026543149434
Ni 0.21273982523682905 4.906235559593751 10.12836192968379 -0.07806023463853654 -0.9557574636963863 -0.26816040329516394
Ni 8.870954045777456 2.5169186980653966 5.904362071335077 -1.0553013221299956 0.06423721271251517 -1.0841570700194232
Ni 3.465367318402904 2.60111713724025 11.348248303119371 -0.27707956016166474 -0.5883097980631093 -0.16943646965968884
Ni 1.0563027684926678 3.2392707271531194 12.678341759975726 -0.5535351135860854 0.5345056077584601 -0.5362632138795151
Ni 3.111921603264473 8.30388491367798 8.07015188772074 -0.18351814456373555 -0.3031567168646908 -0.30967754870234404
Ni 5.750656823308966 7.785345635522462 3.56424384972376 -1.488855135363726 0.1370012319491189 -0.1260313632011765
Ni 3.1319761570051234 8.39232531516521 3.6028818085733207 0.7200230421404116 -0.16955705439795316 0.1321495602837724
Ni 3.189693920808659 4.081146813480908 8.859587391870628 -0.8802953288023291 0.4307106873579808 1.0955403721557002
Ni 7.474184161731891 6.138462433177665 11.230351534825948 -0.41575869403383886 -0.9482794101517861 0.8904753546591245
Ni 0.3437289138075648 8.896008699775676 13.487591740850286 0.6978927859002756 0.303583005768832 0.7233377083359414
Ni 4.78715374948838 0.3590108086742024 1.6247753583359206 -0.41258852383597333 0.20991386094844497 -0.03331069833698779
Ni 5.787986091657899 5.500868421271961 0.11655197598588268 0.4710075872048146 0.6239134061993319 1.5394166503613618
Ni 8.07104630998703 9.132674094999492 11.235833594205817 1.0655667086117455 -1.5564484090326678 0.2543756908062458
Ni 0.2040943450261321 5.211819304216131 5.793070128616544 -0.6270930894788943 -1.5150500485915392 -0.9859828382398309
Ni 7.706788103677899 8.702232251165526 2.6690914243880135 1.0894412012364978 0.8990163022506 -0.7612632797371213
P 8.619775724174266 1.5355452298224483 3.690316774738001 -0.2726145824117756 1.0289948230249828 -0.38337539260712683
P 1.842365461331627 3.1746214164221223 1.5011853350921807 -0.01600948805437888 1.0797147179773534 0.674688065649038
P 4.746945362038066 0.6675440709214437 8.211297317121518 1.4608774192038776 2.029580755889969 0.1852731795816293
P 8.489890448349922 1.6942939002744248 12.60150177159509 -0.16445778549817483 0.9128771193930922 -0.28506026437429616
P 6.453992225604813 7.652996411376246 1.1742500793157713 -0.29663434236514075 -0.2554342139777472 1.3773936995569247
P 1.8844691936449178 3.248404484302326 5.888391534501557 1.205695944666885 0.6417434924022174 1.2986626641036088
P 7.014499854297695 3.866178604212321 5.844785967020651 0.20091011478793785 0.7424451185893536 0.15271298625742086
P 2.193040362789419 8.566976831562744 10.207434814822046 0.8022816311310118 0.05877310427415039 0.10487761194169679
