# total energy = -340859.3138720904 ev
CRYSTAL
PRIMVEC
9.39531868929067 0.00000000000000 0.00000000000000
0.00000000000000 9.39531868929067 0.00000000000000
0.00000000000000 0.00000000000000 13.75099859513988
PRIMCOORD
 96 1
Ni 2.3923863344792045 8.606900999210826 7.872281981262478 -1.435223208970883 1.039224985393423 -4.4688346617413295
Ni 0.9616390396210671 4.478419516975331 4.391930912056747 0.3128397484804096 0.044196234901240014 -0.7631813226954405
Ni 6.0067559856197175 2.7950039203328836 11.519527731075643 -1.9745398649647414 -0.27969771451080216 2.789521460160925
Ni 5.997990153411903 0.22694298006060315 4.771555334821268 -3.5154300145478357 -1.2861100242495784 0.6896981659046251
Ni 8.54707161067989 7.670525971172625 11.982744182049561 -0.5575617182469752 0.6329942854546775 0.5562262872650032
Ni 7.6476389751830895 7.992090143889308 1.8487525334341735 1.4547998455512299 -0.9279507258967631 -0.6606123042822623
Ni 5.9455736712174785 7.680992356038118 12.217087854532563 -0.42720601663883195 -0.591633977340336 -1.2091913594146528
Ni 5.300115286783536 8.679254347369863 7.255672861970353 -1.6695417240159374 -0.46786672758298775 -0.4409107678194342
Ni 6.176585763742395 3.6381961789851194 6.025302344438824 -0.7122207724871734 0.1432425848731404 0.5513360490522377
Ni 3.307114548576565 5.838091226997329 4.439716441737525 -0.6554801252620195 -0.627162766374565 0.9398027401393428
Ni 0.2340242316522751 0.32537115579343157 6.865241004276948 0.6407711011866191 -0.8083620329971368 -0.5362716985199474
Ni 8.359324960081004 2.5606376990853628 10.980818956014895 0.3828997385222889 -0.7343913950469416 -0.43716158518964715
Ni 7.50430399537342 4.840458722008482 1.32553475959984 -1.3350597146754042 -0.16366151484912458 0.2824351680466233
Ni 9.178239715598197 5.643025623247437 8.477752010880879 -0.808140403904634 -0.8373213963439644 0.057242526562236905
Ni 4.598228619134015 0.20585612710538423 1.5041801651186508 -6.122203118431515 -1.3130269032450808 1.2020496061635493
Ni 1.3321246360313095 8.877927753443227 11.718999739225819 -0.30569053903013804 0.24922191451944822 0.5730446443739229
Ni 5.211132224789739 6.779990702343349 9.272146864044425 -1.4236612151648964 0.678692815933057 0.893591788800919
Ni 4.309482294114971 3.5405882145617684 10.021851005457796 -0.19386040703000806 -2.5587883484742835 1.3265488489909154
Ni 1.2580707352145943 7.147911376789247 0.6900748731675656 0.10114951235783226 0.14648680284205093 1.2684529732894476
Ni 1.3177873799229225 4.716487493731832 6.6762607483523535 0.3060255537720536 0.6013437484289321 0.4662343341858874
Ni 3.418317538942797 7.504181856232261 11.27964176017958 0.20117802373734384 0.16785626965676254 -0.6182425810667997
Ni 7.43941053014365 0.6578602049208828 7.2686957130134955 -2.5290198589625996 1.4726648987571092 0.06610383360760874
Ni 7.679385756565946 0.6265737941470105 0.18228139379793665 1.4124059539660514 0.03683388099889785 -1.9216741273139615
Ni 3.239534022241291 5.094968506228731 11.449961034398749 -1.0386786259716498 -0.30271680111379473 -0.7319375341898104
P 8.820719658787938 3.2267845749679736 2.0549901104727164 0.8219343723649328 -0.5558992429428878 0.10727953651497009
P 0.37831471535855105 9.090994787536284 0.31671712787637035 -0.38472933553186 0.525917866089449 -0.26821773889566064
P 5.035289442794605 4.604251018325021 1.6691102846171317 1.215961845369267 -0.5512018374672184 0.23217961432518075
P 6.795981534516661 0.08042674538966343 11.450882715148573 0.45029040926212127 0.8108063807725713 0.0936208080809549
P 3.878133824133213 8.173682860837477 13.320289916884633 0.5304949439371703 0.6626547886335877 0.3358207827566152
P 5.420986059938451 6.811793855637511 5.897596477038266 -0.3638445216630508 -0.2448934623474234 -0.8257493752356488
P 1.8665679364700343 0.07262581239700691 5.376846853387204 -1.8571430375101114 -1.3205761763472483 -1.7890347718779642
P 2.966834901306863 1.5744017154985304 2.054825692398079 0.18810859214789538 -0.2755528391044932 -0.7787156708856137
Ni 0.9234348557983053 1.7599216756008977 0.8104326619296117 -0.7683939772446314 0.29737122053116527 0.9275498909139188
Ni 2.9578717674094834 1.0359841953128546 13.520366983549474 -0.45133222026307435 -0.9481523976556188 -0.015281608749418845
Ni 8.513652462595006 3.178041662326878 5.875031740475019 0.6295788320152254 0.009962253419034455 -2.602900251191833
Ni 3.872515423639887 6.317064566712648 2.185584098795764 -0.8234878328949817 1.2894249475554243 -0.16724640398690552
Ni 7.791114884771018 3.2335210183688345 7.883240680820029 -0.6652868269397961 1.9988005372843192 0.9533347131875064
Ni 5.824768665292418 7.121097137645513 0.6826713621496041 -1.0914955126623653 -0.22677181304604813 0.9036419739480697
Ni 7.208276298477574 8.08864583263498 6.168106488750378 1.7951308574733729 -1.189558929895706 2.642642564086778
Ni 6.379505853800682 2.3164721605894485 9.465128586139768 0.20854680539758924 -1.2347098154007317 -1.7721444238805286
Ni 3.0868882817478664 0.9920328951326218 10.47260926403347 0.00042834578667023005 -0.5665880901153016 3.003108656195899
Ni 5.666354199208857 5.358770260495634 11.059226647448012 0.23106221289128595 0.11754055212134597 0.376987486802912
Ni 5.639577541339325 5.913638983463607 3.7656004566602004 1.5350002664612208 -0.004290399845237772 0.5468044797304712
Ni 1.401114460149191 2.3400919914259397 3.228487006689363 -0.8301166510654091 0.5379460008985768 0.3906181902124692
Ni 1.9177912132085182 6.5889368996146125 9.014920893231166 1.0345028973274055 -0.10200311860737916 0.19552776743010197
Ni 7.385039821690677 7.668590535551178 4.1433542715012734 -1.6276947060731644 1.3060476437137702 -4.342057164402748
Ni 1.2996450198014968 2.2500190724802596 5.775144471771266 0.8954548101515869 -0.025750883711858876 0.5477051371678696
Ni 5.306259825115702 0.5064330372434858 13.25160356155594 1.4228991401878912 0.03626026788361497 -3.1941724743173765
Ni 9.14885115917157 5.18661044337238 13.404693700616814 0.08394857509851349 -0.08080977235921566 0.10558132287694075
Ni 3.638083435162511 8.44301845773075 4.047304050893631 -0.042888828943726136 -1.1347049581703037 0.18349911840034205
Ni 1.8031119549785226 7.220753281512921 6.0709974157420685 2.2941238741475196 0.6928349117613939 -0.6521302349531801
Ni 6.689861411486365 1.9392595160968962 3.5389290013057124 1.2560389158958112 2.698064492500508 0.5568685488346926
Ni 2.0071406926257933 1.4952179707531263 8.602926779463875 -0.9226308563457466 1.328032118404661 -1.8001162265031063
Ni 0.9096190398694828 2.8960881526199986 12.474245239520402 -0.7572112211549347 -0.6735948325848593 -1.144127022815152
Ni 1.7866513568776745 9.017072421179277 2.482302351605088 -0.40900672002198596 0.03889204907950721 -0.3147027698310773
Ni 0.7110301916630746 9.00064000903408 9.238443037807453 -0.9313080724047702 -0.7743345110987826 2.0342961590877673
P 5.442125526677555 7.892762836171176 2.812932067191353 0.6397035791540532 0.7072109779774078 0.14875117339619542
P 7.286689627101819 4.293876670002237 10.199445074830782 -0.18674770724462675 0.010263072488904906 -1.2147547124350433
P 3.098134478053069 4.779858917356387 9.004744823708888 0.07888067365730286 1.274683784690508 -1.6643383254381274
P 0.23624716402137366 6.874808257157139 10.323507437697375 -0.7194810535940125 0.9535846244147835 -1.083200619643425
P 7.915678018116363 0.6558204812635232 5.056943772990287 2.6519658983702326 0.4467605417319919 0.5394218141131548
P 7.34221595973653 6.160454001790822 13.152527108843113 -1.6243463584262219 0.06686539436398162 -0.18238608784182136
P 1.5536004802272532 6.085902149090919 12.671572296445449 1.519390327838106 -1.0706616066361498 -1.10104201870022
P 9.325163707094239 6.829250357504734 6.542051441450992 -1.3144667210154009 0.10339177142478968 2.6595025730669097
Ni 3.689466432316357 5.988096882978003 13.556284346836991 -0.20062652210924803 1.4720041252446583 0.539044119058762
Ni 5.723806572146462 2.504237601825436 0.719833605145092 0.11732715055895923 0.4186100474397048 0.6452440493563082
Ni 4.38386503108096 1.3680241482135815 8.716537789974655 0.4765025488811149 -0.36038921612459873 -1.6902043945716116
Ni 3.6120677980955884 0.6292110600641955 6.202483959327434 0.8084515073871497 0.27294445494736863 1.669956185845537
Ni 6.463838233111876 0.48061188327056287 1.9864418663267187 3.4416059294778343 0.36080059263040437 1.6741648246102456
Ni 3.1160137692550745 3.8590519321567163 2.048375806213015 -0.19113889433378695 -0.9134666733479753 1.2097598303236132
Ni 7.685492713623909 3.11318577837131 12.949480181984391 0.8223465202016871 0.6860256021490443 3.3549132159752797
Ni 3.5267113290623664 3.3006787553693266 7.042683809021268 0.5642136763458541 0.023856752012939558 1.075611494442257
Ni 6.523423343360495 6.235456829781159 7.632464596191833 1.9663097637454652 0.22663580168881614 -1.356867554579115
Ni 5.600286319160247 4.604589249792847 13.331482559874098 0.507572530813042 0.25787496220875594 -0.542229201654963
Ni 9.182570957450077 4.814067272199531 11.230206412561296 0.18257686369638879 0.9937817654589596 -1.5964529744500633
Ni 8.611542286574878 1.5227462541067136 8.975991390816286 1.7248919186514682 -1.7087356206065798 0.19361255268526012
Ni 2.6408643241898964 3.8618235511291763 13.51628283857548 -0.5940922090728414 0.9328617900451353 1.0996410245876351
Ni 1.5882973916350343 3.619330379335289 10.092833576640285 -0.12442648060790182 -0.5395915069217997 -0.4532538627658193
Ni 0.24519620494092725 7.634889527909772 4.366272297094752 1.6983712466531204 1.2001431331694556 -0.4452443621977816
Ni 6.071602474256735 9.11890827895045 9.293378404905324 1.1561104204292734 0.41969582430471586 2.2406626690045863
Ni 5.584276696349833 4.390159894509938 8.32193910850401 -0.23021374884806162 -0.7784536754734787 0.23878143591241455
Ni 4.980674456059314 3.640141009925117 3.9142212426864993 -0.9354634893340404 -0.27788328700988274 -0.6477117941705103
Ni 3.6882826221789675 6.091389015124535 6.989687635672264 0.3565063361304247 -0.6939073188899663 1.0363726035462926
Ni 9.044713448355473 5.980486674951925 2.777756934069341 -1.578213054403269 0.21720525240353558 0.32521883887105285
Ni 3.954611717136012 1.32329303659364 4.092888257437977 -0.26563866531457475 2.0911705036773083 -1.921183303720472
Ni 0.9950300017502991 4.646360836069315 1.4008833353128431 0.6369481278961031 -0.7611146699743989 1.1027798273269331
Ni 8.109869857241039 7.864717810297299 8.721364165114155 -0.014451656648955754 -0.025735971313523415 -0.4430974910581078
Ni 8.102860949602206 5.935013333166478 5.209579178633306 -0.968393664403158 -3.569820416373259 0.021536845630511295
P 0.846912804798318 1.4918168654377684 10.55412492684316 0.4119431769424906 -0.8561418714845772 0.9463639382966282
P 5.339763531067542 1.7405955053420823 6.743159174560846 1.1694888986187084 0.38988414025992213 0.3856423342644326
P 0.6611701756462989 3.056090427538631 7.919406080517287 -0.991913344791653 0.4199866160722573 -0.4425117937579669
P 2.9710064227433794 3.4580033645010064 5.025260879773575 -0.11595469569146481 0.8693946227294254 -1.8473628181948956
P 7.291086636183553 4.110837073997258 4.088501583206649 -0.12305453996103968 -0.015682186621947185 -0.023016772610147455
P 1.701764653771988 6.310516029682801 2.9267215887545968 0.5465393989945427 0.5823389251916552 0.2643801103171253
P 3.697987986241853 8.393054153678062 9.203694452147644 3.487253295003304 0.09887434317041036 3.4630777261983647
P 3.720874982231389 2.639586560866999 12.374152213340386 2.4382334350066457 -0.6804969590213312 -2.524321167935349
