# total energy = -381169.0619197395 ev
CRYSTAL
PRIMVEC
9.21171974428730 0.00000000000000 0.00000000000000

0.00000000000000 9.21171974428730 0.00000000000000

0.00000000000000 0.00000000000000 13.48228298066358

PRIMCOORD
 96 1
Ni 5.353123624268015 4.513917558030408 2.5834073779236237 0.11958817867899403 1.80054765761357 0.9316865387901115
Ni 9.01696528709811 6.973676946815475 9.345823671817245 -0.5646883019894275 -1.5464565879272787 2.0506056948810683
Ni 2.243514274463451 1.547117495012979 10.31428305848477 0.3358742617023699 0.9075284534866692 0.8812682342385598
Ni 7.602210989004718 3.5663264006273847 3.4060691960112153 0.2706985963359854 -0.051833696841839756 0.6446030733381996
Ni 5.345192333813024 7.105819062468023 12.209797916363318 -0.6462431800447838 0.29225935322589663 -0.8557721468499843
Ni 4.696420143970338 7.889017874389319 5.432780125953779 1.6888926177387236 0.2664400781699476 1.135478603111535
Ni 7.955812052193197 0.18131151061376213 12.868744450349487 1.0049287832147142 0.5092656022447487 0.9848063014332266
Ni 1.1599765612709325 7.730143348864083 7.793110057232364 1.1187258091332284 -0.1223927380073247 -0.7905062357626386
Ni 4.068752003410327 3.3570177110590884 1.0054610213941308 -3.4011617054198586 -0.37725179620789223 0.2793130774778738
Ni 4.731535218551551 2.426191883073119 10.139283418044945 -0.9800243066635508 -1.0502509041902817 -0.10318454050999006
Ni 0.1833436159266204 4.7631958983352956 7.849115469204784 0.09291504026318191 0.27456527838024325 -0.0988540314554362
Ni 7.43445636592012 6.24879753079493 2.4158093540698435 -0.7175712381658093 -0.7408695465721176 -2.357817041431107
Ni 4.363600719883437 5.784840068476613 4.461974514339812 -0.5802059380090524 -2.370158336605279 1.8174364629491087
Ni 0.4713489460129569 2.82663453971529 4.672527707207143 -0.34077067056272276 -0.04684215716451933 0.16498666141845134
Ni 1.7220941061541544 8.569202027590332 10.12230898259615 1.3464021362714165 -2.303866812466897 -0.3248388298238148
Ni 7.466052563667644 1.539305956910967 8.292682790498569 0.8977811442919184 1.1266090685360468 0.7180947147694472
Ni 0.16103098905080285 0.08170518809365004 1.4014157283154285 -0.6489870613385081 0.1866896003131817 0.25350871482026016
Ni 9.295269755421204 7.078441832233142 13.784150781131496 0.8052049754253939 -0.37952490851278514 0.43266344020897746
Ni 2.2133827401100534 2.6699339799825954 6.483858503285378 -1.6061102950341695 -0.5620896880243158 1.8795100923514019
Ni 8.387592978438015 4.461235734439127 5.738881878919128 -0.42080551242912684 -0.8306195588437566 1.0348170861337147
Ni 2.089411419618454 5.670218643236832 9.154901574290948 -0.03283941512752409 0.938081643683178 0.9548935730341941
Ni 2.6096432761174206 6.887068360453309 3.488904662082597 -0.7013344645919729 -0.28460003690842595 0.6521865421124122
Ni 0.6287330153295775 2.456415534621116 12.155842111970731 0.4236319261343285 -1.286438868343907 -0.6971926745094573
Ni 6.3864574664039715 8.637221364082379 10.26535593174535 0.010797347725820115 -0.8625135793388758 -0.23601235780770968
P 4.097999212695572 5.99987844754898 1.3235149803587256 0.18422314105056015 0.5274487009116787 -0.21463003547719167
Ni 4.5348005260460456 8.693118077765172 0.7180341872898773 0.7631167880060922 -2.0111521168711364 -1.61679271444868
P 5.651933380108891 0.21027223542380377 3.8673792101567512 0.8003178225364217 -0.5835956804168917 0.24624817660310494
Ni 0.19101882058062555 0.5045507464623455 6.295295527112767 -0.5403659231939791 0.34002582197689823 -1.304254556369089
P 2.9688726998959103 4.374221832420725 10.777736639748628 -1.4887538338991715 0.8085458668731688 -1.5669194837673206
P 8.878577625651737 2.5337663429260617 6.943106013443839 0.6958865541035241 1.0844321780576807 -0.18875676725485557
P 6.401647591793378 4.323041519101411 4.9484159415159015 -1.3033641833443361 0.3447669362063095 -0.1271035132194327
Ni 2.259091292070175 7.732621301398801 1.4371037718470498 1.5737830436563736 0.8431521440931286 -2.193068464165391
Ni 4.421570070444712 1.1053234297152288 2.077350515329581 -0.8561956075406479 1.0722893720475597 0.9856830476112249
Ni 4.563098928226919 5.135450693430111 9.19753249077951 0.28360579131595676 -0.22413334698193657 -2.02271231090491
Ni 5.587368438414314 4.708423014426613 0.04053985617116075 1.7875144785786956 1.4624424496981523 0.4809919521110361
Ni 5.25392261740414 2.68889169863111 7.746596400991446 0.15498352745915245 0.2920927457410453 1.9157305081360168
Ni 3.1957205033158935 2.957818636544007 12.286444949301526 -0.5707877300189459 -0.7997184983895259 0.4011152330890511
Ni 2.5647177203113922 0.34688111384246745 6.239397892258028 -0.5179255919125919 -1.0450423634061485 1.1279444995180188
Ni 9.318022702487207 4.935952485086631 10.70661755965832 -0.5534790635371694 -0.3882828572110732 -0.3005740437391791
Ni 2.7598772087892516 4.7420181552969405 7.050923662690523 0.3359853333589375 1.6334681182218318 0.18831428040079826
Ni 4.082818299025624 0.6541693362742539 11.83366867206366 -2.2219506944173797 1.7421748741016319 -0.0951200183343007
Ni 6.078132004360998 2.6619750543692247 1.5297672214102203 3.3284583642178616 -0.8564928270660926 0.34754578450302726
Ni 6.685221163647547 5.928275752187023 10.564945920224485 0.4057835850989979 -0.5868872066839699 -0.9295345254441153
Ni 7.078239174405024 8.835485202018232 5.7240104790230335 -0.45111856159037145 0.3938197278689024 -0.5704542579389272
Ni 0.8828935669482229 0.7504004847842514 8.481110354395119 0.7094743200902878 2.071544759026581 -0.8659156630418894
Ni 5.680333111203824 2.2614494922519146 12.877561908216522 -1.2753548426156034 0.5146546344708041 -0.8638670080429769
Ni 4.175027610819421 9.203419700686345 9.713472607182101 -0.2850831471924316 2.3918772163396094 -1.168632464155684
Ni 6.752918089958499 2.1741316034913356 5.97530710706159 1.5854319407492115 1.0356385535937453 -0.2582349166513359
Ni 6.721736419586669 0.1980482837004903 1.7928870913755834 0.5436744187419217 0.17568784988603936 0.30628934895640153
Ni 3.0360169230392655 8.011616648681391 12.389570148655329 -0.5928064003818824 -0.16689647684665448 0.6446097582064189
Ni 1.3328252652168664 4.434991545697816 2.355894488358634 1.225163309362877 0.7884460107995002 1.5018068104283877
Ni 2.5289025550512245 1.961635658989907 4.401331922791269 1.4457657603734198 1.032628563122828 -1.1174253451542497
Ni 5.038700003942576 7.186946675751536 2.9527006052120752 0.629952156194244 1.991801994479299 -2.254967772773349
Ni 4.3395949789708865 3.313575242086107 5.777158415618986 -1.6006497861402302 0.7078542679883616 -2.054111394041482
Ni 8.059103062497275 1.2254074045947423 4.053434756292372 -0.36317757750301327 0.024145486897951967 -1.0718972788154637
Ni 7.503507414991677 6.56898768750228 6.720230303454972 0.19862748940134825 -0.600979680221294 0.0042618606001474995
P 6.553604116004215 3.395430581206954 9.721696830315917 0.8766258503705419 0.6012725288713644 -0.07998007736906872
Ni 4.079253363594635 7.12905101894594 10.289597492676078 -0.6956230160294923 -1.5812428423685283 1.1610286836664971
P 8.39725607215147 2.0817380573083404 1.7822365013360244 -0.13729690881266676 -0.8692663246816771 0.3502631834341903
Ni 1.5767700199544605 6.537575724143955 11.647626943507229 -1.4067317863994093 -0.09453509236510815 -1.2766169971574788
P 0.5442274645201118 7.1417447683617095 2.411104007769717 -1.0282186069805905 -0.23656745898023132 1.3430648443680675
P 7.867858554789883 5.472028499056659 13.155108252028066 -0.03169604555170025 0.580435280411039 -0.5397496297662189
P 5.930440506260104 9.481070136927785 12.290408752185131 2.055537070744415 -2.3787972432271998 0.6142411732168905
Ni 4.999071186826 4.430597555515433 11.306889125372583 1.5244209482834779 -0.13029708045606594 1.1135242103276306
Ni 1.6347301587962757 3.312635646701195 8.905182913795876 1.4408567531075764 0.1840436780499024 -0.24158599524074523
Ni 8.428760152704395 4.249762290797749 1.4471473095742002 0.09322871484885879 0.1169355715474954 -1.5320100734846454
Ni 8.095268273096922 8.156867041125405 3.532047750173131 1.1781632864642546 1.2132015090153105 -0.562178133973064
Ni 1.7635376320043332 5.044236247337986 4.842269298179247 1.168971849772974 -0.7984208626240249 0.6535471699053648
Ni 2.689951046369001 7.151619731622744 6.121576315677871 -1.1729822564839476 -1.5312837368415821 -1.5747518353275458
Ni -0.2602393652902464 5.778493193768729 4.015671312366432 1.237719805871649 0.7182970605882403 -0.34787077194261384
Ni 3.7028256595844753 7.734371528096186 8.105170871516336 -0.03301682124565281 -0.6267035673499595 -1.1846609783734565
Ni 3.3883283455033553 5.5523639044666195 12.744005793626878 -0.13604581001438507 -0.004264174592992656 0.6522567332287154
Ni 5.801411951785009 9.40240205274007 7.7141039029404705 -0.8496462364579045 -2.238250717128984 1.0895558724374912
Ni 7.287593922570619 1.5687650357437906 11.025473859387873 -2.156690953977621 1.7503859491575147 0.4273661963657801
Ni 6.795771008886045 6.690195492155905 4.507585422073658 -1.9599066884325989 -1.6972024231559995 1.7284387554624618
Ni 5.398343955096761 2.4007030553275213 3.8837336968858924 0.06791131912999272 -0.1869243420318071 0.029744835362600388
Ni 8.65429989196107 9.332853570817678 10.136451735482964 0.8216075851531335 -1.3219990248367037 0.6225964871601214
Ni 7.713368807727568 3.3992810799412 12.70959910027213 0.2484834936915269 0.1257210310496093 -0.34719534314214395
Ni 4.699966655962407 1.1333178451539248 6.054259833380616 -0.7103266407882541 -1.1315345308621223 -1.775502027498852
Ni 2.565380964112506 0.8605358026470517 0.2188078146753654 -0.12072846293102435 -0.17487075330138271 -1.5560537446974105
Ni 6.71367616505924 7.278686189852877 0.3817226003557218 0.9254179321725804 0.3102349638677109 1.3986371823167332
Ni 5.24585315115725 5.06906183128247 6.607909044564334 -0.5549654182747088 2.608598330017875 0.29386320737790683
Ni 8.117634327945607 8.470120773079435 7.9407407579848215 -1.0099416630482736 0.5849516802241539 -0.05033474369881009
Ni 1.1368275102681542 9.017646954338144 4.112055375419463 -1.238331985534351 -0.6938391846561922 0.7007166285023158
Ni 1.3216975081092832 2.7249095217193964 0.8590941685515742 -0.810401946245301 -0.2974352409998813 0.23063335288398343
Ni 2.0041845911752767 1.0054591790502387 2.3581053010290143 0.5954358675849294 0.455848362965873 0.5043190568727508
Ni 6.94317694368368 4.689981152067854 7.939446511400703 1.0039378800563548 -1.1353369353273481 2.3982149856321797
Ni 3.4191415470967867 9.16153401230209 4.00407652108223 0.996349783296452 -0.9145233967472637 -0.8768551927725287
P 0.8983443839983462 9.230695602007167 11.924903383938597 -0.05930737951106561 0.4644947257869613 1.335609673641603
Ni 8.140497815645128 7.313460430814073 11.83639257750796 -0.014885658862580814 -0.6489778053671275 -1.6221976875143351
P 5.728869661038141 6.911497840461016 7.7959002870567735 -0.8225437238141575 0.5107910377503397 0.9289454857098646
Ni 0.9820429881831229 4.696116157228159 13.006775618252764 -0.38220502644810955 0.09385272158610289 0.44535029164802653
P 3.380599712876483 3.9360940314680226 3.596236853713744 -0.8865168842320087 -0.2569349668929898 -0.16953211469728866
P 9.2271030314178 7.498312005216283 5.916308807436642 0.8375114008675835 0.39303528429439405 -1.2048657354561056
P 3.342969838882711 1.4936618869870648 8.090002854253632 -0.17133342957208555 0.02755142725570739 0.5248192337086316
Ni 8.941410764087848 2.602642369327882 9.907711844885915 -0.188269800316108 0.7075215672392913 -0.32204429779781313
