# total energy = -381172.9119052426 ev
CRYSTAL
PRIMVEC
9.25825856080765 0.00000000000000 0.00000000000000
0.00000000000000 9.25825856080765 0.00000000000000
0.00000000000000 0.00000000000000 13.55039724285623
PRIMCOORD
 96 1
Ni 9.446015960633337 3.607563740546149 6.943128179421146 -0.15515784825348763 -2.472473072915806 -0.2646924993512215
Ni 8.46474240273593 1.5966885154925958 9.41894851614505 -0.3513026804422982 0.25803308505317496 -1.8955085246621872
Ni 6.511981266153086 0.44420661267809536 6.739682578481269 0.1918904277878308 1.3018744861726868 -0.4332414241996345
Ni 8.97660373924702 5.971123064086751 5.703999161330475 -0.479414066100955 0.3993933653019379 -0.9464719246294022
Ni 6.233409526787915 9.125393211257975 3.8655895526954205 0.320014668962294 -0.9935503661744437 0.16720629477758947
Ni 2.37139181021357 6.087295691477298 -0.09463328903988477 -0.14230464643990332 -0.5828269205716672 1.3007455147745663
Ni 8.345070153640439 8.350023321926535 7.860314220477396 -1.3896835726678713 0.21195094598313174 -0.24506649759017793
Ni 2.8384431756878223 8.133435623076165 4.513637093950432 0.490908954114432 0.8075858169527447 0.4250475755349325
Ni 2.4248489946695004 8.8598108085384 1.277800763756141 1.1798496730277424 2.4379002200369437 -0.647079302792834
Ni 1.783168357770281 4.527538369056179 11.676959989725246 -0.31499021916450914 -2.1739350857700495 1.5473868130510318
Ni 6.427536690568994 9.047049828011337 12.950711191222808 0.8231615599038146 0.23609154778507724 -1.1153733477212275
Ni 5.4763709892442725 5.724760805968928 1.9863121394837526 -1.11779789800232 1.5212317519222187 0.080708470894661
Ni 1.1110650835101006 7.404958812939268 8.397899628171514 2.0046107162081923 -1.3489647547922703 -1.3329192712936335
Ni 3.120023849058566 4.40673661242629 7.786749024431608 -0.36714067591581934 0.02077451354319003 -0.5642962087573313
Ni 8.024410371231163 5.084061544468449 7.875314450864563 -1.0160912275894372 1.1597115075169706 0.8342558700447632
Ni 5.475250739968351 4.044007303489867 8.398061647694892 -0.45647931168165257 -0.15487939778112034 0.17971342610566468
Ni 6.048401747608341 1.8172202324548867 9.270030354341241 0.697319944115941 -0.0745434797345297 -1.046261066304598
Ni 1.1267393151145153 1.8836482370394558 2.8768843907171724 1.8211409083838896 0.10749988005589228 -0.7510886531969646
Ni 2.5083307113718085 4.798962732875805 2.8304338562779114 -0.7891708047806666 -0.40727431071191145 -0.5536958075336658
Ni 9.018886205719177 6.1389475155298845 12.362379417155319 0.33888553772486796 -0.6021790998460339 -0.3408645158281097
Ni 4.184964288827855 5.961216727514558 11.032421328433655 0.3762318395838101 -1.0523262986620716 -1.1715817765919951
Ni 7.979118970753433 8.300260182603601 5.255697620927258 -1.4380719912735878 -1.3189147294844255 -0.5236748356915433
Ni 4.6339065007177975 3.561781652369049 1.4288622123977663 -1.4026074798183907 -0.36099831046350733 -0.16122230928001266
Ni 5.510135857916039 3.307272126789982 11.258997762356682 -1.2395005519211557 1.0425221680874561 0.29167468436702026
P 6.868785289663149 2.416590628106513 -0.011610781958119602 0.020142279275829827 -0.017056698371970623 0.8856090277057587
Ni 5.107040542012546 8.080987588794411 6.035997532898597 -0.6263749803659471 -1.6774090425791564 -1.1254340743913391
P 8.014513292917448 7.89377634409691 2.7840916434628507 -1.3659720879835442 0.683869732148306 0.22914674103612792
Ni 0.13008038327722832 8.56334285553393 9.929947908791776 0.2860565668492944 1.2815997950840508 2.7974823668792146
P 8.474111760316358 2.9301925172115966 4.920569032167491 -0.6409222820525027 -1.594804640213363 1.373693624997518
P 4.559340486930465 7.453073982252997 3.432030863093662 0.8561452139186868 0.5090588855505813 -0.09070749108890185
P 4.955251394254495 7.943270993923963 10.185616568332373 0.1221410270078348 -0.10031827470578852 0.4960922980875843
Ni 0.7460128775213755 8.588923423710538 2.951222651345931 0.803267649193365 0.4445247104229377 -0.6087608668286096
Ni 4.190408144813322 4.549017528726729 12.9604666181818 -0.09636160405088566 0.27786631772901826 -0.20123741622036953
Ni 6.237770166531376 6.339546201987567 4.1953381674532215 1.151181101448456 0.6734521363594079 0.5169886819206193
Ni 5.800363744705875 8.607051093811805 1.5477132539661969 -0.47892967026536865 -1.3160525774452818 0.5085701188396209
Ni 4.207989577664346 7.702074844037246 12.371173836884223 -0.20670692397537305 2.0339958542385292 1.129698506094648
Ni 1.1629020727322612 0.7563580555454589 8.224711867591678 -0.775275277745497 -0.05810873121727411 0.8640909511283248
Ni 0.7130210734325795 7.923087990440429 0.2818750859903658 -0.8284140665520056 -0.05475961223938312 -0.6358893476142855
Ni 7.189519138140255 1.8734086031620296 11.385151718213098 1.2391264564111883 -0.34830554548718723 1.0569792240530507
Ni 1.6478866848797273 5.387112119251264 9.68853418983081 0.43853146895398026 -0.024825800794428213 -3.014526154004221
Ni 2.8930576424535883 9.227937682167896 7.060841381022546 0.6436890461643623 -0.811879302121776 -0.4282761097745592
Ni 1.6686066673550255 3.071732772833742 9.235448907271655 -0.49544026632588223 -0.5493460152054023 -0.07630751361348793
Ni 2.9589301515294366 6.888801644494068 2.1167748888361504 0.0392193505119389 0.029909128854606556 0.28489082867596743
Ni 8.729917442082442 6.213337622406123 10.07301299958536 -0.20302536135872776 0.5710710655873197 -0.8394173596410447
Ni 6.889523788655405 4.741654112892741 10.115683387087776 1.1100506499567333 -0.03201743344686099 0.3288584925061691
Ni 3.6721678682104173 6.710682009622635 8.608757390849426 0.46992463855328104 0.23242746866992875 0.9439154767561356
Ni 7.068624798925578 4.082475367468805 1.912624734426046 1.1600910023435762 -0.022638306224806174 0.08084653913442205
Ni 8.830091798821819 5.942774276625016 2.1911131494649085 0.8607258913108338 -0.5226890747395062 0.5943158950478733
Ni 0.7452814751015594 1.67730943032499 11.096081113733097 0.8758835728878785 1.2261994639368754 -0.7565532758559615
Ni 1.9074419613296776 3.390901975627949 0.5290668840678796 1.6405427656804261 -0.69019593147665 -0.5135426323535478
Ni 0.7341289769381347 8.307481624216976 6.081214867308498 2.2276744842750347 -0.21881270609997153 0.10565074266229546
Ni 4.251058996107191 3.368728446571497 5.785382956661513 0.016303365145713858 1.0830728358163089 -0.6963282696266331
Ni 1.869946014491001 6.75312186648893 11.385707213721819 0.06012756141951581 3.24737399804102 -0.35014208447529377
Ni 8.972317165571388 2.67018358609619 1.4922099943864768 -1.1824390310214732 0.8774668582145984 -0.7977559753465163
Ni 4.9597601661336155 0.9688489750190112 11.118250013660312 -0.3288299532610789 -2.195300438819703 -1.3006519266194956
Ni 4.02623144721079 0.9398798842392039 5.16717293083161 0.3078983453147342 0.584354155849471 1.7679555826101618
P 7.081234546973547 6.750112932483358 6.622011039043024 -0.1415716249286207 0.13832509296686502 -0.6924320198960204
Ni 8.993416736644312 1.0623481273952569 12.957106796179886 -0.4101020099686937 -1.7999622174237453 1.5283254255442067
P 8.449123720682385 8.396740494209983 12.033159448956653 0.3777084241293366 -0.5638488368072676 0.08324152172915987
Ni 6.0112483563333745 1.99821918571319 2.310030850494386 0.2251661591218251 -1.3778680680901818 0.05616497722734198
P 3.101673980753811 1.7811500574219277 1.3252169345547293 0.5730814111491291 -0.5723684442425045 1.4929506455893384
P 5.691893988369594 6.735586724930299 0.1431373052097186 -1.240673232073018 0.2660346152014128 -1.4301514508749307
P 8.993250087991695 3.6227750592266292 10.19325926070653 -0.2874819864419113 0.5881066809133677 0.567626558682145
Ni 7.021833560574301 4.516743239670031 5.553386738225066 -0.141870130005646 -0.7086294555914893 -0.772458120011676
Ni 6.646707443534917 6.858554914044202 11.632188903374018 -0.17455579316412517 -0.311748829409076 -0.02670579142596046
Ni 8.485480901728184 0.8574980486441638 3.81324428508278 -0.6443207662110902 1.5550224752194188 1.22941617110196
Ni 4.989756923604557 8.923026197430865 8.192014476122504 -1.1292652752119712 0.8827599882927377 1.5304280737095064
Ni 3.9475455084004416 5.577776694361315 4.656281859809085 -0.4325176586597325 -0.020080572799958965 -0.5665677784003275
Ni 6.839705099781598 4.808545030401245 13.04849043649375 -0.7802395637293078 -0.7007037729865094 -0.022646019534290032
Ni 2.95700443376587 8.817213561277969 9.895489596559955 -0.3442257189908588 -0.23159494546630435 -0.314570100907955
Ni 0.17428023508032117 4.18816764626148 3.598796169766834 0.023820499458365427 -0.03726582632999389 -1.072831874814591
Ni 6.1931731354395465 2.0672302444133126 4.763195302895099 0.6944418512371976 1.3001857856163543 0.0839308344867006
Ni 3.270313158943069 2.5176167446259305 11.674642647628032 -1.2937935089367654 0.501460247267717 -0.6131677376470537
Ni 7.832227441730607 0.6208264096759805 1.560518351268067 0.2848116386985998 -0.8498298132236202 -0.5670670866342491
Ni 2.712975256784675 6.841686367096036 6.550262313310754 0.27607400171528584 -0.542953224305181 -0.9536938962991381
Ni 8.902472863608184 3.345203211777157 12.774881123673156 -0.5239892816081686 0.7644833293363156 -2.2346061783978612
Ni 8.70696621931378 1.036610168824511 6.418159000555933 1.1189731492573438 1.7667744178178668 -0.33623421614494997
Ni 1.2657798409474155 6.6576692215736815 3.957894389727916 -0.48843915241770064 -2.0997119654894156 0.4272870063884125
Ni 4.186815940523592 0.38425105659597536 3.0296650979582904 -1.5183875976052044 0.5859934912251069 -2.0436758005304547
Ni 7.0865395290818345 2.8371933107931997 7.187618417674579 0.2024183239023482 -1.023045290309767 0.24742368496844483
Ni 6.296300876633625 7.020713311298379 8.623540052162344 0.5635269346914746 -1.1616164378491673 0.8490363707880474
Ni 3.365793578633754 2.7605164140727254 3.50853648203228 0.6153963698672562 -0.5538914684842396 0.12984970850600216
Ni 1.758226609428702 4.294545036181578 5.218000769879593 1.4553174086175968 0.2948281423943374 -0.03461553319134038
Ni 2.121724353818856 2.225666821759059 6.616170929594669 0.8375751642259833 0.5011350027178143 0.6028887243185488
Ni 4.553118937232788 1.3199313947892475 13.246624574544407 0.07140030611985768 0.37239755343938447 2.3721781952487855
Ni 1.9996171827434717 9.299179981161384 11.972195668526203 0.5772756517361348 -0.589004767247605 1.193305541422332
Ni 7.052367297037006 8.87692007020701 10.36244930527527 -0.7095177717337136 0.42639149115733666 -0.9614365163590345
Ni 3.6906843851677884 1.7373862695931808 8.987287769531422 -0.683775629772603 0.33887345354001 -0.1417778274021558
P 3.869202125153804 4.160466936893252 9.947427500799533 -1.1543900953040571 -1.0267844456372253 -0.3105200992082975
Ni 5.189864922362868 5.60408866495774 6.715752757791411 -0.35419954237411905 0.8427204558723486 -0.09505394098305565
P 0.4645497840333112 4.8495683737203 0.4344567406741916 -0.5005678173604347 2.0713748091076196 1.165463579509399
Ni 1.604011797949236 0.96596965663214 4.836760498940886 -0.03488267080979799 -0.8580131203653611 0.37236078666417805
P 4.878074551576174 2.01709677475123 7.195179637374122 0.922931932525933 -1.3926038316384595 0.5617366755602713
P 1.2039068995343598 5.404647260809894 7.024187009879582 1.08093959152339 0.9665956919624707 2.1482471940856422
P 5.518764554818174 4.078688739751023 3.5468703012632776 -0.435541790198037 -0.6916956559506282 0.8769685784219412
Ni 7.761392506110184 6.967330192910278 0.5185143210538739 -1.160882130786304 1.466332528781178 0.3084261927937462
