# total energy = -340877.4678924135 ev
CRYSTAL
PRIMVEC
9.18709790759023 0.00000000000000 0.00000000000000
0.00000000000000 9.18709790759023 0.00000000000000
0.00000000000000 0.00000000000000 13.44624643384637
PRIMCOORD
 96 1
Ni 0.6183936656431052 3.749309776707632 7.475198884731734 0.746932722047062 -1.0151689728854838 0.43677206306071226
Ni 0.8430090222679156 5.691306092688748 11.94689568179287 -0.9684723401598934 0.17923648646924617 -1.1015914634457868
Ni 6.9308936514157224 0.27309750967730545 5.022442186006989 1.6830860383592758 2.1564891223794604 -0.4713091776056334
Ni 9.111377841854832 5.926100753789827 7.285377823994081 0.06843505284394666 0.6728769805822282 0.1865628449273303
Ni 7.9430546015596395 3.5027556302910083 9.079779737328046 0.3202699795062097 -0.1961360904380622 0.38278660998319236
Ni 2.4105199348265525 2.1359727011001906 5.937566251972484 -1.7264464076227815 1.5747461789005912 -0.45331274102821284
Ni 4.2184581182104575 8.08062220555571 3.6036749820431404 1.4884121342890366 0.26115620406318896 -0.7821285532219046
Ni 0.2836286800032501 9.128006489058844 11.374126063044708 -0.1856336482448416 0.3332715339722002 -1.3699881511214729
Ni 5.7226616578308995 6.53503078988329 12.228554648005765 0.3432348158324992 1.431997502944734 0.698405463870636
Ni 6.448699630890966 4.69323815072768 0.6068693700338712 -0.033382946335819924 -0.598991960367304 -0.2615405839858012
Ni 0.14375143959442396 1.0715279767916128 8.501281963037506 -0.434356254530368 0.902349223278575 0.950764381357169
Ni 7.466510646245085 7.277348300427062 5.922802585642733 0.8621790788175926 0.19576636580346932 0.7189868875664134
Ni 6.649162107129395 2.0854436626349586 7.762692576822679 -1.081867245543982 -0.03997602617230535 -0.12128125011070082
Ni 2.946917832977651 9.165260171054575 6.451051527954074 -0.11968279527532935 -1.2448489607172626 -0.2179290179434376
Ni 2.585864885398811 5.457567947846488 8.419905405944146 -0.6365557775536907 -0.561568268303207 -0.692965009581355
Ni 6.3123906593075745 5.358797458293814 6.928837578905083 0.8465364871843292 -0.2617151618904525 -1.712796935160147
Ni 4.275702925242614 1.029395945809512 2.515738848397181 -0.6525320983772891 -1.2473185053036777 2.0208379767003324
Ni 0.8697958436230206 3.679423522961265 1.224935974991638 0.8593518937814425 -0.891864264586851 0.5204334459361102
Ni 4.122315138657975 2.9342763862634396 3.915197528698779 -0.03948108881375781 -0.004977141499617235 2.1536894481471363
Ni 3.370819717309336 7.75828368853914 8.315602446034424 -0.6880845415606021 0.7737575555493901 1.223255550817203
Ni 3.0318893014803647 6.338739256092718 2.5427525910704842 -0.5057344491630387 -0.28962628647842376 -0.737637155677749
Ni 8.864327592151458 1.1862564554013977 2.560514926155699 -0.3066940405939879 0.3311704284687974 0.4882103242363463
Ni 3.6959327378925413 1.1921637593528784 8.906699406388821 -0.7344024507905351 0.8825255036844284 -0.7712095923165556
Ni 4.404322295881387 1.2360780873281165 0.37368612590493794 -1.2226526271258813 0.2432016764672973 -1.989335020996045
P 8.03172847051717 3.9673747325277677 6.311923954734114 -0.7841982912667398 1.9017704464114988 -0.7306347562179869
P 6.678514884928743 7.463488091035074 3.8344796865250466 -1.418765320525176 -1.12161264376272 0.12424393228345054
P 0.6262137233779426 6.963783461907638 5.357253107136358 -0.5296117700012686 -0.6816513843407487 0.8318261775573481
P 4.011031821761728 0.832457640326585 4.683435517265425 -0.5656462950273226 -0.46579544687625585 -0.03698634741636211
P 2.36114847069707 4.249951489821151 11.675079772273001 1.046110913879979 -1.12044510581718 0.8586070451956181
P 8.410778942887534 1.735497916420567 10.684186035064206 0.593449690392836 1.8174295209705733 0.03376835469969668
P 0.608550608950078 1.2407910685522374 4.7271890710273645 -0.11331288719324356 1.0774338923629767 -1.5116281673941838
P 3.9607324607440653 1.5348425111261792 11.259281827001349 1.7381588109637034 1.131458426208548 -0.25783665277165274
Ni 1.6981523634458093 1.9578073114717822 10.327308623482173 0.5059216254731802 -1.1077158311759698 -1.121513142070378
Ni 3.6237497096704816 6.043521052085124 10.966018637427466 -0.4094432933387723 0.10704299502413178 -0.4507925457095204
Ni 5.969693533338468 2.503181004273886 12.48131651647529 0.20581397984745847 0.3109849546598579 -0.339423412506209
Ni 2.679049619426601 5.381002673924807 0.20492189356043383 -1.5902846408558224 -0.7847976154136355 0.31429627842127805
Ni 4.538940841450667 4.406554760671759 12.699939129138125 -0.29763655837741 -0.5968659151632366 -0.5757509875614922
Ni 4.86387930717372 6.011320273935916 8.67814002863435 0.34128643385687674 0.8717296986205052 1.0323470273266673
Ni 3.5188514258166603 3.3199507562217017 1.7406436099559082 -0.6734233400040015 0.3983093882091398 -2.2525553066771145
Ni 5.566306438623666 8.076184837268672 0.9613140380912488 -1.8044693612654794 0.28174122730339224 -0.4387047613070509
Ni 1.432957595384466 4.760239655732578 5.476467645652065 0.7135268928931067 -0.6178893114924391 0.45016699631037954
Ni 3.4806606598348475 7.510526032297253 13.217579729501137 0.2617799536901169 1.0340066744172773 -1.9129526882805636
Ni 5.906265809417747 4.903291957176601 10.66841362538473 0.4590907811625706 -1.2655293718847498 -0.7248212348600034
Ni 5.315912085283686 6.0668654678560605 4.774224256160173 -0.9378695276723719 0.10372627194607298 0.3830046395312694
Ni 7.23511521136803 6.9866225872939225 8.500299862271701 0.17122518612899543 0.6840718208567831 1.0384425987014438
Ni 1.0323266300404956 7.7878202082965435 13.210856611255892 0.3198742867296878 0.20277545013145076 0.2266468574324097
Ni 7.9627793007568854 2.6652322241808357 0.6333585294169264 -0.15559982088691268 0.3207541182314798 -0.038650108272030206
Ni 1.957577634024213 8.880607129635166 3.8428969056235642 -0.22805427930289757 0.4055712119778757 0.3728955761217255
Ni 2.704360074148731 6.7378359760869255 4.84629612049761 0.5055303035720325 -0.5442102366407338 1.0999302736932801
Ni 7.983689135583589 7.293784018575116 11.111951094064004 -0.8716471662090277 -1.0742889189760916 -1.2987577949205762
Ni 5.272218247658114 4.681570536391162 2.8108844743313433 0.0214046909280212 1.0754839677254575 -0.5170542450512321
Ni 3.711587552718861 3.457444863434549 10.065765726837181 0.1522879829048603 0.7400082270130869 -0.16719009682767336
Ni 5.834367581230674 2.5002411329449994 1.8676295145875683 1.053392792253373 0.7315264147943208 -1.0689443668347267
Ni 0.7594661474890817 7.295033463889893 9.664435623342811 -0.6556796428673353 -0.36933125580923487 -2.1690178509740905
Ni 5.240072592096324 8.330658262077483 5.788232731692337 -1.8241771241070521 -0.7274337327821859 1.2236067635090346
Ni 8.769590238578099 3.4528053789936504 4.1080429820660225 0.9188245952257789 -3.0077685235654137 -0.40604789450397816
P 5.853899351371962 4.164245053486215 8.573178353805 -0.29664591232936655 -2.4288157412371723 1.1271600559435104
P 7.475605873168826 0.12940762363883002 7.3487504253273865 -0.477034767235501 -1.1052239179920513 -0.05651876102233492
P 6.673994832760581 2.0453511673872726 3.70985945960335 1.220980381629781 -0.5288011011745151 0.15655935658670456
P 4.558206185752774 6.1434674901693525 0.9877884981176596 1.8057605692730772 -1.4547432812816816 0.26776368207737755
P 7.853838693825845 5.792419292206629 12.656642174141952 -0.4278747605710824 0.07505152971919977 1.0645413526710248
P 1.9730303326966714 7.504058315373704 11.28277231762894 1.3278680820229711 1.0729961683065972 1.7250307582221776
P 2.1303042616941816 1.7780433668082922 0.8045922536776949 0.15285928202729804 0.44161396453404594 -0.015383681544921892
P 3.966162035604602 6.5698131425431745 6.696418701321661 0.2997268652475354 -0.7039068533048393 -1.0998814227332152
Ni 3.6776412259681277 8.723020839308962 10.555827578005871 -0.12273109518334993 -1.6419494162199657 -0.3203910784651063
Ni 0.6882376587391197 5.618094109501578 3.4902014610068735 0.1599203026391375 1.1425303677519936 -2.0087183106186632
Ni 4.030995385504447 4.332047396680299 6.430693837711328 -0.2981595207604155 -0.17732692815135911 0.11184478728814932
Ni 0.24795150400763513 0.7854693093930804 0.11919432690032122 -0.8689907024227873 -0.4776297205070226 2.0757726810649992
Ni 7.286884508050137 6.6621434764660075 1.589898032728106 0.5507441811045095 -0.7984697135840895 2.159927458637048
Ni 4.610591017994366 1.79910019520144 6.498960406097437 1.3706859485194458 0.24407867975561193 0.35176702167322643
Ni 8.102129201746092 3.951242188610505 11.480095562513993 -0.01620052101926242 -0.7235436536991603 0.6352118619312868
Ni 0.36834658460384834 5.876021883121831 0.8531093177022204 -0.8297754656759063 0.3164732314679388 1.044355621751769
Ni 2.629926206940493 8.880285581208568 1.4264044384504206 0.41774667099814505 0.7527570420383228 0.06402098293665104
Ni 7.461283187538409 0.06277176513046259 9.818314919665248 -1.019827554703418 -0.2563644391015004 -0.5229747243007252
Ni 7.587660906288906 5.249801728775357 4.393937200412095 -0.7864094399854455 2.776191318710922 -0.367621986427612
Ni 6.826877328960567 9.114363648673232 2.5425504749166237 -0.3041651035245471 1.5017957546847942 0.07451905425449748
Ni 8.532232377162147 1.9616658925909454 6.352585131341981 -0.12365592099046445 0.06829955570734689 -0.989201859397761
Ni 0.8307139291446393 2.5278942976323355 12.343802197647056 -0.2797797327016472 2.0404061286402473 0.2353256161533302
Ni 2.40606419234371 0.6187198076186535 12.330705070876869 0.0012428712681656015 -0.6824764513452053 0.9490026614710559
Ni 7.789630066583389 8.056303957407078 13.288373668520299 -0.055566167301078495 1.372336082528359 -0.191230939826961
Ni 6.0977433039072695 3.603060365193445 5.064031259503036 -0.06861503006523667 -0.5194551411832409 1.0618062131280486
Ni 5.908103228998302 2.215689149602521 10.04944209128354 0.0791642663359927 0.08054880538834515 0.2631069000316565
Ni 1.7663757524717751 2.148228289702485 2.991857441078838 0.709932747783945 0.3054550259805643 0.7331333542701245
Ni 5.4545545797343795 9.110404009477138 12.128312385369068 1.2546062972143424 -0.063892941999219 -0.5744685213046428
Ni 1.1066135036822895 4.203161600202346 9.841886256754382 1.2285484237850262 -0.531590233883878 0.4107496708550216
Ni 8.73303477602298 8.080815134611667 3.8017111457254487 1.1863026277419377 -0.07012349628996309 -0.49438071471311634
Ni 5.4015450248354 8.972505669956568 8.287002091553314 1.47551059573602 -0.2531114793818415 -0.24480527350899126
Ni 0.3133875275299009 9.066719358949468 6.386039029645127 0.12601645080284105 -2.178544302407287 -1.2636324119723528
P 1.4996283648648638 8.662992341612265 8.05110130386474 0.19218559043074643 -0.32560373301429735 1.0883870489403706
P 6.673774342410914 0.8441463849882785 0.4032336701798251 0.6927024999485877 -0.24930239004839644 -0.1314507344445349
P 1.0433511475238189 7.6858801699674135 2.0376983148342656 -1.0006718077105734 -1.012404522766469 0.9180136692887093
P 5.683313317513339 7.805110326549556 10.193962490972426 0.4419176118173937 -1.0155885769214057 0.26313672482832745
P 2.5618406243830685 4.365681362102338 3.3814482708730496 -0.7127463059733402 0.04624154746604294 1.0366145443537695
P 8.697186720006373 5.445146991481943 9.74384981632414 -2.0097125562111327 1.7724958936826767 -0.5450119066064226
P 8.162433312379871 4.567769954669558 2.1586198161403076 -0.020259264469668335 -0.21218748747397004 0.17519702629254988
P 2.300486063245083 2.8020005506593653 8.28689460250785 0.9940812989772493 0.10494163241041281 -0.23547602568826542
