# total energy = -381169.77383811417 ev
CRYSTAL
PRIMVEC
9.26160736693295 0.00000000000000 0.00000000000000
0.00000000000000 9.26160736693295 0.00000000000000
0.00000000000000 0.00000000000000 13.55529855912267
PRIMCOORD
 96 1
Ni 7.579671475688612 1.5454010243254526 10.987450175428348 -2.011853256703219 -1.6307203802733659 -0.7702855378403896
Ni 8.528328630569812 9.354686263536255 0.30761964942351866 0.022471441629638718 -1.6475050559308724 -1.1667285622647519
Ni 4.190571585172476 0.25440338111833277 12.455733501974523 -1.2951309968012663 0.543787033060386 0.05911968898029174
Ni 3.7245830849362864 5.552361248501338 2.835524371821194 -0.25652204772528725 0.009972794941995728 1.0700810515423314
Ni 9.006579498622367 1.5680734385357755 1.9038687491156032 1.0355069131118877 0.8595429267463262 0.9423998114425577
Ni 2.892112791275881 7.557221340048978 1.5403293682708885 0.05622771214447735 -1.4407022298075833 1.4252254743282229
Ni 8.243867629729998 0.3146575446679731 3.67238744573485 -0.41060028976135093 -0.4991711941232242 0.7167364009693398
Ni 7.294599208779403 6.414913242061715 10.737884131704647 -0.6616620857030153 -1.7603728851668972 0.28915371771737947
Ni 6.667190158187119 8.556085667084654 11.053600278065527 -0.6249379908091044 0.7966465443324215 -0.25002821247082746
Ni 0.972227944981392 3.9023781566665035 13.013275766995559 0.5367874618141014 -1.0146598944595493 -1.5982761437017312
Ni 6.05567402539913 7.214541876902756 8.83541110678083 -0.11003575910386855 -0.27967740279582803 -0.28543641676679227
Ni 3.0288418970712234 0.5552037092252416 2.923742105724277 -0.7407667024456662 0.6129101131102929 -2.402978982679726
Ni 1.0704380267976767 6.515003430121748 8.231210717450658 0.6269722476303138 -1.0118859312588377 -0.6706295793089482
Ni 0.03418829649345848 2.69402553836314 10.208698129178602 0.7387548142219599 3.206708659111174 0.4613754634316893
Ni 3.838778700627987 8.392479377450114 4.444890685666089 0.9473440428217105 -2.542503752381647 -1.0107271350640463
Ni 5.948507969505482 6.345636420863506 3.4408769050761068 -0.4064225042345775 0.32690188300043055 -0.606676216385439
Ni 1.6374243525908814 8.847557704508297 8.250446149261695 -0.33938227485562844 0.4798709511327155 -0.35639372181196044
Ni 7.456158683242179 1.3896763623432749 5.9202628462958335 -0.9685443310484093 -1.4709486873969504 -0.02432906366366778
Ni 1.8284079528486716 -0.10676132366284986 0.4716806839672616 1.935357024117693 5.252712850664489 -0.8599918413582868
Ni 5.246894922731374 5.316079127858463 12.252905232381119 1.0407033697111625 -1.4371060278158927 1.3794474967621597
Ni 3.121031934264669 0.969764357489584 5.1659105039828095 -0.8503538040478903 3.0785818468335497 2.1128546735189615
Ni 1.342821891963363 6.7465158231019124 3.371758457359514 1.4753270189703043 -1.5449671478659457 0.9182455827938574
Ni 5.642986074092846 2.551285649552071 8.21723495231856 -0.19430340810469762 0.4406886245062991 0.3144914251512197
Ni 6.533526644345868 1.0387633304744315 1.7980835988423647 -0.3237548527310167 -0.961279679066196 -0.978001362696251
P 3.8440115086463007 9.381822772374592 9.640826393745485 -0.05829102243140928 -0.7798605831233344 0.011679750330773434
Ni 1.1248777534023657 8.745235469134258 4.404523044907464 -0.021438629489750175 1.5353049421858334 0.9203214914862796
P 5.283404177967115 0.8994011497771301 6.452918246846054 0.26190953728944566 -0.1699514616228944 -0.4621755907354814
Ni 8.681469304167724 3.7190631670974987 1.2015129214511067 1.0006877485501735 -0.019809321416443305 0.335634377777422
P 7.183163552007096 2.227296109557986 3.3180661424487683 1.4566428122972397 2.6654919578811254 1.1114639853644923
P 0.3156790999324333 1.9189123775477226 12.203455659688409 1.9154703124960948 -0.9159385319272354 -0.2860354838033719
P 4.2151148440194355 1.2635147502627928 1.1276201152682468 0.09938445003760948 -0.49861506450943804 -0.809664039638012
Ni 5.548786268156083 7.500151317024463 13.192639754970559 1.7316832305416887 0.6739257335617167 -0.65048652870217
Ni 8.901691798078287 7.059937869381137 5.849843142779996 1.1871508346748458 1.2602622099485392 -1.2385124769762734
Ni 0.4534964445634429 8.383578973015425 2.1229761455298752 -0.877403866187147 0.36540415284068684 0.26120865456767917
Ni 2.6556083920623155 2.0632823092105146 12.359639697383344 -0.7519733697947629 -0.39746555215160584 -0.6098949804330529
Ni 2.0250781798732667 2.346372592197742 1.0246773522176993 0.10902120179642515 0.08821454946371904 1.8984092432487498
Ni 3.5291076052291475 1.1755016978768862 7.724174774493817 -0.05344037920732732 0.2966682809268697 -0.16784727079569803
Ni 4.699385756694832 6.81613532376327 10.711329251792947 -0.8645707189782208 0.8577560100492324 -0.6949391025885903
Ni 3.398305927985523 5.491067932633725 6.848245315620781 -0.30394861663836686 0.4095613069738753 -1.1186617886645123
Ni 0.8630308186480703 7.430680002076901 -0.011250074159019347 -1.5967967309427273 -3.6616494226611134 -0.2811393320533352
Ni 3.4718245652410555 4.076588986444353 11.221333539829201 -0.26976065790274834 0.040529070462297936 -0.6356540916750278
Ni 3.506750085660634 4.083970487312665 0.04166797039715819 0.7892368821319118 0.11410350141533897 0.04839998856994245
Ni 8.576109261660928 5.468293640745169 13.197452086025987 -1.0933163679211881 0.5244747058850194 -0.8627750605303787
Ni 7.76853416791774 2.094077152858114 13.155172849559431 -0.9161668458879576 1.9045683208716104 1.8841622464114323
Ni 2.0677093574100796 3.2606136150505263 6.331950544034015 -0.44444114957019587 -0.18121315057964274 0.05275389466326398
Ni 1.3960390864292602 5.395052851702998 5.462012418801771 -0.364474699047882 0.24439441122381783 0.5756345165882861
Ni 2.06843176276482 6.366456513651417 10.764831703757896 1.1994718181340438 0.7149286583366397 -0.08585016299660053
Ni 2.6138107591655886 2.1655211901205456 9.851462198134357 -0.0002146871139673722 -0.9984398330562612 0.5295832307561783
Ni 1.0122288260983794 1.9786034353849493 8.096646975398114 0.4656728052554625 -0.4409660465374018 -1.439833968270017
Ni 7.720910984147528 4.229229533258215 9.021254515091426 -0.5871836548784661 -0.31886564295951536 0.9740256658779547
Ni 5.197688004144998 2.534049798716527 12.841855459440573 0.601187682467042 0.8799675131492651 0.9587792812418455
Ni 0.10659368857412158 5.280588649405048 10.7482941780986 -0.09038147520805079 -0.9082923282358875 -0.14829248859222202
Ni 6.185642158002668 0.3950251403828742 8.948855606135742 -0.8672940314466546 -0.4921122303939137 -0.014439572464097713
Ni 7.933233327191504 1.87075202056501 8.276160075247617 0.10153749182487029 -0.45685443563288414 0.11288274163436043
Ni 0.9010126694146287 4.29192135179975 3.4773000273657053 0.7081208913861868 -0.5629877743585531 -1.1645366968197555
Ni 7.009971499011574 7.423150315494797 1.6707309440872717 1.3331632689836395 0.8832161019935499 -0.8446662667448098
P 5.630473642884453 4.687567946019843 10.202327069646216 -0.19522977657370894 0.04718771342939615 -1.0263409303419033
Ni 5.538968964617299 4.085415298022146 4.2796515746976915 0.4599904101587045 -0.37571453362775936 0.7834570422253411
P 0.2200298524826331 4.278492021487262 7.189296588236703 0.5252367808620244 0.2714889534477647 -0.0030413579294850846
Ni 5.008019552097121 7.619338938949564 6.611881692835319 -1.1747372915018415 1.4320309272858305 0.680576406109015
P 8.911842519473105 7.240335452709843 9.589058640792627 0.33315197767520044 0.30224988877970527 -0.017838313733001536
P 2.1531384214117213 5.815427936912292 12.923716026221937 -0.08065319217669335 -1.575785161688067 -1.3303558814418315
P 4.2424273233929 6.379181961823387 4.955546064682322 -0.6500833797264803 -1.1902173894153116 -0.40925663124926287
Ni 2.078814024337439 9.05204472793547 11.017759710863277 1.766348128913726 0.277899742070115 -0.014716994495200461
Ni 8.802722264478813 2.885675974332999 4.799930689664067 0.6317552708412538 -0.3402654487915301 -0.6883298248021887
Ni 6.235488127479776 5.900190165201866 5.688236434120949 1.3414342507431802 -0.09954514398518985 0.28859373144885136
Ni 6.291483804079291 8.370909094486127 4.577556724421371 0.3986279478908231 0.3000184283460252 0.49546289203370153
Ni 7.426299261912897 3.665281014597766 6.738799978216856 0.11993373494387086 0.5030144791287143 -1.2633560183825148
Ni 8.130588913142391 5.24400530131241 4.355222584089257 0.014670200417665058 -0.2014826994619562 0.2699545190811093
Ni 4.806505504552917 1.8129225457573073 10.657825873667287 0.8779638524556751 0.07924422764430868 -0.5947462977170724
Ni 7.263072698169951 8.202097781654608 7.097418667202934 0.5188445041824356 1.7797443477149735 -0.25834393142537443
Ni 3.7761609749433487 4.392845084499868 8.83466554740831 0.6582211783422663 -0.6537145487211645 0.868896085826452
Ni 6.902240485084091 4.459398993207131 2.417085888659032 0.17728836160393985 -0.48674762364789076 -0.234225441110616
Ni 0.00240431320629079 8.321479897329061 11.588912833696197 -0.5181631618446947 0.1396183578569918 -1.4165428589525604
Ni 5.4452785470717 1.4462092121552894 4.116066586759509 -1.2263766129446878 -0.548171792391643 1.0183810520648784
Ni 5.649978587462451 4.99236743607774 7.624936654288094 0.2029968221136375 0.1530855391054912 1.4898660931267438
Ni 0.18935077892393418 0.6343774837833982 9.81825192735193 -0.2558854425825529 -2.9964494990081683 -0.39819163168435295
Ni 6.241211800675029 0.39304871342516057 13.10058586340166 1.2288335591256125 -0.10118422225050962 0.32439454319754457
Ni 4.931916926457323 3.0686760692601935 2.196432730017757 -0.430539194777123 0.004132534111134818 -1.044419642220485
Ni 3.2818041721229196 3.5137333374231274 4.051217739921576 -0.9213658735903939 -0.4783231470296213 0.39455789158650756
Ni 4.398309432695983 3.2632624346845756 6.313081871864615 0.5406006649126045 -0.27740531893219966 -0.4002796245616332
Ni 3.439334847491949 7.298489083766468 8.504119715739597 0.5368193434933013 0.13318442930618998 0.8698304247152634
Ni 5.207171889827747 5.81941968957759 1.0276179124757785 -0.1277632582906187 -1.289553759823805 1.0568586393147863
Ni 1.5336850913286966 4.002699884904338 9.0855198806813 -0.6823178142801539 2.438221607932104 -0.7229268460507678
Ni 1.9013338472490324 5.040092497526184 1.3140451525054813 -0.9994631321144529 0.7726234419449468 1.6837193010679006
Ni 2.2880522522130997 7.712473660068441 6.155948519440693 0.1734635885412109 -0.597338483924281 0.7034471400596014
Ni 7.383992240625007 3.8226449810387786 11.387914657668137 -0.8110609199855386 0.880587149011135 0.649510795052462
Ni 8.935079891717265 5.9989003738022015 1.91883365388727 -0.08973330010109062 -0.2111510757896557 0.49936402686032066
P 8.252342000237533 7.31040877211969 3.7124568627444665 -0.18320704108121996 0.6411331125117281 -0.4255057461182737
Ni 4.993951170893901 8.405992062226609 2.1374946408387405 -0.8054340607170644 0.5042869180832348 -0.012045361200308288
P 6.693104134886663 4.04838739278813 0.23534206752100198 -0.730077083942304 0.4736080009421392 -0.5154899858879057
Ni 3.39820405030729 7.449629250228176 12.821156693705829 -1.1912702561598578 -0.2992131588359105 -0.885821657937197
P 9.322178022572926 0.40619278623859617 6.78136354602175 -0.46480402949726407 -0.48605599689750484 -0.024712415145015505
P 7.755817981352882 7.410674930714852 12.690279997444598 -1.2417070726541712 0.3739957511644397 1.8975142422383064
P 1.6385079606229922 2.1445714348330656 3.510022211453325 -0.6181055412683032 0.1878442827429152 0.08783659729901003
Ni 7.959499244961306 6.0287134870959225 7.575432438113422 -0.12862843450439138 -0.5094543212167872 0.7560837924187107
