# total energy = -381174.33810992644 ev
CRYSTAL
PRIMVEC
9.20170515143679 0.00000000000000 0.00000000000000

0.00000000000000 9.20170515143679 0.00000000000000

0.00000000000000 0.00000000000000 13.46762561174969

PRIMCOORD
 96 1
Ni 0.5649230546347515 4.547096292790899 12.212402989413285 -0.49354921995075646 0.2899181066872297 -0.2361511973784191
Ni 7.057892007205137 8.811442584802942 7.594206039859234 -0.48019362457945686 0.2621046840193873 0.051465000648511366
Ni 8.341897966222378 9.092950355364891 5.164901547844686 0.9953077151851826 -0.09911011333030027 1.2256713593475472
Ni 1.9639475695207607 2.283136323328917 5.996743069271702 -0.44989085983085747 -0.2777323632543153 -0.39328905217641297
Ni 4.122327172250883 6.55373057324674 6.970964417308045 -0.23509241709660156 0.7366768486470088 -3.2638434564509535
Ni 3.0605792033017396 3.4348769702140536 2.2133772752000245 0.7275622879402502 0.06998697071209882 -0.4256710680515443
Ni 2.924596402224222 8.35526804403843 8.863341122924291 0.895195385842613 0.7524135426559752 -0.6622508683269497
Ni 1.806506391659323 1.3855099702965823 1.5567224203256078 -1.0447849959797038 1.2378666158621585 0.9169852280241948
Ni 0.6991372879516046 8.928442267825044 0.31179978444388157 1.374952951325916 -1.4872749353608 -0.052247901561122925
Ni 0.5871681772227132 2.4907083917215704 10.314747265460447 0.28389915418665945 0.04533574782232192 -0.7392991167612042
Ni 3.134864570272832 3.7474588996093217 4.699891529641102 0.3277847998260161 0.6994210496193437 -1.336509045527421
Ni 5.167493668230633 0.422676652752425 9.545866572278978 0.6993619142466342 -1.2956400752272008 -0.19138623445790265
Ni 2.8993285194417844 6.088354327171801 4.845664945168916 0.26593254240590974 0.24996059245768565 0.2549367055160383
Ni 3.1697482351046675 1.288864459421148 10.208851280236438 -1.7107606214564086 0.6457608410917265 -0.04917209084927661
Ni 8.931984924369559 2.7198492573618696 5.271767392808413 -0.5284892263610511 -0.1598465119784086 -0.7795373954559607
Ni 7.544754235179927 5.706566372136797 9.019229052929328 -0.44150572109095576 0.20556149751702016 0.999103434782189
Ni 7.840331413161522 3.854364311905884 3.294221543179901 -0.17005533419061036 -0.6271941338331327 -0.017735212496233974
Ni 0.9582747927333708 7.204263533578128 9.204421653836489 -1.241727127258829 -0.49527520150292775 0.199378765745076
Ni 3.35841079908439 0.10564569883956465 0.44416999601652474 -0.882418802903235 -0.42657403948178796 1.4831794251351875
Ni 4.159041976439494 7.575239484873377 12.785760327135575 -1.0317325336711198 -1.125161794566559 -0.49293395496426073
Ni 6.308827186409675 2.3305803159094873 12.994494570908936 0.6174661079120913 0.24224548320161504 -1.0960337668523512
Ni 3.053273049285259 8.51293006282732 5.323644767007549 0.41459218452956337 -0.5688869134518073 0.6905219473575012
Ni 3.1769623720680435 5.740428647679175 11.269817104234196 0.9686032093108028 0.5656635214185033 -0.06083281501665653
Ni 4.532566800105732 2.2947304720200568 5.96728933074355 -0.7699512944294222 0.3797509084806621 0.10115259768162578
P 0.6218457238555953 5.56393993982515 3.5566790232376695 -0.26509487699596285 -1.066237509426525 0.24485309602779123
Ni 3.8311760145236033 5.799880865689856 2.6459439208200983 1.0431762567316873 -0.8113830792116478 0.5311030098348144
P 5.412903148859771 4.330460544667473 1.3904917735516484 -0.37898240574575376 -1.2795516543057706 1.2838726502786275
Ni 4.413883205011821 -0.03764969744815068 7.027959780000843 -0.07504947283667075 -0.26981747928261274 1.3314663408971907
P 6.630389980187922 3.152826299038789 5.744400103691157 -0.4991791645430242 0.9880962850384079 -0.5711600257567002
P 5.552391799660561 0.5382528319630046 0.6807651631288024 -0.5682207406227182 0.3623946765904017 -0.4431373431571078
P 2.8902464363003912 7.139962016868851 1.2417094003873244 -0.25537636415661824 0.057237898576546584 -1.9641878323064557
Ni 1.083160337206511 5.382141848007007 1.3881085318762474 0.7669564734671566 -0.0006864845440633338 0.22026460805514972
Ni 8.05654388284067 5.656334262847166 5.0228989911530855 0.4225854871476851 -1.077610270039841 -0.10755464455322766
Ni 2.870628400578557 3.442606402674814 11.282463007842317 -0.506207017924083 -1.1743315714229905 1.692592178077498
Ni 0.850372835751689 7.2485789463531525 4.902686992807112 -0.39974200689060835 0.5868938915521892 0.3183969308532129
Ni 6.559564454413552 8.198093715630995 12.744306644712093 -0.4624576407522745 1.2050935351961956 0.07030501617314988
Ni 0.18452731761321597 8.601257232102125 3.0608948217938874 0.12436091747728906 0.19739233144266652 -1.8190688563462092
Ni 7.1479951056048545 4.745825522380231 11.656836228738177 1.2221767159307275 -0.3047196904764365 -0.01612261659347546
Ni 4.837686146494243 7.507975019054142 4.06591703801583 1.5942500532614736 0.10320742332812549 0.5493619560450023
Ni 4.527726703112447 0.6654599666859661 11.97595136890385 0.6170968974981308 -1.3977208411500508 0.1758673128866971
Ni 6.051197841128289 5.907163547904146 0.23693010918557722 0.9517293163735996 0.10336991704791876 -0.5909292379638275
Ni 3.499058864754295 5.173511583503654 0.35821502637074676 -0.5339929297880996 -0.05083765147715761 -0.40230231141861683
Ni 0.40600776358258317 1.9961535381072615 7.799439034761976 1.6189092465710504 1.2690744089235306 1.078743869423652
Ni 7.755583707252472 0.4771995172283091 0.5647592642802258 0.2835266013385891 0.7689503639687337 1.3215601375270725
Ni 8.463148837097899 6.920786598079746 12.687499916978162 0.20862548115432455 -1.225419134127425 -0.7863423341929361
Ni 7.309632261087849 8.10528531587001 10.215490310617913 -0.19226195219463663 -1.8066170037361016 0.25981974463995255
Ni 4.916480349067445 4.187944532819551 12.290635887962551 0.5356610615191421 0.622150143651322 0.0003789806059735409
Ni 5.297118090938644 7.726248670722825 1.3735900812374529 -1.3299799861596513 0.11023836203297789 1.3556280257450588
Ni 5.959180788024 0.637801480863879 5.572862833464673 0.0666332237485175 -2.075137104363529 0.3276480171378357
Ni 1.678087392346978 0.7259998262643395 4.1399889254237205 -1.0675073772778843 0.8650499726074844 0.6046543008594037
Ni 6.328169170972197 2.2740450384822126 1.8199473226062666 1.012083906202257 0.8523170984218483 -0.5705036231196239
Ni 3.7353310520101766 2.3810608712425005 13.453511518443838 -0.001891303485441904 0.5449401728282227 0.20091165744983464
Ni 5.258286894528635 4.813991755319888 9.991981808798126 0.2961023811210707 0.1446111830858929 -0.7562547707789363
Ni 3.425794887072661 3.6848228915612324 9.106498946263967 -0.11962674522641331 -1.328117479029616 0.8323293424460116
Ni 1.6636775218308464 6.518221192453794 7.053884664542444 0.06098862386823045 0.7215991283782798 -0.3234180382168882
Ni 0.9130990205118203 0.2503296324586237 9.366033044544611 -0.7598995666203752 1.3080024534472956 0.2667784353459728
P 7.011865077242371 7.484050585247027 4.813410207544269 -1.521614332072618 -0.07870095354632897 -0.4670450030126408
Ni 7.615809803587059 0.9032265108842612 9.317832671787523 0.8555510319781137 2.307092004272414 0.8053990937140709
P 8.869643370891403 6.288003727292175 10.611263937554238 -0.27843761685145596 -0.7810574316449129 0.9158544568538614
Ni 2.7189290868308267 7.958932192907639 3.117634377079054 -0.7092712029405462 0.9076541804312561 -0.35819272269391217
P 9.000776873270325 7.7499522636024905 7.19311290708295 0.35414426365615137 0.29017984498904864 -0.0908195911867339
P 8.097822732863252 2.2865041474725336 11.569296725437944 -0.8172282251385151 0.7286822604773063 -0.04709721059811889
P 1.384258538374364 4.276658173717395 7.779789713242087 0.03211153582256405 -0.7052188872480435 1.5377022387734163
Ni 3.5772365530716987 4.323954939012999 7.022060566726326 -1.352301018254355 -0.11717622680339176 -1.8693940869633223
Ni 1.010310436263846 3.2737091017018924 3.3897067190156895 0.27452645472250786 0.2935027387146945 -0.23116325724552447
Ni 5.5381199547240865 2.227438401084891 8.095901416794435 0.05407107081279075 0.01430690354097536 0.41712189292995255
Ni 8.237062937620662 4.169596332430556 7.215684690209432 0.07325150039598352 0.08517139176202106 -0.0013012353099267912
Ni 5.68517240729005 6.617572004690495 11.481878684647809 0.23325125012280473 -1.24609568864017 -2.304638914746231
Ni 5.212720049831391 2.9566183367045142 3.6725680604288033 0.2567223366615514 1.6995732373810215 0.5439834653419083
Ni 1.5526681489658327 0.016935738623844298 6.985495750334275 -0.8796029307209949 -0.8282358891029283 -0.4089283013755667
Ni 8.714152954555777 0.19463539089672208 11.722450828795253 -0.581784852460398 -0.2511042191438256 -1.0036175206024587
Ni 5.336602608425695 2.4131840244812075 10.832038612726295 0.35612221331812866 1.0578479998112489 -1.6369445068062065
Ni 5.7806400998857494 4.636490859881715 7.405443177291627 0.8950848284066778 -0.2669591838982112 0.5153056377912416
Ni 7.0815495915582485 8.280835449782371 2.7137135602608757 -0.12448818708377271 0.6826086060476954 0.6209759208375628
Ni 3.0133284465326877 5.983326062758565 8.865428069688695 1.3505105020128352 0.04363881973587323 0.5044949203289828
Ni 5.256731806331172 7.332452490257712 8.53742408219315 1.5038950604159842 0.44960315338710954 2.7995317932090753
Ni 8.829781583486627 2.645287839231465 0.24608580596945392 -0.3127147928667711 0.14988091612526447 0.84564251461515
Ni 1.9186107674562776 8.599361680808178 11.33522926677444 0.7852491011287572 0.5190036554681191 -0.14430753580254502
Ni 7.711305101298689 1.7015057323620193 6.877257010938231 -1.940820104114793 -0.3993118613317252 0.6942307636676559
Ni 7.288321111588895 3.4377939107974598 9.527914045218331 0.17262772290347692 -1.0066064280274534 0.03417381766823147
Ni 8.102994091247712 4.696752827959714 0.9066716293524858 -1.2077194028548168 0.9256256773080125 0.09080904966377264
Ni 1.1699232165785447 4.627565205730599 5.754784228133976 -0.6220138751837739 -0.18712257408554225 -1.631918257236209
Ni 2.998752945320968 1.7039901927958352 7.881927722017315 0.5394495820272966 -0.31424305658583945 0.9127647621849442
Ni 6.716738782820986 5.945111380604354 2.9288853170694127 -0.8796402117168336 -0.3190561617037666 -0.6389345621985125
Ni 7.047926560353941 6.661565357779654 7.014478361550533 0.029729151633316537 -0.8954293562302902 -1.5732333418004905
Ni 1.7535137707765633 6.809013483673967 12.75452881914145 -0.41358611186255223 -0.1390606855813089 1.3388626333612619
Ni 5.214026691985471 5.243352526809809 5.0341443952129605 0.5884010722253351 -0.43624010181664225 0.06991189449978928
Ni 7.0672133346846 1.4538694390477582 3.9525060200647943 1.6260366016444512 1.1373894469810024 -1.586590994054319
P 1.8885303927964858 3.5573148610746204 0.1057644008380692 0.0656916857708546 -0.6345636868243265 0.8470468511618445
Ni 4.955918858027943 0.5728540044418101 2.957679293326807 0.3355081366122028 -1.3194484905007082 -0.29689016712968874
P 8.55736509777138 7.500742478680145 1.2130451681748076 -0.42140303680380975 -0.16548288432857952 1.5223468393632684
Ni 1.2048528899369326 1.5974620504170005 12.475991359053705 2.368571451734134 0.44360502682214564 -0.5460130941774274
P 3.4353922657114375 1.742775380679293 3.7451851582271147 -0.9559132725479603 1.1241536650170187 -0.05891554338928563
P 4.0692057274937765 7.7854616443954345 10.543993030541285 0.1697491158041012 0.19223418428049474 0.17429276931072563
P 8.80154154988892 1.6389065311351718 2.6075479650712716 0.37798713171202003 0.1869855342870457 -0.39482760030812647
Ni 1.4075480545150594 4.78720559116123 9.95199671854219 -1.779603451261735 0.08997241269509021 -0.34073390378751645
