# total energy = -381161.6000664378 ev
CRYSTAL
PRIMVEC
9.27350850249710 0.00000000000000 0.00000000000000
0.00000000000000 9.27350850249710 0.00000000000000
0.00000000000000 0.00000000000000 13.57271707401751
PRIMCOORD
 96 1
Ni 1.0532665265465007 3.77770271167493 9.372747829277548 0.504957204677382 -0.12387266498696087 0.09304462386251072
Ni 0.8503955494088342 1.765518332102189 8.217546899415272 1.3868422465643342 2.6682844330245983 -1.0458077808172634
Ni 6.448964600168293 6.523319589777635 1.546325980343365 1.6366436877363364 0.12778665532938638 1.3104074633443628
Ni 3.5200290098434044 2.0259091718678053 6.797759794629077 -0.5260312517388618 -0.02471884290291872 -0.352449906672864
Ni 1.3858979960273545 2.667951246027594 2.959259035139504 0.39153735959262886 0.009188094257171273 -2.3308309997605665
Ni 3.1074506252438003 9.0576395810945 5.594470160087554 -0.20327141593126283 -0.6725049419547902 -0.6039451906075212
Ni 5.3724122942617205 0.8757391202623354 10.714194190583846 0.6796886041874229 -0.46445898745301945 0.14688789493521154
Ni 5.731816382226257 5.828891467188916 10.63625962676782 0.013979344998227537 -1.8377726034032995 1.0772940243510025
Ni 7.450837343674762 0.9933225688469762 12.155941890392976 -1.802082606200858 -0.9745987647726053 -3.0831360418631353
Ni 9.175848991489897 4.898489652208164 0.05561322931993312 -0.6136909571403752 -0.6854648445495679 -0.45223904834805984
Ni 3.6570172745614387 2.3561851702385606 11.525815347057463 -1.1079330893930983 -0.22762104842022088 0.357862593048003
Ni 2.6523161110211895 1.9690161984014407 0.6158212294204 -2.5180654168336245 1.1017110197427864 -1.2102722511836574
Ni 7.093566162620945 0.5287856445514154 7.856716545873046 0.03768671591749639 -1.0752497402274643 -0.2377519662066357
Ni 8.861384324783389 6.524135658508693 1.8794545098694997 0.6020279189801503 -0.7098687273152291 0.4940814383051427
Ni 5.145535913519322 6.483758803337942 5.500085319884895 -1.0850780391717958 1.1325783987456044 2.1546608109214698
Ni 0.302004780944584 7.276087353128686 13.221359494874761 -0.035703366938880446 -0.4928699344955448 0.06608429322358296
Ni 5.723924626656594 4.452007321236428 0.27928746764376017 0.9512271799262003 1.4174196051305588 -0.38111102205298236
Ni 8.231416358439933 3.379544632493451 11.66515259142978 1.8418313468537055 -0.9430083915608339 1.9345640959027521
Ni 2.786540870263596 5.519332486377062 3.205875933016027 -0.4957824801566494 -1.0282764568017195 1.8188845082495448
Ni 5.886906535160485 5.904470559894844 8.32302100085201 -0.08091441625788 -1.6791545645153534 -0.7111630206466204
Ni 5.485493454563082 6.898358812748577 13.134019738933294 -2.2480389068639988 -2.831015208529337 -0.4104588790874802
Ni 3.500777206597084 8.086072662736862 7.713565107533863 0.450221760807715 1.3658049662780607 -0.6013360351194482
Ni 3.493210023818184 6.303806374631372 8.951980009491612 1.2313882072266664 -1.4307140082466199 0.7362104505335514
Ni 9.349736545763376 5.2386141164014575 8.061379164815717 0.02296740742945077 1.3800172532227006 -0.935720342539853
P 7.964441327776009 8.375072275631043 2.3046476478197633 -1.9397952623947046 -1.0169134663804165 0.39214876792438275
Ni 4.172244122616493 7.490722702905216 11.406850145735008 -2.182889209639544 0.10846121552789709 -1.4156182902557621
P 2.3263893880466404 6.013128256733539 10.780157582525753 -0.8477122526599853 0.24693697514001342 -0.39054979886837904
Ni 7.400973689505465 6.378207731782251 6.335975247599175 0.7964053748558929 -1.997700876462237 2.2185092728359987
P 2.8168745159373496 6.7588296067542935 5.293236935034153 1.2050634532892086 -0.4385278694095545 -0.8866012164156989
P 0.6945662978625011 4.834715735577651 3.1738443079711742 -0.8549874461651599 0.239294113882775 -0.9655430823282405
P 6.758032085039851 4.2746978423974875 5.3051682308225505 -0.5522403060340618 0.8590739575297075 0.22107604821285154
Ni 1.4518604606184309 7.221002713782278 8.788170904046696 -0.8225362676149898 -0.09133972535626204 1.8494482399690149
Ni 0.9276661300300467 8.440209397982754 11.013092346245427 0.13726168469935715 -1.1404305478001715 -1.3076319574817543
Ni 3.860005097903779 4.210886831733746 5.159397026386506 0.6360500415618658 0.23799519256569335 0.2907899677692218
Ni 7.683528214125948 2.0146882268157595 9.71691183368958 -0.16532373304289594 0.015110373278877204 0.08995775740707088
Ni 5.481839692289936 7.798315699955885 9.558355243350018 0.8856352529580038 2.134760729563433 -1.0341683968061222
Ni 4.477657845214906 4.032501625931139 7.568024813454674 0.8212527729168759 0.28604088312001064 1.0618933735252163
Ni 8.0696214589994 6.917341684253979 8.79658661283573 -0.34012583788987233 1.8844566377233998 0.8662298518481986
Ni 7.538583279280099 4.6127357672216 2.8147638654465683 -0.04335239884370599 1.002612733487028 0.6378477568922369
Ni 9.412054521589615 9.210123878194327 8.808055160559586 -2.863041383726947 -2.8281042055301295 0.7643555455091998
Ni 4.2609452295775005 5.673801314254687 1.5073726086978125 -0.5664790753412632 1.0789876100033418 -0.7933347063503692
Ni 6.6656030277392375 8.557296713872946 0.04645563986630065 2.8156932334602867 2.478472999252983 1.4986374115614707
Ni 5.423991547467902 5.596450981462032 3.566747089994806 0.16147556294139934 -1.3726888378820876 -1.0383739502470377
Ni 3.67949625869876 4.2956466976640755 10.12306182233044 -0.15958605922817032 0.060348419181070256 0.38444034353653145
Ni 1.2145421095218145 7.059476746082663 6.603425081888443 -0.007815382279360733 -0.511301401727855 -0.9606284186354423
Ni 0.4396449732966339 7.987541636969931 3.9767381657766245 1.078470304047291 -1.8641595780372604 0.04286723167717133
Ni 2.1876947978000305 8.833239227070198 0.7957207991296178 0.7994410763584231 0.6169017507681892 2.335222701070359
Ni 7.897124930972041 0.7388649196964829 3.659923592065002 1.0717990626747023 0.3492519685608566 1.1032421116753321
Ni 7.4370105427883155 3.8716989918795064 7.9283803633715575 -2.640541458583375 0.6268652897388042 1.1514968329166622
Ni 5.910164493995635 8.062471584094336 3.5422214425740246 0.18958234847994446 -0.4030862407724929 -0.8201721382581874
Ni 3.2323555086371933 2.2750419725481463 9.029656769776691 -1.5579584179192911 0.5394614091018387 1.1324089630472756
Ni 8.436722558859142 2.586483475546418 2.294427314314094 0.8566779464937051 -0.6718243709479979 -0.9841367861700275
Ni 1.5917142394034751 3.63533581213856 4.841578131725183 2.43530700538847 -0.3827421298985021 2.404458909659362
Ni 1.4062811672871867 4.05321864349004 11.638224178006533 0.49302111536142834 -0.15825936999694679 1.095314115077507
Ni 7.936120033404977 6.930018570110299 4.385344706768136 -1.8086959977523176 -0.5606789237197183 -2.7224164389823113
Ni 4.712463075560196 0.7699812494713876 8.508803684231491 1.0264062363622 -1.0273552305390308 -1.158880784085559
P 0.4461763051975892 2.3261111827974164 0.241129763010989 -0.05874070837431819 0.3614845060713065 0.09945232716106742
Ni 1.3830324819603446 0.47990869166603284 3.6009774638593615 2.1975049026701896 1.9508540913120276 -0.3831231673870047
P 3.307739857668665 7.460620894939149 13.387014955823698 0.8056729162007479 -1.4797665427988966 0.021324472509389084
Ni 7.475291585081576 2.4387379411917114 0.14210260454960735 0.42167814484206734 1.6527102542808956 0.2707513039507918
P 7.096218385996882 5.41804722864281 12.441037356289709 0.8846307229528894 -2.2855351040372445 -0.011546052966386566
P 6.247748016912681 3.078137065483869 1.8387234066814042 -1.03142502973303 0.829358689853462 1.0711071788140005
P 8.20416151752426 1.3792859846041243 5.969050344397276 -1.0939892256184967 0.2562482252386103 0.20099727518510543
Ni 4.460798607111914 0.08316018574729035 12.844540685659615 1.2890788770699153 0.8992775263317867 0.5037130478576357
Ni 4.89460405222733 8.369489623629942 1.4519281572290754 -0.9409854475935343 -2.463498894441654 -0.16848670415190983
Ni 8.071772912926734 4.732577315079111 10.068553067849928 -2.6562454995821927 -0.6950997965361706 -3.5196455952910806
Ni 4.164955145086818 1.045597335176218 1.8140753489509638 -0.17233590269467094 0.3081770528974177 1.3897442507024775
Ni 7.288003811303792 7.337552166190636 11.814073079287047 1.6862307546358442 2.2856286921923155 -2.4130314818197216
Ni 6.022902534489619 2.4579062828632643 4.126105636734309 -0.29654255398228285 0.2485241171214752 -0.8553754256321979
Ni 2.316680024848713 0.35214756771393707 12.36251948880114 -0.11487843190815054 0.9988589228715506 -1.547490942729064
Ni 1.035600493220759 1.1457326778803432 5.8525824988620245 1.206189853584168 0.9304297835648749 -0.11047413219286781
Ni 3.381148949430645 5.204654528979481 12.506729034438207 1.3565420529188958 0.7535522842461088 -0.32695381928428857
Ni 3.113654602301502 7.869842269531446 3.239535986119672 0.06818539872698579 0.6519248038105934 0.3042993151095662
Ni 6.150005239351884 2.3653566699546547 6.625127873380428 -0.35542621569236854 0.04135310902549007 -0.643726327160201
Ni 0.16099552302442804 5.240895399445097 5.244308050502248 -0.7047671444226057 2.033989683590942 0.9212216347030456
Ni 8.836188202711975 8.564483682811238 6.238156427270258 1.0620903200273708 -0.49410457823359416 1.062684501967944
Ni 0.21859328312216103 0.22570977339731801 1.4921844567918285 -0.7981843211331867 1.68403477542579 1.2857212734515922
Ni 1.2278310469264273 1.771713035651583 10.779641975463859 -0.2724263776603695 -0.5724772019062269 -0.36839126049346876
Ni 8.61080485680708 3.1751379623800675 4.6263149654362365 -1.6937329765501603 -1.533222348625192 -1.41928108381933
Ni 9.140312907655648 3.373210826319445 6.785625409008746 2.081574118238125 -1.257372289995254 -0.14728615881489474
Ni 5.980680251165681 3.0634478283248274 11.673812193487302 0.10220700708806912 0.9500344451696799 -1.0019475890992033
Ni 4.875092590748401 2.4513870065231083 -0.0400828849574032 -0.5335653553323778 -1.6461112609071393 1.0896178360236783
Ni 6.524979547764673 1.010367277116117 1.7456414943959453 -0.06337460760190376 -1.6159457930673526 0.23560123841222005
Ni 2.225252506445308 4.768762544494883 7.220182935647897 0.07064594445233639 -0.14577717836953605 -0.5265925235589705
Ni -0.010075666776072592 0.1618366302279161 12.870640974791009 0.7203403162705143 1.1341807102357175 -0.35922244951000715
Ni 2.278890478495749 4.453602364665313 0.6957291958042586 -0.6820136527761738 -2.0650300978365146 0.8756765990833951
Ni 1.908015060754864 6.584135257258062 1.3257518758467273 -0.02660166174792838 0.25528740398723776 0.003143173614672006
Ni 6.847447252140534 8.856868126237647 5.4474368311708625 -2.50457998075268 0.565063168830343 1.195622619591283
P 4.54336992508168 0.38987127215791834 3.855886732864429 0.48492008352084875 -1.0618036420248875 -0.06591382908398971
Ni -0.030775992020020352 5.955901436968105 11.18101425262471 2.723699676570109 2.233869814452469 1.4111101179727632
P 7.3826399635815845 8.991621475453579 9.995641036133229 0.07599306769686268 0.30730107805036755 0.43687439296653147
Ni 3.3786080081543965 1.892852874672141 4.55790800405531 -1.0080950967578381 0.7713178357596457 -0.33141442615880345
P 5.49604670701699 3.20389511164155 9.549736444729048 0.25373317212624047 -0.35821252018825406 -0.9761398840074803
P 6.100048850099511 7.751206277753908 7.29889091005677 -1.0244128600812552 1.3781110373389234 0.21359336668256115
P 2.2286095164526145 9.467324631102171 9.14533729445664 0.7234361815870185 0.10376303872127937 0.2229321275849838
Ni 3.782237457237286 3.1584641944432255 2.6190724384405497 0.7271007749227995 1.7870807334753869 -0.5351938920747363
