# total energy = -340868.7911807566 ev
CRYSTAL
PRIMVEC
9.23150526994839 0.00000000000000 0.00000000000000

0.00000000000000 9.23150526994839 0.00000000000000

0.00000000000000 0.00000000000000 13.51124109742179

PRIMCOORD
 96 1
Ni 0.34819761311868225 0.4679597789186974 11.5335058914907 -0.37057309863613597 0.22004683561738878 0.5770105710002063
Ni 1.3569482096252288 1.9168297803714682 10.118946626142275 0.48474242029240383 1.3051161330384362 -0.20173929555745254
Ni 5.825975360735371 3.7044461797187624 1.6716243803508997 0.40069999992850347 0.06000466268840633 0.5129281386980005
Ni 0.6930432666281713 4.893870260927496 3.981776295365967 -1.0387441891022626 0.5677594847155835 -0.5115909079438157
Ni 5.339225775734185 0.13057964382274329 12.958834631033794 1.992663828258962 -0.7612290840650762 0.504083543823177
Ni 4.7228566234714116 7.707291539849428 1.613214799410973 0.4217282813537124 0.4108262897292279 -0.1320055785067404
Ni 2.389224374482279 9.358530909985454 2.3143540962712086 1.1446507565291062 -1.877657098303063 0.961135440178848
Ni 6.075299858463519 5.0232682720595845 13.217209696651924 0.5371427882709909 0.45187677991263464 -0.510725731730043
Ni 8.426915079963553 9.68255674937593 6.004341892239163 1.9636108767570633 -2.283225482067461 1.1841341593357089
Ni 2.656633391280682 5.041620504786316 2.378667224911711 -0.42439940042797225 -1.4529404237449879 1.1200578976810904
Ni 2.9232577301204468 7.284867084445757 3.9597665402014437 0.24300575840640729 1.4765423794346442 -0.654275563430957
Ni 8.471854048230016 6.389207967940264 12.057594146366036 -2.6614928640240616 0.729713272844982 1.9370323549375865
Ni 7.906544352311081 5.24611681231275 7.128625701923935 -0.42874610743244224 -0.18533514316781632 0.48926499075310576
Ni 7.253507660616429 5.068807288176771 10.655127229935491 -0.12530194123431967 -1.2155399273405003 -0.8001800114069767
Ni 9.020353172823308 7.315515682359615 4.6274924032817975 -0.11512654336321464 -0.4012427598058509 0.31543553423204385
Ni 1.4802534271961287 8.516423756280648 6.338852875458121 -0.14937029503743307 0.6188151657408181 0.5762220136606399
Ni 4.796616351583375 6.6325042926449935 5.384337373151547 0.16782284531566583 -0.4086238827612705 1.0848512678729705
Ni 7.222018995711559 7.400380911462653 6.180419933555351 -1.6517193511225363 0.041757543552760346 -1.602204275111544
Ni 0.39312365727759085 4.191204996225345 8.879884740420648 -0.1196030910773295 0.8282939960343735 -1.620289671858345
Ni 0.2194956574934325 8.475888216087954 13.81510937606944 -0.14778366727660358 0.007512506326961255 -0.30911781954413214
Ni 3.341758795730927 7.897174374334405 8.296145267129656 1.5824453473170617 -0.06108426890583029 0.9277815473087505
Ni 5.619485048043457 4.5004788899934285 6.779319385007224 -0.4863331618182915 -0.36462922234787526 -0.9935228553706179
Ni 1.5808029839665296 6.562289462604995 8.458685305782993 -0.8678195649328216 -0.4256448427992992 0.8750808744809252
Ni 4.855088706759992 3.2287467066762767 8.739327685566188 -1.2656435288651104 1.9215903093509032 2.4845387458310886
P 9.105541504615196 6.3245505041485 0.9125656954872514 0.41872420442006597 0.8799384596835428 -0.08112061873141514
P 2.0277924752282637 3.227380443877707 3.618877509904569 -0.6097522842076015 -0.43928531640086926 -0.7569787934291543
P 2.198612251071038 1.6684653592044774 12.17516844538726 -0.5029491731084177 -0.06619870731426018 0.9737132768438587
P 4.146367574518235 5.556876978449548 0.9416135503654871 3.00863807065456 -1.936051736191872 -1.386292287598135
P 6.277423669103248 6.682760608019403 3.88923783897799 3.0656427701743785 1.2215159424182769 -0.537684519707074
P 5.375477897423255 3.8931473815130855 10.984234089895784 0.6275386616567451 -0.4280485671447854 -0.05087364692141561
P 6.208168915624406 7.150954867175152 12.426166615043655 0.6555315473252452 0.03214136061923497 -0.16620176477247506
P 8.667220396920063 4.029718272337664 5.553430857485318 2.6094370238690865 0.0836968640990236 1.5082700495552281
Ni 4.761979743338558 8.879692725108416 3.652426646813767 0.37726850837844056 0.3468868107627897 0.7434661036547002
Ni 4.00372235314326 2.4767205826231034 2.7303654248764575 -1.0523424966119874 1.1127670204466318 1.0915435922914813
Ni 4.737857819739489 5.605000816077541 3.126446856482844 0.5353504722572587 -1.4244145483911532 -0.47734072851169407
Ni 0.7305693360618548 1.5405813149572902 7.848936989190044 -0.6482123879560127 -1.9731414419553177 -0.13929851262372786
Ni 7.049436002338198 4.337718218361136 4.466883595557252 -2.518929307495817 0.9648671393071383 -1.87442830695312
Ni 7.386635199928396 2.2779016509150494 5.831803210091702 -1.931470287468777 2.0754394660952964 0.8978240817147118
Ni 7.212649017734883 7.473660601294037 1.0142931923461487 -0.6388268329760547 0.1921010011367401 -1.527476704390666
Ni 5.361519861264897 8.287694747090397 10.542389316591096 0.28310956840582857 -0.706307492326532 0.9306606686287584
Ni 0.7209953418159326 4.406788341732063 1.406276758707366 -1.7388314115506955 -1.0974345038546196 -0.13257790607044265
Ni 7.748140951225578 8.09189451764675 10.313751699304262 0.7980526806513288 -0.30731007691143203 0.51827371928063
Ni 1.1927381916458044 5.645951774013044 12.797482687124889 1.9226724866714886 -0.3670239478322969 1.083132485409651
Ni 1.2620944916839996 3.0804702670099 6.416664311288274 -0.17942803365476198 1.201101383317667 -1.8290794465046756
Ni 1.4438074438937472 8.889625824914232 9.304300431538179 -1.341112091517071 -0.12837775194616602 -0.2490249680172937
Ni 2.588707974578826 6.784824131674704 0.9684172262820184 -2.1500076284201746 2.525664312226805 -1.4552163642633584
Ni 2.9942480066136876 5.107570379333483 4.721759920630398 0.1862892795509695 -2.448607064931486 1.2353988710479564
Ni 4.71330201538682 8.721926297895218 6.6341816571754 0.8855573485322168 -0.22131696057906403 -2.1449757224232218
Ni 3.2725409682736677 0.08900740557410704 10.98586898950137 -0.9821871186428245 -0.09866814069687524 -0.16975734333421733
Ni 4.79094820727039 1.57581797105283 5.286826827957424 -0.9342954371678683 -1.544652187728688 0.7876937060145079
Ni 0.7462028904495406 0.2641696815550374 4.175784689612301 1.2637427122979719 -0.167219407403712 0.8423101078078075
Ni 0.9119564161311327 5.6036899423113455 6.357768230013993 -0.12912182920104215 0.01710117845666087 -0.0003193310126317081
Ni 0.4253720750765297 4.066727377469186 11.25041900907871 0.24400360354330236 -0.23529296314318188 -1.0097794264387963
Ni 4.0545510218522045 1.9336680462132982 13.449184503139318 -0.6104662795554906 1.3221648609906067 0.003044957473910885
Ni 2.2941491004115524 4.890925410706255 9.952609669319674 0.6436579358161109 0.891236401194865 -0.4137740595036422
Ni 6.27932535921477 1.9077644420728515 3.617648796536396 0.5719917776293761 -0.11808973975659662 -0.9911145030394414
P 9.275262731315879 6.228801330183885 10.099396144015177 0.17352195258297212 -0.4075185655122337 -1.5728569322976782
P 8.570068034135295 4.15103871624848 13.002677819609781 -1.363351876751878 -0.7282233185630168 0.9597987236452954
P 2.93989290284357 0.37487389426075235 4.785329913086542 -0.46233731312432635 -0.4212701107703713 -0.0018563364824484162
P 5.622845316007506 6.548368352468219 7.447166180808264 -0.2987788995119693 -0.20800790217498372 0.7192141730858711
P 6.973072989704637 3.6128234886660424 8.228710966514855 0.41335239858519135 -0.9516565541541353 0.40936847423677886
P 2.6698806015235688 6.828987653487925 6.028283801483015 0.027462209976010767 0.16043246638886566 0.972908778664692
P 8.329171900833458 0.2250641015481429 8.68822761059861 0.49806202021944546 -0.3201591649599583 -0.5028794962127469
P 3.3146735588998255 6.721588319713886 10.498936620693348 -0.8018476289173868 1.7554489655027188 0.2551835314195218
Ni 9.229603705628547 2.076867157912018 0.28026204176089153 -0.8458515453021626 -0.24571364425587355 -0.4443223646041445
Ni 3.156833279643462 1.0215122295656176 7.439816056212175 -0.5796120131787953 -0.7518126758471827 1.078194424678085
Ni 3.2379874435774125 3.1884973431508503 10.950010129942157 0.8911803511459492 -1.9000082123047537 0.6750395354511859
Ni 5.192620238544436 6.033508833537003 9.759913071990074 0.024383056830054782 -0.8485216359351581 -1.3495010869117143
Ni -0.1627357465677247 2.4220793021857183 4.071558224242777 0.4199997286983799 0.6033278687384963 -0.5469014103196517
Ni 3.621538029759621 3.069946350858756 6.558613477156411 0.4679166069843167 1.139734035953779 -0.5873934568964271
Ni 6.674092224452803 2.3849778820002387 -0.2889922764136429 -1.5486690221975652 0.4623645668178359 1.573442115377187
Ni 8.34791185678681 2.3718414498221008 9.36150714732504 -1.4265002272755885 -0.7121323265384252 -0.515144429623029
Ni 5.303656785444399 1.6001522192760007 10.941740547408653 0.793154214908447 1.5324535887799673 1.4592090303625191
Ni 8.776706050913539 7.321811569039509 7.792216773737539 0.24100158349218495 1.5497730538950212 1.1702167779236687
Ni 7.757400151137505 5.626371751068679 2.4415217756996865 -0.27830983302434004 -0.4182956015230796 1.0589510030674407
Ni 7.279014310024858 8.610418944220074 3.1943279619587996 -0.46500868930890243 -1.5645191018559441 1.8655510590681483
Ni 1.1322718313037068 7.575742587960131 11.528615039932037 2.3093347775600033 0.10372884304923427 -1.1252913781658878
Ni 3.28148629700214 5.242193422519561 7.345750708831742 0.33022143429196676 0.27983115476487286 0.860864473771227
Ni 2.630102044773325 -0.2069241934455137 -0.10601183851306024 -1.2535086932747896 1.9255150983266063 0.4087655505454573
Ni 1.0959735520876568 7.086897451234112 2.6740237011451766 -1.9178305851981552 -0.05328431324543727 -0.7592899580608342
Ni 1.8860519413820707 2.0968164410722125 1.5115833102081915 0.3440989636050074 1.6086415460964554 0.29025697808388723
Ni 3.9302118756769815 5.135643387241928 11.976824013056548 0.15790815730511515 1.4514540690074489 0.10221600594913365
Ni 4.011929161440073 7.509423453197134 12.684569375177976 0.47683833495397876 -2.189793650068861 -1.6743638279949293
Ni 6.3408164166557945 8.406171887339324 8.247396456586372 0.5085647195229821 0.5297405822696489 1.2942547648439
Ni 6.988268047586025 0.7578798216246122 1.4710228449509282 -0.16999234216315887 0.15607753185427958 -1.7973414919714465
Ni 2.7626941567723393 3.9408373383874786 13.581499669976463 -0.1622144979899529 -0.39206366440974416 0.2877604369142786
Ni 5.645536356270235 1.5759841381499533 7.612381509725284 1.3546916299737184 -1.1111086589076025 -1.2030147982902957
Ni 7.993071252385353 2.394126303847417 11.544868951482316 0.6069497817617998 -0.10739729303975695 -1.1162074135867486
P 7.74737473627773 2.6485650555648053 2.232840826777363 0.7396873533385584 1.1845223959130633 -0.7702150896137703
P 6.53523192029008 0.10394952020765193 5.174346473613569 -1.0628341401719308 0.7090513736202563 0.3956691223728153
P 4.633172548551796 0.6388330974927668 9.272143405642659 -0.6799297736639516 -0.7642146490559613 -2.2419770169406354
P -0.06710565902271372 9.046746046749728 2.3446999008080853 0.8421224172770335 0.16961027623339175 -1.0219535999074851
P 2.3791989596225056 2.9884506212251627 8.417516484320151 0.16989361180176546 0.8946585395025367 0.412380007369593
P 7.623635637953231 0.37613491789781045 12.490142793737213 -0.2970770863295142 0.5376775777285385 0.541617279102577
P 4.7037104812806465 0.8481630212444105 1.6943772716997803 0.6307995917962039 -1.9974339959540957 -0.7405178196596537
P 4.9094899680570885 3.6098694069394055 4.661621278729849 -0.02262287960583846 0.97720714892973 -0.2557563732038563
