# total energy = -381164.16065521055 ev
CRYSTAL
PRIMVEC
9.34951478850621 0.00000000000000 0.00000000000000
0.00000000000000 9.34951478850621 0.00000000000000
0.00000000000000 0.00000000000000 13.68395995642123
PRIMCOORD
 96 1
Ni 8.415909433276566 6.216482880823685 12.356587707311261 -0.19302788382638367 0.5156887321622733 -0.4396043903031848
Ni 8.532058452644128 4.181140308882815 6.508857160309691 0.8487057269215061 -0.579241517213254 0.8263679826562542
Ni 8.911143869956948 3.2123249112409002 10.209629695612533 -0.8351799245209293 -1.2677443772581976 1.0384667670711598
Ni 3.6025642994227143 2.299120426196446 3.399396543199343 0.06518209312428774 -1.1812995181003914 -0.2367420368848826
Ni 7.082173132878849 4.405790444708605 3.8773633614405445 0.014548073017503979 0.6265349029825791 0.6218842915844451
Ni 6.217875958492989 5.02096980366754 12.915879408041786 0.01538753819966382 -0.5115780524280094 1.30098102782414
Ni 7.0727301231741695 2.8928800473005083 8.499052796347632 0.08768130266806835 0.22210140415357232 1.6387375941508873
Ni 8.085843520797049 0.46096379106404217 11.150059967053053 -1.7668574644499766 -1.0427386549736364 -2.635740437650306
Ni 6.985555249425224 5.1678413278762685 8.462680379858408 2.0835577243270564 -2.0563325700625166 1.051933176988711
Ni 5.345136172460273 0.41106636681364034 12.373556141284551 -0.7673861048054074 -0.3930681944148585 -2.1977578992212603
Ni 3.0938104646898887 2.0422051156272407 10.937164975882405 0.7534486687887088 -0.9848716074535231 0.2682694180692025
Ni 6.256797987602477 5.498505609287568 10.642617869212867 -0.12616788877904078 0.20547150890637517 0.1219350816446158
Ni 6.875558210637543 8.094276782929347 13.114816508927168 -0.3372770555871675 0.40520380133612793 -0.797273379283143
Ni 5.775082948974537 6.58485375445179 4.107733530273585 1.4945318740335294 -0.01517079420316742 1.3993920582048867
Ni 8.204040083853052 7.661123122921315 3.2130345393959354 -0.03737535532466466 0.8662445071362178 0.5879495865102132
Ni 1.1856773878399838 3.30540867819119 0.6288446094384993 -0.3794817139796755 -1.7716520576251424 0.34271288189075816
Ni 3.5836782800133546 6.51815431758725 3.588208119817233 -0.4577322102521472 0.10391113426336943 -1.4306317329454585
Ni -0.1647636902204569 3.5243275615922576 4.082718904070742 1.761508541433237 1.9138291773482459 0.6580699974763827
Ni 0.5096111852178937 8.731090918578014 12.109510890912585 -1.3412275340490127 -0.7866938039950838 0.697935723323069
Ni 8.554085908945341 3.840602940097119 13.19347210500987 -4.056749817014652 -1.2777122871041864 2.509051386260472
Ni 2.2333933388460507 0.17279211837234654 5.141213910411983 1.209117311643608 0.7379778268466193 -0.6110838585348315
Ni 2.604036144512014 8.437871442975865 11.333944349498303 0.3009949333266816 -0.6932416602815094 -2.9556738597527032
Ni 5.287991939475121 0.691160993877739 0.9195182122262071 0.6544087465747117 0.3674363527793672 0.4132804076966753
Ni 3.1314142122465447 5.524946036460671 8.751453226336253 -0.13727942531117002 0.4547978102141716 -0.1833448522106649
P 5.754149385876737 7.818447404407104 6.319909080779239 3.3848326292425317 -3.766828110782997 -2.5323653783960642
Ni 2.458052824186399 3.688018862492787 7.106640812479985 -0.6445225978092513 1.6284467537478406 -0.3997044687844536
P 8.671048336079544 5.604416910212927 2.70136459107213 -1.1294555368459065 -1.1884716103687982 0.07817387739826537
Ni 1.241007815000672 6.324030346796885 3.2846153578117763 -0.7755107907950708 -1.543076358601136 0.3548739427333243
P 0.5711665191720237 1.614446125519803 3.507404005288851 0.12858241175780435 -0.47859619818535 -1.2479134585751992
P 0.6706238501972442 0.49751197842697675 7.064179992109883 2.0477116611627246 -0.40839788279339345 0.17207699260632944
P 8.621009734159301 5.4994312112289165 10.238789896570875 -0.6098564138856336 -0.6490266563271919 0.4579080737083791
Ni 8.167773316878346 1.5451194750641584 7.100716025103891 -0.16078265063943278 -0.3249241904487694 0.17822270049275113
Ni 2.0594549699887597 3.4548606684182266 9.751298727848328 0.38198699690003246 0.8733284105661928 -0.1322778583315206
Ni 0.6605011307841185 4.522986609706785 11.981182258928898 3.2288278596077165 1.0760634943780114 -2.37618191709154
Ni 2.8689826880874767 4.222119231195303 13.159918567160213 1.0012155960291853 1.5916285564782267 -0.880049274229794
Ni 5.3411813278017775 1.4707908343194014 7.695133852032913 0.6725969874479641 0.15404121815054117 0.2876347099696917
Ni 5.567411531588053 4.977653502715281 1.8411765283349897 0.8754320871727568 2.2931134306051346 -1.5513033744966185
Ni 3.0235395132637763 8.78407461758437 -0.33404319597295373 0.9520848999408056 0.5362799260500635 3.3030208979813627
Ni 4.68169461934732 8.916491792284747 4.428485456349338 -0.23884159972638863 0.06783984246210896 -0.040837602841652255
Ni 2.8909914453595724 4.524585376696389 2.0104476195243834 -0.12009725710492863 0.7639400552383359 0.0490839020108445
Ni 0.8122381423693968 8.05227876352992 1.3396059256379125 0.35552340339186517 0.29350608114880417 0.517549953740728
Ni 4.579121095119556 3.039480435587023 9.595001023061126 0.3665989444797364 -0.0710398374566454 -2.1822384634294223
Ni 6.290540385646229 5.420848541359774 6.163529100263918 0.10119116422904509 0.5972811483237843 -0.6628998147648584
Ni 0.987907106371575 6.80395027862948 9.873319242358999 -0.3481579641657294 0.6872196224571454 -0.024774635841518622
Ni 9.397571063922669 1.1310201257275496 1.2830357528466887 0.2025052271891996 0.4658764366258364 0.22397548124783362
Ni 3.875831910955766 2.24437901845298 5.805187450903347 0.5570665237781115 -0.572225233796421 -0.2625523130797671
Ni 3.09759701808632 1.5724761546640527 8.066174012067638 -0.6230633994942109 -0.28886292594983803 0.6006901740053332
Ni 8.006933617918337 6.808110812608275 0.9622782170622004 -0.2734211374734711 -1.7805262201863208 0.05789764364773255
Ni 1.189837921818778 2.094983125313298 5.5273208131586795 -0.30819299373701764 1.481356770104152 0.9255835112161672
Ni 6.442918773930261 3.181284522904725 6.259945969154522 0.34072876158119386 -2.1834810775872717 -2.5583024099768004
Ni 3.8949423187145435 2.1503229019885453 13.07453038564351 0.181347619274978 -0.43790617666515547 -0.17276424848134117
Ni 2.6470626105129416 5.896645337271811 11.15186629326587 1.5760145040900535 -1.0321243697929 0.23523871286647877
Ni 1.1064122034080275 0.8771434073900481 10.133916391761574 -0.26138194692074984 -0.16159871878282492 -0.3453832296340697
Ni 9.04001757863943 8.716271938001858 5.642978048060434 -0.35125485792349825 -1.2241865472719045 -0.2932631119000627
Ni 4.600381891226924 3.0108335229779746 1.386294596491635 -1.0122088618158955 -0.35614586746721244 0.49282622574180285
Ni 1.9987579214711544 7.379889724983919 5.41110260738338 -0.3531232785908048 -1.9511034883186722 0.6643833412889203
P 5.812798890705902 2.3133784358990566 4.184171421502873 -0.46358249838533705 0.06937324838749988 0.5103300389535211
Ni 0.06058204948852868 1.7322406594497646 12.345216827704498 0.9950338926985057 2.3676646236491483 0.6156501377492752
P 6.462870637999356 1.2919720188622659 9.873414607407502 -0.24336545573867122 -0.17681707839447613 -0.14733758087812046
Ni 4.797750143569291 3.914202318706267 7.479857539504065 -0.9420156886302615 1.2747269792236178 0.3336561710051286
P 4.428650007805578 4.3049746292179485 11.241577690314696 -2.3675795201345093 2.250076506119318 1.495892758936798
P 6.4306148127705 2.7767871250203005 0.4945612716321283 -0.07339188262858974 3.0461502086674055 1.7861379099461434
P 1.9597984943034306 1.0091679024789433 12.297213615103766 0.9995996576923173 -0.29277871606447636 1.4751020474436918
Ni 1.5239708731314991 6.89119059898034 12.986392511894978 0.49062201900163244 -0.86837620876724 -0.4128492336965277
Ni 7.7136206471705995 7.477956783194203 10.100855573329179 -0.11854148258203455 0.15009148947417375 0.26699697911468206
Ni 2.7480654162947795 4.129979765215481 4.5256689854337875 -2.540139880135161 0.9946793375725643 1.2651779020826017
Ni 7.241152278441598 1.5640802905899907 12.931355659491444 1.0034935934300846 -1.875259544605164 -0.3444702309014971
Ni 3.961679153637321 6.043769298373634 5.90594249454937 0.1487653144635825 -0.24152300321329367 0.7229458722141614
Ni 7.649324035547744 6.968585880500477 7.391637390027414 0.4490747916874653 0.49861403606817356 -1.3982258058109274
Ni 2.2534106495170603 8.447866074039531 8.037465392662497 -0.2439606661205089 -0.21548261328547405 0.6734140840326208
Ni 0.6167575570165091 6.622233113659027 7.351598093928116 1.0977980578416255 -1.461709942407502 -0.8147810491496033
Ni 0.4768392667853752 4.560973687360363 8.724892190425338 -0.31004907310914986 2.1196580695940397 -2.0790415816242582
Ni 4.295494221455033 8.765375588466192 6.998387458157573 -3.6306501460661216 2.6715764735123084 1.1503403507147156
Ni 8.439694598314889 6.1051862595122905 5.166255650207047 0.3159209585088947 0.7393204569174429 -0.9913551582953379
Ni 9.2125441707983 8.365665142036022 8.379605268243623 -1.2230848295672936 2.209492156939053 1.2163729647647568
Ni 4.825452755207872 4.362885522396946 3.7995155634157465 -0.240899767806998 -0.6969962422279351 1.4657578872246306
Ni 2.6175368435353388 1.4236038343396793 1.222772521804625 -0.634115029322682 0.5165767911941813 0.0707269342019169
Ni 0.6106588686696154 5.447148725814492 0.7824515239355954 -0.13559175319610198 0.11486300528918283 1.032932467516492
Ni 4.502436376705908 6.768253832042879 12.77782167120791 -0.6648412547619453 -0.37785034902383957 1.0199188288656436
Ni 6.659715317526415 8.863414598132799 8.212442492587305 -0.0764070153058297 0.8154716474587247 1.135118905779271
Ni 4.459942833034848 0.2465495037775434 9.965617650086324 -0.022998517777702326 1.557168317917828 -1.1976478775514277
Ni 5.386545172442476 7.767258812196093 10.95658204771872 1.7803367298833337 -0.34349218325894393 -0.057150738179379
Ni 3.6129609596124213 8.866827170946866 1.9939859292401954 -0.03440753094559235 -0.4277207514917215 1.1747979695364479
Ni 6.676731434023957 0.34985883480110863 5.827382263515168 -3.0387253769582436 -1.549126421449958 0.7736138308826741
Ni 5.996946929461718 3.043360484129045 11.378951042682845 2.374683992389775 -2.0108150452466917 0.9537656300773381
Ni 7.876414394673456 2.9406654162120116 2.265324735919707 -0.2381600002783318 -0.21827380287736603 -1.5602276735694418
Ni 0.8319226103221027 2.28522704756164 8.11129009457252 -0.5192929045737638 0.6213063075937881 0.6233845302790555
Ni 5.380271648173328 6.524128657390507 8.1181460935987 -2.5249251200679357 1.6907422693529528 0.5705259917171271
P 1.0351782519823287 5.279455832682672 5.735454096564382 1.2007550557218418 -1.1847324550413405 -0.47357740481451993
Ni 8.116014404279229 1.37597740717568 4.761689065914886 2.3809433430359253 2.6577436813942743 -1.9679136178974752
P 3.681913629485702 7.56767472490322 9.786069572493581 -0.5858865333335974 -2.138571361558775 -2.5631597380691016
Ni 5.88967994892529 8.003334054813088 2.391326273729637 0.144359472086403 0.21538542558597745 -1.7947415924547545
P 4.210778270035128 6.957768492155612 1.2810704848863683 0.7441608157288797 -1.3345262107694371 -0.21696254026511022
P 2.092767290362794 8.223412278019483 3.317074067506565 -0.03572522131575138 0.9137870328018715 0.4973503388644015
P 7.920497355819561 8.894791568993101 1.1661387723143994 -0.5319771849096516 0.5198125245226596 0.9478577492333352
Ni 6.84603244365994 0.8002838530541456 2.977136937555562 -0.6829379643626561 -0.5494804839007376 -0.683769716235332
