# total energy = -381170.92053875566 ev
CRYSTAL
PRIMVEC
9.21864752435568 0.00000000000000 0.00000000000000
0.00000000000000 9.21864752435568 0.00000000000000
0.00000000000000 0.00000000000000 13.49242248706598
PRIMCOORD
 96 1
Ni 4.358779323625866 0.7953259024638627 7.05181450580739 1.1277015302692772 1.729362809938628 -2.6364251224221564
Ni 1.5534066255085923 5.601849401447292 0.8890804688740707 -0.21667406249041396 1.1579976101496572 -0.7688058679710695
Ni 3.249333540562206 8.603090701890766 8.222227813767946 -2.4912045878870384 -0.7549756469561965 1.1333867535795126
Ni 1.9244110920505955 0.9242062812449241 4.37694190282778 0.35453944221204103 1.4336070135236987 1.2608715613977641
Ni 6.38636551791371 6.540095682755416 8.6805522308015 0.36696326979769056 -1.563522799380946 0.40783506831138794
Ni 4.727423816421198 1.6854453129053153 10.68865665743763 1.220670049478214 -0.09879900984778468 -0.42306962587295527
Ni 7.405800427295767 4.968325511530543 11.044316685302553 -0.43121873734265087 2.740773087112628 -3.5650204238814536
Ni 7.268212114135389 0.45312509987292154 10.788568358478313 -0.7691298269693915 0.02952834847642011 0.482151519636776
Ni 5.045559339849313 8.64875066270037 0.7742032155664171 1.1216938906226166 1.689111161507433 0.7582170367116297
Ni 7.675879141577816 5.158275742195173 1.1817752909401302 0.7081121496354386 -0.7373039407080464 -0.2265699814478872
Ni 6.207422352301912 3.1592304804061233 1.4685148667548258 -0.44385365249784203 1.1639782532131244 -0.11918168726919473
Ni 4.34899833868361 3.1884535928160664 6.323021425704738 1.0396713289022224 0.8549949023643275 -0.04443431905397509
Ni 7.66271491302217 3.4063731998377187 12.340020630727942 0.6297621516706251 -1.72152068818639 3.0706955021069375
Ni 2.8293964933665823 8.62526154900304 0.2139519011600629 -1.6899004901779477 0.9677848271745656 -0.6720089761549781
Ni 6.0065111498216925 7.353069763893598 11.026182683907725 -0.2316923902761171 1.0437149028439767 -0.9983066499125065
Ni 4.28852401142518 8.806914996964531 4.8932156595837775 -0.6881099954818989 -0.7870244478616253 -0.7694810396612233
Ni 0.4397506861554626 0.36506304826181113 9.555400951745453 1.7276710240585023 0.48338590626450945 0.5073295615643004
Ni 4.422839704741541 7.0545607408821285 12.895315078401543 -0.7181975588958986 -1.1822901641484347 -0.9483228617952121
Ni 6.380345741130211 5.075805722125978 6.343313512467125 -0.23714467163993994 -0.2303389615720162 0.4628487055431061
Ni 5.622075113948054 4.105589171468427 9.487129492475562 -1.864050820373538 2.64603410626683 1.6081545791577077
Ni 5.678594641451322 7.553049882981576 2.7836212994638787 0.25391237801658206 1.4656295891768822 -2.512034637258512
Ni 2.356120352037227 1.5808321016661886 10.96735572894824 -1.0425013421518499 -1.473950707448068 1.8821925242795714
Ni 0.34482535151936716 3.1206135662467385 4.852185303522524 0.3816129013900654 -0.8749088676794352 0.6824970201704956
Ni 1.9660701598677979 6.650507423239292 6.9307607587096225 0.08917768470793674 -0.07139207858974156 0.6823923762718311
P 3.9890285931367813 3.3488027465253865 2.641236524036342 1.3331977217660007 -0.06565080523059015 -1.4246474903375659
Ni 4.879651341728891 4.927947835708604 0.5434263609491345 -0.7739881835029574 0.4806289123446626 0.7428976327457399
P 0.9094085083615044 8.884932410316376 11.561291981129337 0.2197647856005957 -0.1685062445359356 0.27258192940162734
Ni 4.919190120633069 1.8770180255207796 4.432112742209416 0.3729176876089126 0.03235630484351847 -1.1076950052403631
P 2.966173565551542 8.962295299699417 2.982135653607635 0.8598933681072094 -1.0366209721116728 -1.0469370093257002
P 4.561856908256348 7.419047623678445 9.188542110960785 0.5056771135625421 -1.2016845095146467 0.5435900865582316
P 7.042465875430443 2.7972971629528853 10.178157461443018 1.1162493225682777 -1.655763696395239 0.7865413375776196
Ni 2.663635993605326 5.167116425097738 3.073249999388756 -0.4605977047254003 0.18683409631084597 0.2704201458636181
Ni 7.097261515860948 8.615766342131671 13.113366512081702 -0.31198074291422395 -0.7869408870088834 -0.04102477915179386
Ni 1.5390808473745068 1.5455339005880588 0.23163142323570593 -0.615587659942456 -1.1279995211256701 -1.0328381080304727
Ni 3.2460240461283987 3.6848501019448334 10.576642716027305 -0.6114880359517856 0.5637987002956226 -0.3352407418834291
Ni 2.64352090487394 1.7484271122695831 8.744978592220859 1.0497263991453791 -0.42707231927444506 0.08462863188467361
Ni 8.137770253308975 7.993811854762077 9.115358956330637 -0.06383483506777393 -1.073949276248486 -0.5472143135743802
Ni 1.7563367117799085 7.159173952121256 9.509257011944833 -0.3818106192231682 0.9834703562306223 -0.48214046389318255
Ni 9.251097086948214 6.712558139211318 2.4874630315516315 -0.37073379258371636 0.0793972082824052 0.47527150468749113
Ni 0.8046717672465756 2.8349184631878934 9.615819967119197 -1.2929735841386312 0.11605419738380658 0.5155537492463057
Ni 3.997251626660336 2.593721771360214 13.001324914729034 -1.5387988142717046 -0.09225169564757016 -0.20802821388995782
Ni 9.166543652555786 4.919549647883539 6.400710655207437 -0.3870343295159528 0.5977251778397384 -0.41671180197572755
Ni 7.553418628879493 2.6659683114096526 3.562984192006903 -0.12078168476646295 0.1706322897400029 0.4419916595884388
Ni 6.568332399888431 6.159088983732407 12.876655614102187 1.0218065328066595 -0.2428777174689753 0.5351684381534396
Ni 5.185553719993601 4.112466282464584 11.949482772108517 1.9287274346163168 0.8648136882269624 -1.5421229935489311
Ni 3.617351165331079 1.5002611229712675 1.4845709850148878 0.63890550873279 -1.2945473563836545 1.628315627486615
Ni 0.34830170347198214 4.272852310763696 2.8545246825801542 0.42019204721484404 0.6582229781144793 -1.0855814611707755
Ni 6.715120923201843 0.002971170072468321 4.223977807588997 -0.34067168309101326 0.03375241386009671 1.306761381951343
Ni 3.401219975914325 6.41510926065636 5.146171658096039 1.454030057264741 0.3453554617199278 -1.2396203653284714
Ni 8.403691357592008 1.0461874242759537 0.673006435071494 0.2561379249129911 0.9402976774978903 0.5187180059069002
Ni 3.4183943161098216 8.569451857353263 10.759046561891056 0.19591677533840454 0.18516750724170045 0.509821988968851
Ni 7.6801934685834485 7.074583643139036 6.80422836943355 0.2399551445055416 0.7086160858550505 -0.2881779840676715
Ni 7.070739467153249 2.615717464170978 6.269159634260709 -1.328419840761383 0.4058082676893463 -0.17463729713433793
Ni 9.076210126213505 1.73970627178384 11.599367760683528 0.2198627446310407 -1.8111740269791645 0.10885099476714803
Ni 5.003983239859143 7.295729776767464 6.772278381108507 0.3902934598831988 1.3035493027719487 -0.31605979807960405
Ni 8.330928573285483 7.431815450393829 11.41456245715959 0.9420809946505582 0.1649792052192836 -0.1395939323769596
P 3.587611808664052 3.7162303778575922 8.397036415999345 -1.262491356389374 -3.4393225327602965 0.6058652904483695
Ni 7.610085654741928 4.143348751415155 8.217154792077348 -0.5559074704730038 -1.812792279308878 0.4709145132703761
P 6.015637610795145 3.735128605125852 4.722253077067654 0.3564826819813409 0.894433310865608 -0.6419422386765847
Ni 5.5982356916477025 2.3362357294920395 8.242844396920498 -0.2286877991218384 -0.7594557942147372 -0.6021189360320598
P 7.804848019374377 8.49623735932179 2.1205092386982494 0.13283090262151317 -0.07874594785165148 -0.3738990776855754
P 9.216232162300138 3.3601601201812383 0.7750347375662205 -0.09406380915564445 -0.1847990681586882 -0.7474934796465386
P 4.251787701345172 0.5199086694447166 12.474014593248372 0.4673699904522274 0.04062908637527196 0.09288881501093679
Ni 1.0070173912696927 8.814649442173346 1.8262398716480834 0.8469542914480382 0.6542441959723895 0.5459830122704404
Ni 2.3846981591258154 4.562529869520048 5.9005197507891 -0.7596362856566594 0.22434366322052976 0.6556099659716645
Ni 0.6801011061474221 8.495020497858665 7.386440345790366 -0.9493644156858488 0.5255489127858045 0.1394635774466824
Ni 9.17882289095643 7.492464931953771 0.17517734812931823 -0.12378961835485133 0.5872358482726402 0.1393126536911149
Ni 5.0373639622681035 5.268816543743319 2.7806667229568163 0.8526410574201702 -0.19583552847850788 1.4283683908325786
Ni -0.06953994515872644 2.4796133532497175 7.232882569655937 1.826005178454726 2.205773313326569 2.2763608937371442
Ni 5.789430439717803 9.214250153098833 8.700143700357843 -0.6272288437258102 -1.8448829891958354 0.5768586188033743
Ni 2.196711500367596 2.356323162281082 6.627747504555094 -0.7551736218996156 -0.17880145581435658 -0.9146059291587411
Ni 1.977787060774119 6.963600346513389 12.201399829053397 -0.3945416936365915 -0.4273178596263479 -0.4535824497498317
Ni 2.312691303910022 3.5129315456883594 1.1323329190826392 1.2372449231177596 0.7957685126028424 -0.3478059801429494
Ni 6.3671722939271165 1.08248123927846 2.20605183396184 -0.4381262630957616 -1.6188912488489215 -0.5292556722134304
Ni 4.355903105622111 5.395139669722324 7.852886391225549 0.03994157338994412 2.515930115658177 -0.8980601089849178
Ni 8.592894877813354 7.6559207698530445 4.715614729040398 -0.9177601585170065 -0.8319547327154124 -0.1032534460747125
Ni 1.106034883507925 5.24532743004599 10.393968763793328 -1.0596470006932008 -0.5533697916528146 2.343795016120402
Ni 1.2467114435633595 2.1497978035050727 2.6135898003399958 -0.8598357753963966 -0.6095273126809889 -0.6710000752744896
Ni 7.634312260235093 1.1821071622482557 8.587724138459809 1.7219978849331248 1.4213217683984425 -0.7758712594582832
Ni 3.899958021494867 6.08678713179828 10.71255139162267 -0.6371116500571609 -0.7971170562109369 -0.2052881892509755
Ni 9.21283048139185 5.522025133195654 12.460076920171845 -0.49130773221474744 -1.0316209477939202 0.8306835793124727
Ni 3.4225334888139427 7.036187976518402 1.7518564491202138 0.25247127469468134 0.07848703776330998 0.9689677917390732
Ni 6.016163073699677 6.698905322340932 4.6363740011722125 0.2578376812129173 -0.385959094173903 2.4274430292593614
Ni 2.7802426651742116 3.0429095869081237 4.265764092740981 -0.44170086782089735 -0.160825073841594 0.6995336639378082
Ni 7.577073678230886 5.189314928152358 3.5387382273540986 -1.2115413477040684 -0.021213657963137657 1.1301515344716664
Ni 8.904743283681979 0.6147261459056711 3.5951775526245693 -0.18901696289477768 -0.13499525726268363 -0.47696534745014635
Ni 8.576024752983638 1.0024725980778624 5.910868604414149 -0.706541462714209 -3.5462927655649636 -1.558189817203807
Ni 1.5137940974248307 4.648613599388831 8.400598501373226 1.2125749311749052 -0.27562791531680275 -2.694638754648411
P 1.0008132415372348 5.790481365526866 4.59001434502131 -0.42488276782229406 0.23073645412075103 -0.1834240421880325
Ni 1.6071974333672727 8.022518722914937 4.767952678061284 0.6627825724607037 -1.5488806239877388 0.13830323858999408
P 2.343011435366269 0.19055036461348882 6.45306151033475 -0.2079351399555193 -0.06361731974032915 -1.1283255370065213
Ni 6.215276639927549 1.6328252732725224 13.101102023516974 -0.48041525367195964 -0.4979504343422456 -0.4010154742863932
P 6.358635826390332 9.095643035033746 6.401816892901188 0.28840475536649685 0.09270035314921454 0.09334801403554246
P 3.1978842691553004 4.922232274290886 12.616116356199257 -0.9672623790121921 0.18256632217342753 0.09808887115463752
P 8.770943834622702 5.769149415332352 8.436865582298134 1.1779987358619326 2.936254574685827 0.7909785474133667
Ni 1.2480204915009658 3.395725662035358 12.178125509841605 0.6859875498222573 1.8675266947372804 0.6860644258067798
