# total energy = -340891.61730983754 ev
CRYSTAL
PRIMVEC
9.09016331673223 0.00000000000000 0.00000000000000
0.00000000000000 9.09016331673223 0.00000000000000
0.00000000000000 0.00000000000000 13.30437286182967
PRIMCOORD
 96 1
Ni 6.498921293753123 1.8397581344486174 11.419183029308403 0.4722705130776383 1.1284764607620887 0.22404875768793028
Ni 4.717049318700567 0.4214417833517495 6.165884983798115 -0.5952566616945878 -0.1424447715621934 -0.6151017214449729
Ni 2.7079959844102026 1.6945518671444906 4.758189579409533 0.19389923068774348 -1.342989768155758 0.5483401996487073
Ni 3.618203117966577 4.310091801426343 5.044871511031582 -0.6091617018114541 0.8029488324013655 0.03966543691042201
Ni 5.286884380581986 4.689378861853581 2.6913282611268143 -0.1337367022652342 -0.5171689162522255 0.25552086015428255
Ni 7.57110604575774 6.263967844960725 2.4710081570887787 -1.6241872071405383 0.012485534061520432 0.14897357381964665
Ni 4.990381436615165 4.536145980424654 11.61630049172294 -0.329308178449078 -1.0289359447625892 -0.37898214863543767
Ni 5.744283213573663 8.097935545437092 12.384628357714346 -1.062238672679777 -1.031528902300746 -0.18928127229975789
Ni 1.8495027894223262 6.482413557342437 0.5644418680419592 0.3554542407168266 -0.5158237150782407 -1.222411971869985
Ni 2.6993875998392123 1.4822420149374553 0.26714898889116817 -0.023026285691844214 0.10628400537092018 1.1032801640021193
Ni 0.5076510733141182 0.13910222270072617 5.058056792784721 -0.02580873353298781 0.26409728896938384 -1.0464780674114105
Ni 8.827348422676215 2.5296469819996 1.5983870304216687 -0.2959553140202451 -0.8412559555116803 -0.7563974670043877
Ni 6.86595481415745 0.7058511741683637 4.6766462702288845 0.18046084579465052 -0.13382694798619532 0.056718535737966834
Ni 0.692748612900543 7.597685683018117 2.315492735674873 0.30127672623315854 -0.45762910901537956 1.1184859252082802
Ni 7.529518549018265 3.923887126787359 3.724107155565174 1.0051113315391658 -0.39552976858147365 0.19425018626925902
Ni 7.72822042688235 3.872609516053505 12.881041262237423 -0.14603171758250336 -0.7074200086644203 -0.5706126378936625
Ni 7.795387642927811 8.842801700153178 7.072724211880834 0.5233932998953825 -0.47469043537304056 -1.0871927715219534
Ni 7.060593389061417 0.47423654232731216 0.2190992951173555 0.546837904071568 1.5276757077753498 0.5336622859215583
Ni 1.7782813605799677 6.60595796568915 9.34328881583224 1.2615518752942403 0.6308726111259845 -0.8995680609890121
Ni 0.21700946659267673 4.81671386826376 1.4895977750164897 0.11402096900386169 0.3172288786870408 -0.6885511967843755
Ni 6.183465359468967 2.311201269617888 7.266649208971893 1.680901629113447 -0.49015999176354946 -0.09515369978571354
Ni 3.7529920582185854 4.481795894521851 0.6094563563160318 -2.396828389697298 -0.31170434932438573 0.6034643943163608
Ni 6.082200941178748 5.7447649922244155 4.860021223884789 -0.6957466860915501 -0.017358545883105585 -0.5805412098612841
Ni 4.933804260723035 2.7022055504379523 9.47010568293878 1.10848819056562 0.7467869404978171 0.3252216670845302
P 0.12286264610508184 5.631601550276934 12.406860169905764 1.206245903633084 -2.3933003219393814 -0.605340271182835
P 3.7006327180613443 6.229852462389522 12.719153636405075 0.6930637399427483 0.1772053149718303 -0.2848018685065869
P 2.5539904391074284 8.42153626596793 1.338539260630205 -0.3157841758207142 0.987308756140106 1.073077415166494
P 6.336807322856553 7.928004034169824 5.766367765120888 -0.2963759464974315 -0.6847979003895303 -0.637781679540992
P 4.743956201836927 1.297002668804771 12.553806294450531 0.28551277853068247 -0.8689315670500778 2.326015323539478
P 4.030087503706985 6.33543470821007 8.392038686313374 -1.245242339500939 -0.4556853550254475 -0.5705601873891722
P 4.558680495051356 1.0526136305882037 3.743145593416793 1.1411576557741832 -0.4995383476546558 -0.8431166628695027
P 0.14471812553911914 5.682488283992253 3.570654292186282 1.4772293781993397 -0.6187904831504698 1.2692767547423236
Ni 1.4131567744522064 0.9341688038088891 2.669629132500191 0.4636858567324208 0.3575481471313778 -0.46351539259282754
Ni 1.7706365333104817 6.597522294219372 4.919717234778299 0.23357469490049448 -1.2606170221847968 -0.48756677711507646
Ni 5.739410886086809 5.455952326343189 9.417659986230932 1.4513733363681842 0.38404490787032575 -0.3082189618789466
Ni 8.600176153601629 2.2220994897183606 10.090927470330959 0.5812742313725667 0.9877612702964925 0.18458412393440468
Ni 2.341571504941732 5.121652483700359 7.14237304248583 -0.4117058641207038 0.7868897220559739 -0.055956460760961696
Ni 0.5868063966164141 -0.010480958194669973 8.983271992418777 0.5868836071395441 0.05072760826185457 0.4671571031104729
Ni 1.4922957354607034 0.9129796333390056 11.31144459677166 -0.7064489030004026 1.5514992925575088 0.3742330639862264
Ni 4.087437343472963 6.689860172225839 1.8599646582742304 0.2111392487151138 0.9116409329931461 -1.2094237871404332
Ni 5.7359657142257685 7.730483877524565 7.976969107380065 -0.0031776263970332373 0.4858035145670665 1.0661652614276929
Ni 5.317181894600056 2.764273184916015 4.91978450198614 0.6917285660710927 -0.28994973125611356 -0.24669606277380093
Ni 0.7828503107544622 7.52594611487212 6.853681275775453 -0.8002831126437443 -0.22706980390244122 1.5649171086253113
Ni 5.1350150236363215 4.72093081839625 7.209373908544333 1.038763215265656 0.5854828701372755 -0.3063186595324402
Ni 8.332670830312168 7.156340078276039 9.04320798362134 -1.744758318558092 0.7116368749592454 0.8690596079875096
Ni 4.580905944128517 0.492502316305083 10.663387771350818 -0.7208640499844682 -1.430922267602684 -1.871710136691009
Ni 8.308372824020449 7.258931660396633 4.683272090201213 -0.5939525981711835 0.410536526402951 0.3025159979568984
Ni 7.321062926017248 6.208935996816291 6.813674558420239 0.5825726384690161 -0.3796817458056235 0.9861602443579596
Ni 2.19571074588564 5.341143564852572 2.8780020350158897 1.3136681363735052 0.6354664011442539 -1.5484677048200364
Ni 2.271959034989622 5.16953037338928 11.377686434201147 -0.9576492814024604 -0.22286502179247422 0.8524338265053707
Ni 1.2721683428829684 3.59251431670193 3.9325464162723915 -1.3917777361927384 -1.360686928325205 0.15238748459720208
Ni 3.590214505406829 2.9959541749485856 2.9529849733994054 0.2411352808565718 -0.39286404882385245 -1.131460225980761
Ni 0.8752809084257919 3.31244638784002 8.194535800978235 0.3717753464743533 0.0506576742558676 -0.40767334592254306
Ni 3.909133791878469 2.899453002186559 7.003541706649113 -1.9960792816984139 -1.5600176144411648 0.4695613416765913
Ni 4.224271570449865 6.865654838771133 6.253986845743251 -0.5840322537336781 0.28382202109182086 -1.3636264705695031
Ni 0.7587313806782108 7.492139797850457 11.64014217182093 0.502089910431916 -0.06520934681779737 -1.206453905878832
P 0.1682043802551372 5.659981039855216 7.892074255019561 0.9878954818815116 -0.5617225344928842 -0.8864983722892474
P 8.557179681562783 1.5318833962913951 7.907081205482337 0.11023836203297789 1.0732327097974355 0.7902421834679745
P 1.6997059896912192 3.144896499336849 10.290639265328979 -0.5325765090565472 0.3944185377951659 0.4070395689932861
P 4.017406726012653 6.053785090947577 3.92333989896141 0.12456583439924356 1.1008047058784332 0.4613471812969151
P 6.794742475478314 3.8018789560251207 10.447658199739763 0.19244578607066856 -0.46832412683538055 -0.08802634471231292
P 6.540517880655821 7.624338041584268 10.43547101790837 -0.0766093611246229 -0.3227276970180829 -0.9991864814142986
P 2.4214376790079686 8.39896539068834 5.854842323758115 1.0950282084059721 1.8105271374237852 -0.09541440964626793
P 7.044831046034914 4.329390217946103 1.5578221770446397 0.19346985645980871 -1.592613288988999 0.09479605933597868
Ni 5.409301608689203 3.0324148196309975 0.38643374675217185 1.1364851899991781 -1.1243596103802378 0.12380015987781261
Ni 1.594241915992554 1.2096825608967054 7.005896058923543 0.10784749320329813 -0.06592642748948001 -0.49705646177306656
Ni 7.056666438549624 0.4915078524486243 9.213052229321681 -1.6467039001858157 -0.00496531442507532 0.01121926575458713
Ni 2.7480290632387603 1.6321751671168885 9.066610608835719 0.11257446636532226 -0.4176795652056355 0.6989649359185317
Ni 6.433981167696989 1.9253329310181084 2.526380886354028 -0.44610311065365105 0.4527293577209171 0.1895592085514929
Ni 4.157277067505617 6.641855020251814 10.627958860194072 -0.27160131065591286 1.9606332821859784 0.2560242821532623
Ni 8.218662003185065 6.994080664767921 0.2644646636917874 -0.6722020660023907 1.5788977391751196 0.4276541599198441
Ni 7.671243283808464 4.136506044543934 8.467501585314997 -1.0815921375057242 -0.5068526219278819 -1.260213358988475
Ni 3.071211636261398 8.425008708318636 12.490863277254213 0.8079038624137956 -0.610823148674277 -0.5590493585360953
Ni 0.15626717791234396 5.079565027983688 9.963737906532327 0.03425095076307005 -1.3545913569504284 2.1128824414331033
Ni 8.570933098517282 2.2821127473083096 5.8580884210446 -0.2122237400285442 0.20194395536909088 -0.10513626491972215
Ni 3.4092838966412513 2.652927775612882 11.578821748759694 -0.2897944366251719 1.0867338296076638 -0.5033903744108943
Ni 1.029697329106189 3.2847395703401467 12.68277934827327 0.627510379521971 0.3913864358370614 -0.3208371648635894
Ni 3.196874052638777 8.472968409476554 8.079546145239506 0.06727060022220027 -0.3965648947142074 -0.24372746706378023
Ni 5.799424143676758 7.837320565869713 3.4372379665807564 -0.6849521665792075 0.5488968434831257 0.4618053518802563
Ni 3.126198033589723 8.154739975409765 3.590823546342686 0.3569297968210885 1.072271631435747 0.3633737526742194
Ni 3.35629733522171 4.462933805836734 9.34912924570221 -0.11260069161756736 -0.5285074811934963 -0.27629974457284673
Ni 7.173838642477894 5.7001595612953215 11.462741273434354 0.3936340942206576 1.3186478489762838 -0.2953984130755106
Ni 0.6686814967546556 9.021986997580182 0.19660568622515182 -0.5238704966421172 0.5117076360273382 0.5357556781154773
Ni 4.796624607543707 0.26063225087750047 1.3058746681091926 -0.7293756869999051 0.04868023881452262 0.34638878808044865
Ni 5.784379923544773 5.616802764551935 0.26972332311556585 1.0850029629594862 1.669942558998782 0.3922629249047438
Ni 8.088309062585266 9.12679657952688 11.254714706137404 0.7295302102998984 -1.1099712028690498 0.4962059408473132
Ni -0.062021274645632056 4.645146127616577 5.816990884102776 0.7901773916683101 1.0175554708397896 0.12159363914479705
Ni 7.860627744370262 8.897479031931963 2.3686838257669036 0.27067674195911445 0.6128224384924928 0.858936917731211
P 8.747727683016965 1.8281681763408948 3.6443473364086327 -1.0719098772209539 -1.147571786830643 0.557765349617349
P 2.067003124828977 3.287775684856209 1.4294618002230473 -0.8952879455564193 0.08002327190217831 0.5761189124238724
P 4.901670533734173 0.8380166933145777 8.363581021331385 0.10608757308939794 0.3597078737868579 -0.35110624816077596
P 8.596703711250923 1.7338850034049738 12.576290813179513 -0.04640147008267493 -0.4441151336893448 -0.023850067144720218
P 6.305691694148527 7.71408522307254 1.283516502648993 -0.18610853099873112 -0.28903904651638607 -0.37084152180617425
P 1.8912993599159016 3.262568662242315 6.054700470384008 -0.3966029470409944 -0.2636288339733976 0.3847180226779503
P 6.940448701759636 3.9733739753665294 5.956886678052761 -0.5507603790544257 0.4554375006806995 0.4847840721636167
P 2.4574983565086237 8.513528717771973 10.19592612767267 -0.01337179332121568 -0.31251064727576505 0.29257765579726386
