# total energy = -340897.6364041379 ev
CRYSTAL
PRIMVEC
9.02191636195055 0.00000000000000 0.00000000000000

0.00000000000000 9.02191636195055 0.00000000000000

0.00000000000000 0.00000000000000 13.20448654500271

PRIMCOORD
 96 1
Ni 6.506380484433403 1.8745557240539445 11.351553716986444 -0.5771848917945415 -0.11181804781527195 0.08103474388582818
Ni 4.685063088439418 0.4778024913948624 6.0272138792946555 -0.2327051478113476 -0.8414048223847187 0.11897959856071769
Ni 2.933169338339585 1.607831790692709 4.829831463892482 -0.43961107517140413 -0.06776888001485748 -0.0745445081757942
Ni 3.424295395719695 4.247067096123721 4.758593510631298 0.2252756881164959 0.470304390490203 -0.02561101569988492
Ni 5.041067905461281 4.534153494563982 2.733447568538779 -0.06421021612932168 -0.16128504419714804 0.35789987404384166
Ni 7.182248321797211 5.977515751189064 2.498407703015838 0.06718241138376817 -0.34408070877256225 0.11218854378081322
Ni 4.984202767050516 4.532213782560442 11.387324712906617 0.18363718664010306 0.0979106937055604 0.13552516162422465
Ni 5.675380796367849 7.796343098285481 12.430214931472396 -1.11186790567113 0.09842388589655308 -0.09822102585712761
Ni 1.8034991113103007 6.4292160343576805 0.4507493731910672 0.2422251714866409 0.7414285043993812 -0.3484580119046515
Ni 2.7608146494296593 1.6335442521349877 0.3478075038757387 -0.04576306516772764 -0.20844447549177006 0.5445123412621848
Ni 0.5097671408299477 -0.05627149631851911 4.905110333462438 0.4432746400659205 0.13364311411016339 -0.21991442380458254
Ni 8.696865673324439 2.0792088733018907 1.5020236585702886 0.2912309119613823 0.7937597097029297 -0.6763603111451384
Ni 6.771209815372576 0.709165926027373 4.84121351349093 0.4517513100783639 -0.3342179570458696 -0.5769874310717548
Ni 0.8517699437611382 7.488407051286235 2.56948777274185 -0.09383780918776743 0.26546845828529764 -0.282442624245791
Ni 7.728308827500841 3.909872974578051 3.9638285449835062 -0.16820413991448452 -0.059188080324381935 -1.2328987303339218
Ni 7.525108206776476 3.7156311167351546 12.610007288176362 1.212130387438319 0.3748491003036706 0.5430699523887035
Ni 8.098081088789693 8.717354445231601 6.973897089059725 -1.549684350835957 0.31002644740133056 -0.25105536818376123
Ni 6.828625290677369 0.6319229852798798 0.3217260460569728 0.33717961077735475 0.4679533737595231 0.24410670478006988
Ni 1.8452705837586338 6.520562936849986 9.13861388062745 -0.24464715066457218 -0.8517108322964171 -0.5396570700524125
Ni 0.055078798984249215 4.829016784850996 1.4217267991567564 -0.3049480044371587 -0.8956517566537414 -0.3217411647350975
Ni 6.422783408038963 1.9786235285229563 6.916879480263565 0.13860894275587096 -0.09173901767720975 0.7995382640579198
Ni 3.4626024523105428 4.496126117378297 0.7231228305365677 -0.18372871791264486 -0.7455453547812322 -0.5920646371198514
Ni 5.995767087854934 5.793089738275711 4.926250487726138 -0.0662537289219117 -1.418151855310893 -0.9715576639534365
Ni 5.215515678951771 2.856410874497162 9.487436350086437 0.14750495969392016 0.1636106070065311 -0.687392400589584
P 0.1209586361575145 5.492290027066234 12.491364577931913 0.3425102789616488 -0.3784072499685741 -0.4275058072674379
P 4.046158042138423 6.148255517082089 12.602137470591765 -0.9445996473073538 0.026170230637464608 -0.6836486172764356
P 2.52178799909572 8.572354206529742 1.4177129485968722 -0.7742008137343956 -0.506019070282993 -0.38571278249105184
P 6.402042022475525 7.833125451022383 5.7938385573282405 -0.5618089235591034 -0.7035857225199947 0.8461533928132976
P 4.729315587869023 1.0368798179296934 12.57324568584694 0.39846596839166215 -0.5469690303327935 0.04361979357247972
P 4.0132009819108285 6.196757339086893 8.074160379923708 0.13605969397145598 0.46736022026021445 0.3154892702881147
P 4.817586016904551 1.0673558511760148 3.5998600824475733 -0.2478564016304893 -0.17368033253770734 1.5186151402349781
P 0.17033829061787342 5.607923928226123 3.5001399394413806 0.42876873314026154 -0.3529391876044567 0.49767866873809774
Ni 1.5841492604169263 1.0239423899618942 2.769297957322352 -0.9471208710673107 0.6861197045247474 -0.37497816968236714
Ni 1.7481045452557076 6.5947681983807716 4.83096732315409 1.0888940704837764 0.31286803061518376 -0.38531991792800735
Ni 5.885086218741294 5.595798472724923 9.257758209417931 0.31685118363264786 -0.2218872312602372 -0.33124139091604893
Ni 8.641173384032093 2.47762571882907 10.198154947908272 0.584659860015348 -0.5959094647872382 -0.40892033095576674
Ni 2.543215050297619 5.136709240110261 6.964389793667489 -1.378356063470194 0.13066269132560077 -0.44703924931467526
Ni 0.481227210820648 0.01985633557484588 8.972607012023062 -0.483916839067315 -0.1541276072167604 1.0043518276653218
Ni 1.493271497571989 0.9660758188423243 11.365986076484415 -0.46526939916945675 0.4479378498695447 -0.43839957136180624
Ni 4.139300305973539 6.921848751759145 1.4932823238715436 -0.47439270162696356 -0.5226060281073968 0.17433133585814492
Ni 5.50626497540802 7.838412293971567 7.996875036169627 0.6668482578896452 0.33802653215868234 0.022090918361768404
Ni 5.419510228310143 2.8865621187568444 4.841993007058865 -0.6491989202389981 0.15918933801038393 -0.21738317274229657
Ni 1.0206854781792056 7.5514341585268525 7.067041157278101 0.4138259957875002 -1.0061307739426157 -0.4232526884180388
Ni 5.008841620453625 4.49618024887607 7.037898563260259 0.5838633322559815 -0.10616830572866232 -0.20435513591374482
Ni 7.992768259871898 7.104019285598615 9.208504861785709 0.1081629675611879 0.08769647217671994 -0.15295492706489788
Ni 4.467454467391082 0.17122063403157686 10.542211138988325 0.07716986161378322 0.7273684267618893 -1.2736643422870582
Ni 8.048244023173151 7.217118028279459 4.431307257561386 -0.07259638331048787 0.07893569526495438 0.7372170374211948
Ni 7.084071828669185 5.935365358256318 7.029513594255188 0.8645735471916981 0.9381585196677005 0.5087318412284658
Ni 2.3001646252958703 5.334550842555077 2.6296865092238164 -0.24145409764857126 0.08952426941407808 0.22558473471648244
Ni 2.3297204230800475 5.274491945775693 11.441053833213054 -0.1600066917053567 -0.6139205566526782 0.23491758208163413
Ni 1.2401435920681265 3.454013587997192 3.7574287527407444 -0.8364824453824368 -0.5602747463027641 0.24136333770697788
Ni 3.537881321880498 2.6300149069769736 2.63206378416769 0.13088560596968427 0.4134709264409266 -0.33907040004216443
Ni 1.1125015203188788 3.441743781835263 8.205426555448874 -0.5716624193144155 0.21416235181215373 -0.6865058842195725
Ni 3.6045623052208065 2.634282273384762 7.146228320987282 0.3876398243104356 0.017737269378763 0.05763487690464913
Ni 4.157317072815726 6.9171393114528765 5.984947103641697 -0.33748814315670905 0.6810633730477624 -0.34489034915805117
Ni 0.669467689943754 7.195050421020577 11.26861614267321 -0.16918218755703768 0.6164649203410866 0.1697102921463658
P 0.18366546536963965 5.657057284371614 7.912246754742607 -0.31634416208924226 -0.21631616493036296 0.3812238934817628
P 8.517636284197314 1.724205488988832 7.973805996201939 -0.7205784004232493 0.2127816694145432 0.18036571497768292
P 1.878868200043211 3.268829734115014 10.238626362218417 -0.5161289050234853 -0.1809311005628497 0.7525778361479813
P 3.981227310559448 6.171649346036415 3.767834630996016 -0.222920557620758 0.19343026147112494 0.4316982480822307
P 6.98122198290007 3.9519241264315457 10.479027952595796 -0.9095963917592915 0.47511363895338815 -0.936678078467432
P 6.066372604783801 7.701261122446823 10.237068277274178 1.3145505389784586 -0.4489086984232462 -0.4394395825905464
P 2.515102759120728 8.559272427901215 5.77106002306527 0.1587234541175589 0.2393673903228716 -0.026436082704341567
P 6.688451777193621 3.811579196538183 1.5102760054058157 1.795037012207986 -0.1777071943089133 1.1908897328919876
Ni 5.2592268634036445 2.9804441797281953 0.15044767176110452 -0.5217596209467014 -0.6303895008419788 0.17624835037519967
Ni 1.3135368811323145 1.0982649364045223 6.972008801979069 0.8848803770698502 0.8350997061022973 -0.6998586513773947
Ni 6.914351539317556 0.6767276259867723 9.086957996685726 -0.7197983277241151 -0.07651114498386179 0.3273117168443395
Ni 2.6103832171178865 1.4815790940529738 9.099555298409184 0.1770621045257467 0.9795967322078291 1.2170764185896845
Ni 6.589418202017519 1.9724435158605136 2.73383009778971 -0.5332393394515269 0.5124902798296336 -0.9847484516120976
Ni 3.961126481052993 6.6895704948142685 10.28385232641631 0.37312646118560905 1.4047960028292774 0.7267930138743935
Ni 8.183834403178766 7.23809398366658 0.2684750873141992 -0.5187298329814422 -0.4051611210236506 0.24215369481875715
Ni 7.474765913847385 3.79689151680905 8.215448100069954 0.6765109777903897 -0.07290800101363573 0.49863769021725735
Ni 3.0348192692413924 8.371345911465193 12.346538462214555 0.23409919994539682 -0.9364281672401549 0.5014828729755364
Ni 9.129908633593887 4.897195406296364 10.166833561105056 -0.09965184476638322 0.024564319602925436 -0.015521749784682947
Ni 8.582530928111106 2.4289434584983556 5.757182511419476 1.04530127349449 0.10626163677341699 0.3643571996334112
Ni 3.596595953131848 2.5492867999645146 11.387060370759157 -0.19504260026356732 0.19309473250857712 -0.24826417859186922
Ni 1.0790121670298478 3.2339780714653568 12.346379676487755 -0.19147622306854764 0.8184453853750678 0.7389458471868435
Ni 3.1668820799754536 8.60494136818922 7.965752131524915 0.2382037090320736 -1.3260012040175615 -0.34380045852798213
Ni 5.605839865561854 7.6686829827036425 3.475090588846824 -0.03876040859764938 1.1379764298327242 0.2777089662155475
Ni 3.1481796474948065 8.388036456611935 3.553445931873557 0.6991922214379894 -0.6232960843303073 0.7630879916506859
Ni 3.39770780839675 4.487916173549358 9.277537858704264 0.41327346571813983 -0.7636459210366848 -0.06490595664476564
Ni 7.1530804664137415 6.021569768460168 11.43269502776524 0.3759161081156042 -0.21575849265468003 -0.06610306227666035
Ni 0.6993726358885684 -0.055331412640524234 0.2980994516622223 -0.11204816154820703 0.54040371841045 0.08281163328059286
Ni 4.629442974477437 0.24728892127739133 1.6134957497430467 0.303554980744374 0.7759633049514572 -0.7913924950223338
Ni 5.908326675118595 5.4648994891929865 0.43434482279089354 0.07081203771655546 1.067750860747258 -0.7344924394011803
Ni 7.8376003215049685 8.785749592668061 11.23544706741267 0.43201089422664307 -0.12577476710568014 0.2573926232556986
Ni 0.14807129900886024 5.101532788473965 5.742842175467722 -0.28760874182776275 -1.020224018810888 0.4940606123695363
Ni 7.78059985434977 8.770114611727898 2.529371821933748 0.45860252867224244 0.10112380132621938 -0.250347286373143
P 8.557693592549494 1.4897529502167297 3.747077005983246 0.2793452162673899 0.7651803554033403 -0.8455268149728923
P 1.676515639450627 3.2772562039350444 1.4741757095408567 0.7755694119471482 -0.39983636637662756 0.21061757188368888
P 4.827365774168912 1.1413084990505262 8.237051078639617 -0.27515688921765513 -0.8809100795681926 0.1359463083220433
P 8.595441290330019 1.6352854819800262 12.327207202168111 -0.92558531098838 -1.2502477631353306 0.669159422521325
P 6.27938907043771 7.628084359373728 1.3289526295064975 0.5993537145820969 0.1716566172394592 0.3631012157391231
P 1.893050652459794 3.225019308583889 6.002495633028145 -1.1331926352908355 -0.2494736255189381 -0.5689699600839168
P 6.972858666494108 3.944733659144003 5.994638446126363 -0.6173956596854722 0.9819534053654636 0.06769303247159955
P 2.1692927075128208 8.369577615871268 10.08670902029277 1.67894759071087 0.6867169717891141 0.8545467590833155
