# total energy = -340865.69713253144 ev
CRYSTAL
PRIMVEC
9.29075875459815 0.00000000000000 0.00000000000000

0.00000000000000 9.29075875459815 0.00000000000000

0.00000000000000 0.00000000000000 13.59796456164313

PRIMCOORD
 96 1
Ni 5.521321522709314 0.6847484455987559 5.135461438081749 -1.328027233308655 -0.3551194830852271 1.7943968075208256
Ni 3.095132729124613 3.7817755604743524 12.898880011056153 -2.1167416672781934 1.84236433653904 -0.419242024596749
Ni 6.513621032929175 3.6478121070980105 1.3107690747652214 -1.2844069255155426 -1.3585518842600732 -1.2501189508669504
Ni 2.155409623832745 5.359225651216352 8.970767564428803 -0.6896544571508832 0.44563131322355504 -1.6137948081626208
Ni 6.603750685554453 4.626779378217028 9.042822974582457 0.1506674165823018 -1.6226558580976762 0.6838306513802546
Ni 1.5811385220472505 1.6571090580246652 0.5896426624770236 0.07753058738731165 -0.3672581753302901 -0.5491940630085703
Ni 0.6608600461729115 6.8101356049872885 7.290304325618223 0.34058143737005214 0.1775621840906168 -0.4031716013974476
Ni 5.10266134266599 1.743318010370811 3.0912659152474204 0.06833375137939199 0.6308767248910425 -0.9212486312862392
Ni 3.7276568895597824 5.7187873135450715 0.9732172204015874 0.38355331294588785 0.08657598541903154 -0.08782579866573262
Ni 7.957720860385882 2.274442827567934 8.935032518259067 0.15944876231935767 -0.12035899540674753 0.45228635664622757
Ni 6.4824319551162635 5.667781046880523 0.35172119084634845 0.4010602114813996 0.3612788178184036 0.9940275629211783
Ni 5.598146808510617 6.248639296765319 3.228102071292738 1.1423100242110715 -4.042910854249031 -2.5458988941061254
Ni 8.399849497550273 3.972338317406327 7.508523813808307 0.41374063516254556 0.9020247500596207 -0.9637438243359723
Ni 5.805349314731517 2.567101734659602 7.620027786486128 0.4865918147963168 -3.205897476063788 1.0160338919889405
Ni 7.314828212956608 1.7577279775104673 4.493501582851587 0.5955181428860905 0.12598096957921529 -4.452977640104415
Ni 4.196830926043024 3.9729515074973762 2.849888281285377 -0.06486816142829474 0.5848604060619282 1.2358974079509297
Ni 5.698496295986716 7.766916543721071 1.0203854745417045 -1.1225534104094343 0.26167222446765903 0.2157572071030994
Ni 8.282405013596438 5.941310281283247 4.958117572991363 0.011511600184025337 -0.7819349491538597 -0.11265725588711566
Ni 2.994430192808213 1.969334303476176 9.475755618532903 1.6515041497879361 -0.5669662993903268 -1.0953228568282554
Ni 9.024197790104786 3.3931802764103494 5.23313611605462 0.9447914516031858 1.0421786687051084 0.31418366410281373
Ni 2.402738917981548 3.894230906869195 4.994315298957073 -1.1278051457266771 0.3634657981673934 0.05349591503561109
Ni 8.132359256468488 6.497836033464135 11.063481288679453 -0.8535594554693816 1.5093943929676583 0.8338406368842156
Ni 8.569089962679854 6.828847193523244 13.511277600366476 1.5769778964445873 -1.5969144874675143 0.09420084895414099
Ni 8.625745010789219 1.7753339657307439 11.171244801801873 -0.1090242871202187 -0.8407859578537972 1.0181008018202984
P 1.6862913319032344 1.6383510156939327 11.247746769191531 -0.4710371548911694 0.3034811900836451 0.520191248018317
P 2.6861906829485225 7.952350801709724 2.454704920046177 0.24654616745949798 -1.5471844672322386 0.459329379535938
P 5.255559362793215 1.4006655293407222 9.871374716367104 -0.1760820000006645 2.8538000676343365 -0.7672596065298722
P 6.890993080175186 3.4974133011297597 5.769357843614616 -0.6386764234411194 0.5845248770993804 0.0750949813626255
P 2.906418833224741 2.0050665624182256 2.344466348738067 -0.520281236628962 0.3743947863750714 0.9322894624814331
P 6.067906162808042 8.57517540979557 6.742428270024709 1.7211360511534615 0.9276072265144154 -0.3928604492794266
P 5.129762486538574 4.438762289238803 12.727151480678344 0.24980838315053752 0.8275735729285811 0.021866718166104276
P 7.42355796501038 6.15302809635642 7.915619786179982 1.223983430122163 1.2925305830639418 -2.7987316659052834
Ni 1.3434994894888164 7.310368648658068 10.259106888924162 -0.20904765629340769 0.7340322119353101 -2.447078544102102
Ni 2.5916479198194806 8.980967888685816 11.778189644681335 1.3903638865643475 0.37955807574356565 0.5095839048161159
Ni 5.387079346564315 4.562329383344174 7.054107218849649 -1.3795727094861143 3.156764465982563 -1.7864302443755815
Ni 2.592502669643367 5.6734484098432505 3.359349835826448 0.625943035034851 1.834486990673492 0.3128451477970483
Ni 4.172684243518224 2.8486117310049206 0.8693093722456123 1.772437272530599 -1.4360418482174366 0.04903196572698652
Ni 5.013228496962359 8.022458868786352 4.013290124729459 -1.3202149363530877 2.581273159840361 0.5279094425981812
Ni 6.57349068363707 3.8991364275975893 3.492406511128753 0.7019204190024297 0.6467190912399378 1.8786662562938676
Ni 8.223399403471385 7.945141172760418 6.171654209909986 -1.840216694068418 0.09528945403262944 1.2381828615509967
Ni 0.2313705574912994 4.977914322173298 3.237063937381012 1.1639880234051372 -3.424060978615535 2.522941256868687
Ni 3.8286195671269296 1.9818675373068637 11.648166402177933 0.48523890031284816 -0.7647437820865539 0.634758833554268
Ni 7.862100369218027 1.563625441416527 6.469680388450127 -0.8375797922116737 -0.49063384607617444 4.273139515495427
Ni 6.734025707625545 0.305289693891386 8.68243629285851 -0.363645004057735 -0.9509047635897752 -0.4501603114421601
Ni 0.6193600840714175 6.92480215201349 2.4942881985751946 0.48988925460066596 2.4728158009672057 -2.107651532051467
Ni 2.740197864755629 6.606045503016411 11.78127696388218 0.09358147020258721 -0.6261579792591345 3.163733698211545
Ni 1.9950325427465112 4.0343448426739394 1.7105290638657977 -0.30310323791893606 -0.5940621271658543 -0.6824990770530246
Ni 6.3077099422030605 6.830937614288185 9.59830072915319 -0.2816674366426633 1.9112657874964438 0.3855158359888973
Ni 6.1944184275022405 1.2112826987960694 12.071471032623009 0.08977880862704539 0.85371629276222 -0.975423574666746
Ni 2.793406041292581 5.937686885290684 6.733358631132554 -0.9600681752565982 -1.279986170740028 -0.42485037192246183
Ni 3.709902249196221 0.2036627270589349 1.364528193308222 0.33994431800668545 -0.12616480345524722 -0.7637333385441685
Ni 3.967572158062263 6.7648431550802455 9.962005140900072 -0.4266486014734652 2.7189274519924465 -0.7883727343594036
Ni 5.776315692996233 3.4817397907721834 10.83508934850922 -0.2969960965799337 -0.9255223189609287 0.739102684479682
Ni 7.316166082246171 8.67124185739328 12.976347288301266 -0.017861710771769235 0.0011464548996173802 -1.2657034355687686
Ni 9.120524378953244 5.61994292901973 9.141462962410783 -0.46659608840068023 -0.2841526649583622 0.07576758194961791
Ni 7.930471064370014 8.341754381802838 1.7036622639219423 0.12106759143799795 -0.6139804633563362 0.23073645412075103
P 2.9798251197304957 1.3997364534451928 5.884464772615298 -0.8624762983430372 1.1579099355318574 -1.0428327573493394
P 0.8703824549049486 7.0433893993188255 4.604067188874923 0.08691074305063097 -0.08991533420490967 1.5146767244125203
P 4.83863655467453 9.039546123898926 13.024728915560942 -0.20442121326498988 -0.049271078320986116 -0.7130466108225784
P 4.172860767938373 5.5084724030741485 5.1740933428937455 0.2275336309127372 -0.6400864164147686 -1.1621442853281791
P 0.22850342927769657 8.921135401013743 0.34183675239381434 0.267406555848275 0.47039695020400923 0.28277301100201624
P 1.2715611428979978 5.389532106928511 -0.1060530843987517 0.16873481560697393 -0.856213348152461 0.04366401654685384
P 1.3283276801148258 4.236697572720178 7.0155440656539225 -0.6048669310908422 1.108454509114207 0.07552641247308928
P 4.321717307920046 5.08445145511362 8.946440641180269 1.5216464708621342 -2.0681817560916187 -1.9513983938512716
Ni 1.1065665546109842 3.3044628191462753 9.476680049048953 -0.9615164776673505 -0.07493531585630965 0.2630660194913921
Ni 1.1187653211192812 0.3193280306728307 2.669239693234594 -0.21914000753240326 0.44595604355282553 -1.1404729710023327
Ni 8.810315228195032 4.060275350918157 1.2713372356071755 0.5086894180263045 -0.6373847012128895 -1.325348400924911
Ni 6.160535029592293 1.0978611134698764 0.9458884529345988 -2.121506178546372 -0.8254835231687719 -1.106832657240068
Ni 6.085168392946974 6.512292454398568 5.492925247038364 0.5135824844525477 0.4534479810544965 1.6021875629409954
Ni 1.902840341633158 7.438265236436606 0.3508385687455958 0.008017470987837805 0.7499005464261342 0.07533615083915413
Ni 3.2958224133178544 3.155234648806391 7.3423158524017325 0.13460702068532948 0.2763426819956402 0.4515988436608997
Ni 4.323352481496178 7.516614206706575 6.81346448392097 -0.6012959259101321 -0.403304527430886 0.37282898454984825
Ni 4.7795844907547 8.841662248910183 10.582385350304781 0.2565223048356034 -0.906196107828491 1.1707461680645772
Ni 0.713244132390529 3.233778725014421 12.519224295258931 0.6406512877793031 -0.2681922849743639 0.4192160564548199
Ni 0.759276126710414 5.239755781810265 11.287792727516521 1.0011235505360114 -0.559214937579682 0.6056202643170989
Ni 3.292301215673799 4.642071967457436 10.723912410546626 0.8556911571004037 -2.5213726268299865 1.429262620512074
Ni 5.734823163501903 6.679228811307238 12.028025585596277 -1.079073999069561 0.5575426920835816 -0.5564232337671579
Ni 7.937448424345438 1.498441476586205 2.139055100843746 2.3720326708098565 0.8691020311896711 0.17877754455495662
Ni 8.651248144121492 8.535903371691555 3.9328990456411166 -0.7823627807198977 0.0943952243531342 0.13638005342535223
Ni 0.4814322638488533 1.0028259401162045 4.98845375913218 1.5375883389033713 0.25947778791950155 -0.5544434843329678
Ni 4.506556957335562 2.985706170149195 5.1581020885798985 1.5073303113497782 -0.0011932489771527837 0.30558435246957694
Ni 4.122802158687265 0.47546480937186986 7.326012428586988 0.9285911876942395 0.8364384795183787 1.3527440193290445
Ni 2.184424664050119 8.491038296696455 5.881595786249904 -0.6377623962672823 -0.324837287161918 0.43636557165091305
Ni 7.72124317269686 3.9565904809771086 12.507150024920634 -0.9288629532983874 3.262917087981942 -1.7840051798738568
Ni 1.1304438051260821 2.0869181488143393 7.232689542108775 0.03589208591091883 0.02356647446603038 0.1735353223194108
Ni 0.28888871710761066 8.691978831381489 11.768929545230597 -0.7453854321646002 0.36875558581142304 0.30276153830880115
Ni 0.9947801428609224 0.7177315689659345 9.344602619740535 -0.8677198061301638 -1.2372264111749982 -0.3217177676963298
Ni 3.2093719012388715 0.3468091665866861 3.934557446114636 -0.3955562509440349 0.534965321003698 -0.1462672306320771
P 7.711329932891564 2.314058623753295 -0.06897087818049857 0.37713481101405366 -3.077921330431415 1.6554294529842717
P 0.0932866525182863 0.25504341130938096 6.936716621297756 1.282573728961546 -1.8758182453221115 1.8395878022351673
P 7.755433165652331 5.723804323380929 2.423796423153715 -1.7688084175287602 0.6273828528051711 -0.7810160368840162
P 7.820812236420713 8.90249813854943 10.491033962876882 -0.18123577628746207 -0.2167185425751042 0.5822882744593778
P 6.477507852869959 9.316680172776303 2.9894986579547447 -0.39696598680736794 -0.41545196142669744 0.5446938611453717
P 8.406789694489875 3.876606337131008 10.407868663164491 -0.4654653172303468 0.5523128111432101 -0.2272083863628345
P 2.874839543535707 8.402265094878647 8.536979241578578 -0.6810050090060014 -0.9550164717653036 0.6794178670245395
P 0.10400447204911004 2.577488803171617 3.333024470326631 0.3593551184331295 0.3938467244520959 -0.8716993596032019
