# total energy = -340870.4080898935 ev
CRYSTAL
PRIMVEC
9.24449340090175 0.00000000000000 0.00000000000000

0.00000000000000 9.24449340090175 0.00000000000000

0.00000000000000 0.00000000000000 13.53025053993415

PRIMCOORD
 96 1
Ni 1.0296331993977426 2.3876492976534878 0.9192936980774491 0.048551683656458317 0.08089307610164133 0.5110126668428425
Ni 1.5914580486516203 4.792456375282215 1.2281133997460112 -0.2664933000053862 1.2365905773632124 -1.6222745634988578
Ni 5.8956202761471195 7.089472658454427 9.337401605478728 -1.9419686158969391 -0.5028309023629985 -0.7169354043540234
Ni 5.3458687354318535 3.9656196302577618 12.141302712908672 0.33938818839289936 -0.3162361757564683 -0.2774991641975866
Ni 9.026508363913374 3.2822666691749527 8.159810287275109 0.021946679474420267 0.41339353623577196 0.05182624064267203
Ni 2.0786521017093196 4.42722492524894 7.962403372624646 2.323658136161211 -1.795396452429934 3.0170188385190877
Ni 2.6782684404776256 7.082872090080331 3.628691121588816 0.1994078192107985 1.567155768147843 -1.0745018063178462
Ni 1.4401256897105275 6.225214203656392 10.587935675361564 1.3162801200750558 -0.1821785998167056 -0.6294266227080773
Ni 3.1320621384434393 3.0189834936928315 2.2563451339259486 -0.4625594564374614 -0.1265746372991562 -1.8662334298471537
Ni 3.3421247647243466 7.463643533722645 9.255881812710594 0.9264417454514045 0.42998717892839494 2.290109096561172
Ni 7.374600572127007 4.583734200561873 13.092290232574005 0.5011051779211434 1.2146968626139143 -0.26334961217008196
Ni 5.102045218811735 8.14315078550066 13.67110091422363 -1.5313868380783497 1.9411931711834955 -1.4025416595774618
Ni 2.8647113858120155 1.426286682909378 3.8445934944270284 -0.0764268128001716 0.18578097245598324 0.5280786211861938
Ni 7.859067499595969 4.596602535543302 4.520672888007403 1.3004349255126828 0.5827736987362285 -0.5572884099809305
Ni 4.294141196518582 -0.14781575360565052 2.2475915230107795 -0.1262113404224665 1.4011751182472383 1.280360009139679
Ni 5.555829672284028 4.960317888639109 4.777734519349796 0.5593581480257657 0.3343681094704887 0.29408509358072576
Ni 7.501296355834256 6.771036834625173 5.073370648807858 0.9660686158144071 1.0338986880845031 -0.562819881322121
Ni 3.7270932084252584 5.129824921842767 3.1488408941843113 0.03285818418060148 0.9046089658470291 -1.0220916681472463
Ni 2.78071591767892 7.827839600481552 0.6889699153462551 -0.22662166062142905 -3.249807547183177 -0.5183107431661526
Ni 1.3095657077114404 4.223559488484663 3.30687458647888 -0.2503105195979366 -0.07667569558618408 2.366520739852692
Ni 6.762254565780088 2.2999375431248934 9.539571283191284 0.9941517472038686 -0.5931000203629011 -0.37057232730518763
Ni 2.9832165482595334 0.9234943959334561 6.283231720545727 0.180031985787348 0.7426032414337727 -0.4519315444099701
Ni 1.6669023602776594 1.1282811897618477 12.021371125110841 0.4664001703397903 -0.12284859459782067 0.5988590343338653
Ni 0.5840791185073226 1.0906561011308002 5.39985565314597 0.3446265539737033 -0.8075760467607318 -1.1876735399475353
P 8.688742304131413 8.591148186028716 5.394646381046806 -0.3840191968387128 -1.1092309822689155 0.7637878459311878
P 6.383045441542848 1.8146940782001548 11.61071408281338 0.528818841786328 -0.4152233903556591 1.3340664975241991
P 0.7880644147474314 1.4458018087325086 3.240806040181983 0.24291088469975583 -0.41926542163551667 -1.7942086027694195
P 6.071025296217266 1.4023342001960992 2.43336146921683 1.6244276052861186 -2.2394061708896658 0.2412034150903459
P 7.0750420040679245 3.9240933653607923 6.460004925657001 0.24088588384992707 0.3350947032238681 0.1616465413016248
P 3.1410662751330314 0.3991393278194706 10.18083683862039 0.9139130168567744 -1.9715897811974818 1.2940539616870037
P 4.450252958610105 7.042741743705055 2.003112571800013 -0.28033611942574943 -1.8509955298514766 0.5912868784135624
P 3.437999407032109 0.4280644235977714 -0.20837920401070745 -1.5564111280368291 0.026480305678715683 -0.5279577793376133
Ni 4.75186380423088 1.7099262331250538 0.7099623112340641 0.48580377167738265 1.0531639640720185 0.3255615669224522
Ni 5.436067258717635 3.3371512272099717 2.709459361617958 0.5494830550038988 1.847222950182922 -1.0338524082276002
Ni 2.2679146175676577 2.219270092659409 9.955112191415965 -1.7454766847813552 0.10041674795686577 -1.629291875356955
Ni 7.047336256985062 5.743243289438137 2.6513475508947084 0.9540034571197571 -0.1390444876313928 1.1217666528420809
Ni 0.3581954660143331 7.656400468131975 7.516325128951577 -0.5210335414139542 0.1239405421104188 1.1889560062043847
Ni 5.300154714969807 7.331271630993415 4.18497389697677 -0.4545656395987075 0.6735210419241304 -0.6881233652183375
Ni 6.863111990095746 0.6355755696668437 13.547569520648665 -1.4233686236251422 0.5578088012607748 -3.0450765159872524
Ni 2.132871056210817 9.29977559239833 8.369651045711509 -0.7533936471810574 0.4370011483523829 -1.0592145411414724
Ni 6.562203725982577 2.577207637304502 4.534853016619483 -0.3647644623741589 1.0323771092336542 1.631356471195468
Ni 8.951165741716068 2.552506350616011 12.422623744149247 -1.9172592860757174 -0.17255753178717378 0.7445423674380145
Ni 7.170426688219067 2.797568629367962 0.8984381206937531 -0.6897727278963024 -0.504677211543118 0.6638922605851146
Ni 6.3365271501444616 6.631028980247479 11.568769966809256 0.11105674416921518 -0.3031176360966392 1.2696158832492972
Ni 2.9442510080679205 8.049790645430647 11.838563114628965 0.0067874552354786335 -0.35588335783444514 -0.8710876941611321
Ni -0.013206683444303317 9.062626600100474 13.09153218410527 0.1702833910410164 -0.14439598175129326 -0.00748422419218711
Ni 0.5639418382702194 3.881346827319032 10.347042663187649 -0.7069721224937244 -0.3454349088076115 -0.6449853963782828
Ni 5.707383899069629 4.682465391367669 9.993335398777829 0.08654050419540579 -0.4959210626170427 -1.1110464382110996
Ni 5.553370637007404 0.529961853434558 5.712295498477411 0.10120350552421925 1.4004487816041753 -0.18114090258081064
Ni 1.5640296363743924 0.04417388784142446 1.6163645630962808 -1.0673932202975231 2.2213405716372066 1.0707027442867303
Ni 8.57320462410418 2.9558898254110377 2.9679011958430572 -0.959851431260102 -0.6061591675397044 -0.12734031182058714
Ni -0.009574521939846667 8.142790250253334 2.996977901315105 0.36181335016563493 -0.7324777229639966 1.829521676248417
Ni 7.058355693262263 5.642053063355719 7.893805532900363 1.4333889839756218 -1.029361462335782 -0.46147367957245045
Ni 4.653363725763113 5.659155376369831 7.773385835844618 -1.1641787992597048 -1.1175407876861914 0.6523917161446829
Ni 0.7666134919809737 8.727763311284152 10.457422840279435 -0.19645182190626811 0.2711066304076815 -0.3163706444518036
Ni 0.8301545937491905 5.39935737494518 6.611340982395503 -2.3772707792803445 1.36430807001756 -2.5421689947500474
P 2.568702703265052 6.6018810921753195 7.6204809885555775 -1.3420142916163662 -0.07419432392522707 -2.1719262828701367
P 5.794661162402729 6.681143379625589 6.341777098015117 -0.5450702706481838 -0.26031802443260976 -0.3751074961713798
P -0.01084656424835579 5.563835403673337 8.94026186160788 0.27996973722526625 -0.29249486627547044 -1.2346097994877576
P 4.921176703070595 3.9551918415659135 0.69650602646469 -0.3447170568049805 0.3079569664668116 0.01434135632333659
P 3.7822458567723913 8.912791849109807 4.662537961133495 -0.41749547421928745 -0.7922463583821968 -0.1806181973081212
P 7.151355298084951 7.785028350985144 13.406584523305787 2.320093301628088 0.1918814289267663 -1.6950799774963583
P -0.24140977936174746 1.6753148493818983 10.526237001152111 0.5804447934927358 -0.8728159897061485 -1.3052614003670489
P 1.4607871327302795 6.180896101716037 12.92429837185846 0.49112055590460574 0.9470023432115755 0.49530476918928246
Ni 2.998719563894488 4.233830120786652 10.5196077748481 1.6643689215657467 1.9175441643059878 0.30919006754296424
Ni 4.582994641080181 2.2470497956904403 10.609881178531403 -0.013145279132706392 -0.6080029056166626 -1.3716274864971087
Ni 3.4128636291481245 5.85603535488959 5.6822592145778685 -0.39117560537783597 -0.21588884758495722 -0.24337933969574213
Ni 1.5639094579586175 7.599343454119487 5.660407080792593 0.8154045416662151 1.0779691960411564 -0.948868706996353
Ni 8.862427848406627 6.9160274710107625 0.8648168222067121 0.36292689494478786 -1.0491088201660383 0.12777277137231544
Ni 7.199657776732917 0.5168198814449028 4.1655992874551595 2.006213027698306 -1.289451944138618 -0.18563724778926738
Ni 4.96420982041151 3.357914359658457 6.577988698669927 -0.9527274186208108 -0.7659799684865002 0.17839110774981534
Ni -0.1711238951205056 3.2126741219477966 5.759245507723234 0.245814431499796 -0.42337661559041273 0.18487054482657195
Ni 2.2256025707213913 3.310018638725421 5.727963990546395 0.8277383806412196 0.08503383774289226 -0.30952868182930565
Ni 7.547481845465881 8.999089196129667 11.20939305452292 0.28227755942283644 0.5263377272356872 -0.09281733834305304
Ni 3.9185096912740227 5.652111072306721 13.131054242806856 -1.081009525529377 0.5075722737027258 -0.17672760400446336
Ni 7.134040361719852 8.218687542061911 7.1557436591594366 0.3873150939811652 0.2264231714573778 -1.3182534417513425
Ni 6.0473409038161 6.250340737046856 0.7712366631908968 -0.179476113283878 -2.6196378756614886 -0.6785444632806508
Ni 7.027229483576578 8.370759460484694 2.244519577813704 -3.004376210054413 -2.405491464688935 -0.24617052928763408
Ni 8.080010894751261 7.397471449098312 9.31618641729706 1.7229875025399037 0.12498955220022345 1.2685604454015895
Ni 5.215576843744879 -0.4047877133608882 10.664110301975773 -1.259200087232612 1.2411002923081078 0.714881350038472
Ni 3.3523584190522504 2.7696872369081977 12.450008707306923 -0.33636302841333043 -0.666222194269872 1.7753948124970262
Ni 4.322771392953558 8.296923690731335 6.770470147172327 -0.8496842887846915 -2.414893474729125 1.398908690810565
Ni 1.449675251517867 4.032790120182379 12.444853977719534 0.35798137801405444 1.0279311576471588 0.8386735394964847
Ni 8.296951424211898 0.6754054700026835 1.5480902806452395 3.7755680617591554 2.53890935016217 2.0711518944635365
Ni 8.849439335009421 6.872199327227029 11.703003710533643 -0.9114100479292626 0.33316740429416813 1.2636884620212687
Ni 4.663810003442005 1.2005269066295716 8.110397544955255 0.5705514456384239 -0.18217268627943461 0.5453060408080738
Ni 7.296780425666034 1.9260624916493514 7.110850549722068 -1.7786367164730916 -0.5018214872618777 -1.4668873728433836
Ni 8.652282021684028 0.7507305276622999 8.445501190603126 1.0132049071805778 -0.8961675199478952 1.273960019150606
P 1.283154189721538 1.8841202245439306 7.229686665037642 -0.44175074722222635 0.7496269810497735 1.5660815612470576
P 8.084448251641408 4.877034246507141 11.157559179349878 -1.25532106389318 0.36421244652543083 -0.4341785913019232
P 0.721385731878139 6.190186817704785 4.14796911386099 -0.5753226417748221 -0.23899997968112383 0.22377724919409844
P 4.233183006240171 6.148401706989224 10.896384672839929 -0.09912656839053251 0.08065293506637723 -0.12335690169280691
P 6.554373639970171 -0.12531650527389537 8.944659467175889 0.01753903732502786 1.8477561969785727 0.4229644677536586
P 8.512597724579575 4.494016390939191 1.372765687668727 1.323850476223146 0.8786109991213706 0.9557620916820766
P 4.05053030324945 3.4294297615380107 4.347607649247458 -1.0572874993220889 -1.129528813286003 1.716765175779276
P 3.8772884946632513 3.2219833269235862 8.641405875056405 0.9024073302100201 0.9362931843241874 -0.04511463295045134
