# total energy = -340871.62614313734 ev
CRYSTAL
PRIMVEC
9.17248889452011 0.00000000000000 0.00000000000000

0.00000000000000 9.17248889452011 0.00000000000000

0.00000000000000 0.00000000000000 13.42486466651752

PRIMCOORD
 96 1
Ni 0.6485353247169892 5.7000322643697485 3.9637177213696706 1.1845483640549923 2.2207541030061173 0.5043925904231635
Ni 2.2162659423380107 3.613419452740359 12.107697282239123 -0.7292574162544859 0.1647056398429228 -0.9491942086565718
Ni 1.9341110110519903 4.303016341301014 7.383890260556277 -0.027985943689964703 -0.06930742814657095 1.1934243263883832
Ni 7.658028436537074 1.3826426329505592 5.379973857170942 0.697233812160038 1.1001809562515052 0.05098214747482188
Ni 2.793830051381503 0.3187760932495274 3.896580606059541 0.8488350534105187 0.5778976015908498 -0.5717493226012669
Ni 6.37460461609979 4.207824251418165 2.0500439328526556 1.015808920462328 0.3047574856929074 3.5179101006572124
Ni 6.280935159375598 0.6765884647919271 13.008666839683798 -0.7130221853425462 -0.03930342558531296 -1.417769789381126
Ni -0.03439775065230992 3.66936246258768 10.908333819146451 -0.3515939864304719 0.9281078202999178 1.8978981079402861
Ni 0.43073732735321135 1.2486325700108383 3.779125968349108 0.22731945801940204 -0.8110573204411129 -0.9145223683059991
Ni 4.2589975670335445 8.060251247623295 5.671468216662659 1.0659467176589836 -0.3731794259107315 -1.4208841666403917
Ni 1.5282283768916443 6.627719447504417 8.718939600312083 -1.2000567441032366 1.3091710198341002 0.16684325501121586
Ni 5.579047135678789 4.446730897504953 13.591064850381583 -0.7395513419813263 -0.10997559528989446 -3.8257086871692882
Ni 9.134854185590648 2.7430052903446103 7.550237933139665 -0.1324560357805977 0.2760444340289311 -1.290463673232584
Ni 6.764875674139438 7.370837808840792 5.22600445836833 -0.540131952806302 0.027303058690327175 0.4184398404104277
Ni 2.0820265671756 5.777218758527021 1.5091963796573096 0.42944441905104747 0.46882266373835385 0.9685291615397578
Ni 8.456722908164465 7.689866145535278 1.813162572316661 0.11818744167672549 -0.6672984580531862 -0.12244004630549234
Ni 1.7352606240245971 1.112861389200862 11.254345783709253 1.1952179279536963 0.4631330695527443 1.8586383911087152
Ni 6.052760325310677 3.245978719591674 4.849960847873227 -0.30281604569582043 0.31670643052466746 0.772703660363579
Ni 6.263911019963134 2.6385031242205694 7.328485675807831 0.6598090916546766 0.355541144003678 0.8480665506756103
Ni 5.4956783839978085 8.679137419195428 9.062897844608477 2.6442636446299685 0.14414787029622916 -0.05891991426465982
Ni 4.8641800401777555 6.436436363825776 0.963136101015787 0.4124483987136833 0.2892344503566438 1.199210079832225
Ni 0.6696751599022852 4.219629244642219 0.1991099684634775 0.7588569842884738 0.3773968064261887 -0.009616440043841502
Ni 3.1273876105055924 7.11107292297817 3.4361079041657416 -0.4048983542805672 -0.9092377228682922 -0.12278354568784015
Ni 1.7862963523063637 8.454218818692697 1.431869546419751 -0.804927039173659 0.11462389269518324 0.5495517034583052
P 7.474477761007521 6.147264478525458 3.5804654518421017 0.05387078187652657 -0.20490432354899552 -0.20904637074182708
P 2.114689800175487 3.023958625583738 9.843272104140764 0.8470473653824767 0.618839077000218 0.08281009061869608
P 6.092293752502341 2.7679177702175934 12.367025557629745 -0.6096381272272404 -1.911630112814398 0.4768650744268562
P 5.552740437491854 4.7257396650956744 6.546353050151961 -0.8142341755071978 -0.499296921067811 -0.3952551747638483
P 7.625979760293995 7.5725224949406265 7.2671070490338785 0.3832735769219399 0.2575887984269048 0.020556998215745238
P 0.8507832016357493 9.369605694202303 13.040699005446843 -0.5293616016636753 -1.2621887375472909 0.3389629279300227
P 7.208127028109258 6.150447332176388 0.3177065810429037 0.38331394324157214 -0.23634480144646391 2.4159615109823234
P 3.17035154854869 6.42138430952844 7.143517850742057 -1.0076461821458775 0.17684433208798578 -1.561361272953253
Ni 8.84196744228276 8.202167996001348 5.490877503303581 1.1007507127120462 1.0893242160426595 -0.16010722183896295
Ni 4.229975812129966 4.55598441288312 11.017021391959023 -0.695862642844124 1.2127032292226532 0.52273664014799
Ni 6.4493420557187395 4.108853096105394 10.866837479328566 0.9472741088157234 -1.4773383929733783 0.9375954480753788
Ni 7.870151415013733 3.2024093972806766 13.458695745707429 -0.3057972398113314 -0.443475700333133 0.4535971050378511
Ni 6.000091894003362 0.19913473418352798 6.49814428295151 0.5498820902145304 -0.901565293924699 -0.6956991206830664
Ni 5.217476795430954 5.834354191932328 4.4999478436489415 -0.5702084604767083 -1.62323872718434 -0.34434758928070375
Ni 3.7014203113196666 0.954397470833537 9.770750737841885 -0.7101803450183769 0.7732901289946683 -0.5564630858661578
Ni 0.3571620420788524 6.172837377599787 6.583097123466829 -0.41632048007457984 1.292685106363935 1.142685148162303
Ni 4.004305067536815 3.2637458306056537 8.56113059765276 -0.21080037731845633 -0.7270424108810382 1.3247009971488992
Ni 6.358075791088334 1.9842661803986292 2.90551702806685 -0.0880847087540741 -0.5334072324879587 1.504930186548718
Ni 2.787620276391072 4.929552368622067 5.28391955333078 0.6915722429988864 0.7109419057747498 -0.7801421189194951
Ni 3.279494994059966 3.8275512062877777 0.8712002446951281 0.3212544549066661 -0.6928444248430907 0.5865917869307381
Ni 6.004182824056143 4.896026921664868 8.901678510573314 -0.3347044097639849 0.3958809812733053 -2.8578158736619494
Ni 7.798615174023528 0.9488205975777293 1.3377524722368703 0.4850152143378163 -0.8260350247968676 -0.4326251307718743
Ni 4.129858095703748 9.275495958010548 1.5908333654325393 -0.9216474093865547 -1.1009204055206911 1.9010104283170226
Ni 8.82632834869534 5.287407850862333 1.9910684981724893 -1.83900519025882 -0.29627104548845107 -1.233438661997792
Ni 3.426795993426768 5.476535399647692 9.053043839775064 1.1494157820179172 -0.5298891920323713 -0.13676520467891284
Ni 8.001950908126727 8.074184258273906 12.692646162102106 1.5946411180523055 0.39635406425498193 0.7726262701584242
Ni 2.438763005769141 6.494186353987891 11.151941365798375 -0.45006569484582487 -2.2806014141810524 1.1002030677386923
Ni 0.29186767979025524 1.8069344523484152 9.729053520516924 -1.1314694819521416 -1.1831612538994785 -2.8307341869538085
Ni 4.06102773894128 2.9203461908837323 6.2678542729445015 0.5990953187143877 0.6241131809149638 -0.758757739706448
Ni 5.855019809441101 7.53482356553048 12.350392166244742 -3.1090838720771483 0.9750073130649337 -0.5285334493354252
Ni 2.1794934343075285 2.4265635955220617 4.988129717283645 -0.8441649016283591 0.6718235996170494 0.9402848219820839
Ni 2.9308120007272787 1.2577041615404332 0.06843410524166124 -0.36078439468048834 -0.02700532494425027 -1.7627845799321835
P 1.0386376089607374 7.866794284073559 3.5574947878708536 -0.2415271169783518 0.89774849128177 -0.43917553029588235
P 8.38041697294232 2.6372831831958616 2.6171770875104494 0.6848902029930205 0.5625152055975086 -1.3621501431342926
P 4.273022302573232 9.1381837990641 11.649976327017598 0.30692801098166494 0.31900962473654737 0.5030481605801271
P 7.544408816438899 3.303737882242696 9.20594005737549 0.8178599451852431 -1.3972027638630518 -0.8448141051765837
P 1.8382401569899804 8.976986479002315 9.600295624725682 -2.02011292560885 -0.38290590916987605 -1.137663783688312
P 5.330270891527447 0.7966003924097926 4.419827987539025 -0.19808241553115563 -0.51393498269596 0.14173746108252364
P 3.2575268831263156 5.553859481138579 12.910531298110508 -0.12520166821102954 0.006353195911537445 0.007937766789837942
P 4.09647940856907 5.266843130731542 2.5742314944451667 -0.12210194623978327 -0.9025081174539423 1.5558513988786173
Ni 4.042545173792509 2.388442731622166 11.641223938101987 1.193933404814318 -1.8042361622087508 0.8232188955043112
Ni 3.9469311494199113 3.079947497875597 3.54835256817667 0.6967830977758646 0.8228491708697184 -0.6025927903446848
Ni 3.4625595276774166 7.784498713594765 13.230217302259666 -1.2328372809683672 0.695962144536466 -1.313371431068693
Ni 0.9760812346110523 6.637589045568971 -0.3527326471853828 -0.5020508296638644 -0.3169830812248218 0.7562809960311814
Ni 8.420812614091297 1.189515879001495 11.789635725875497 -0.13905811447814762 0.6780215008976452 1.1338410675081116
Ni 1.3940073467070488 3.514457469916495 2.9377225538702483 -0.4455819480428584 0.442173950802574 -0.5074781713270228
Ni 2.2857292008351022 1.7819944550087095 7.461794960595012 -0.2026057573228059 0.09210128611263493 0.3884785181616471
Ni 5.113635048508259 2.0213413805630616 1.0883332366131067 -0.34714726351302794 2.1533804015471496 -1.073975244390415
Ni 5.3445249392898235 7.913078663101199 3.2371107573158273 0.5609486324413372 0.48965939797804703 0.25977115079020424
Ni 7.175427105153741 5.898424026951762 11.715852225102935 1.9906519400352554 0.2911586639625502 -1.3545553615061703
Ni 7.863299565799771 0.7901273669877146 7.832992745200242 -0.7137410657864418 -0.8716129705369828 1.2945720389740027
Ni -0.10903979638662024 4.825096064942564 8.828392158699543 -0.15291713184842698 0.9890105693225613 -0.5601737019485256
Ni 7.626337487361389 9.072939885464493 3.546003493767439 -1.1676788419931632 -0.42846662851881046 -0.3466806082892545
Ni 5.342277679507467 6.766911966676919 7.468104715714536 0.5180973416037659 0.0635602412501486 -0.13879586195569646
Ni 0.6325724422711304 7.839698751840572 11.162036607090055 -0.5764313014579685 3.4158203358732977 -1.5961848083903412
Ni 2.058095543615728 7.896091213644364 5.619795917650706 -1.2493491625804614 -0.672270714456797 0.2874760729046404
Ni 7.764832897376917 7.061743277633213 9.445143892102884 -0.20046762793388057 0.14682336024586326 -0.20757107174788125
Ni 3.5333527970661067 7.756651037271357 9.752103985141668 1.1944198575324332 -0.47257570302288293 1.2539480948050532
Ni 0.8617534983692131 1.884267706328209 0.9979631241489715 -1.0100527347048411 0.5450952103488483 0.37927114063076617
Ni 7.676611899063827 4.46863480101625 6.543077554363065 0.3772178576461632 0.4136807284588875 0.6084371649406037
Ni 0.7475624322120968 8.882794190410392 7.6677320125524 -0.11444340125326097 -0.36629683985828526 0.13951885616465004
Ni 5.8577807286022825 1.9360097162558592 10.031045793563365 1.4068755110661253 -0.2797740762746924 -0.4713883675830011
Ni 8.267072527511374 4.015642263826582 4.277980950076669 -1.5330215454682954 -0.8020551169425025 -1.3429553153733969
Ni 3.1243148267215535 8.69552865687327 7.769224685065866 0.6582430327191373 -0.3039352469019282 -1.5713255832548163
P 0.6146246332256716 4.348089951792854 5.628253869672384 1.6277055047064417 -1.7427793404548502 0.8879127361382707
P 5.213734419956662 6.4638254157038055 10.161723491282961 1.2121339869827445 -0.060719172256927696 0.6606282451218622
P 0.11340406660884607 5.86801722622314 10.899056763865328 -0.06288352689809815 -1.2401281582028256 -0.5071557549905976
P 0.7242138616978558 1.0911959704011618 5.932326463203064 -0.45796952307393385 -0.07476150928260673 0.8180784889539525
P 2.752352056541433 1.9937597064179728 2.1133286028216025 0.44227782337029 -1.2875678397420276 0.8153574904783636
P 5.935682676894346 8.362347169794392 1.178387815458821 2.0211961313707 0.36525580018828063 -0.22696284601093172
P 4.726519326652818 1.1453319999336897 7.766888452141105 -1.8478078761521144 1.4075409125642662 1.0837359233216044
P 7.629740480746101 9.141238237870322 10.249428078470554 -0.515660450027499 0.22558910559185666 -0.7149093750629301
