# total energy = -340857.7827771818 ev
CRYSTAL
PRIMVEC
9.38452013935582 0.00000000000000 0.00000000000000

0.00000000000000 9.38452013935582 0.00000000000000

0.00000000000000 0.00000000000000 13.73519382578007

PRIMCOORD
 96 1
Ni 0.8443890935861611 2.8344441621862817 10.358300202803195 -1.7999581036586871 -0.7613954344396112 -2.2801532709000405
Ni 5.5823536639716815 8.942875257320807 6.862899593445862 0.8886372730091212 -1.1454187450433821 1.7742460436045635
Ni 7.630431343820752 2.7721121792795844 3.4580689881584696 -0.9775910146317099 -0.4623092880998683 0.7527524140526326
Ni 0.443298455730235 4.634639126513297 13.406043246815692 -0.516436151851259 0.6184500690919156 0.8281086194964449
Ni 5.062301094751942 1.2449316754647084 9.045188111467704 -0.628142356679015 -0.7224290804787429 0.6813407950788652
Ni 10.019476794664858 8.068716588881196 8.138734493799422 -1.7615537928488758 -0.334852762416391 1.0095102319378098
Ni 8.690103206795081 6.80127144955121 12.78816643944187 -0.5894896773038235 -0.445357233626562 -0.6919476240604341
Ni 7.477397973561868 1.4599779549448284 10.181171138579957 0.3266781970253987 0.7298580259529625 0.5356515484374452
Ni 3.4392295639360677 2.283901286964756 10.831340079826399 1.2082583060774224 0.30503825015811986 -0.2113289961284167
Ni 5.798197627665453 3.4496839193949747 10.727172844495767 1.4354584649101405 -0.18895217109511328 -0.06052068309287641
Ni 7.185464320405963 1.1454276082018797 5.605510905919975 0.9616252353310729 -0.26275594445014105 -1.1199797361449872
Ni 7.307904154941295 4.346478050461951 13.05197750103251 0.39127150752575196 1.020133773089927 -0.6259517767855994
Ni 0.013728614542939905 0.8560634366659461 4.305859970302848 2.08571925075475 2.2802499443789053 -0.6319411615998148
Ni 2.4106016936529997 6.7578492747681205 13.14929215974187 -1.314485490068478 1.1277521810015545 1.4444164454343769
Ni 0.5794321820839126 6.742205279660403 3.520522031375238 2.156729263414724 1.7465966573184113 -0.8194170052597178
Ni 6.169712011783236 7.9212857771581895 4.961110629216253 -0.8802315654439291 -0.7462210406920181 -0.4965484117883965
Ni 5.159965796063293 0.6290969396778332 4.5098137469531405 -0.6752796764864499 1.1483307764838546 1.981049641058801
Ni 6.27713661406161 8.276987244805362 12.944829742098873 -0.5003276763251705 0.07783552022224015 1.677352735419924
Ni 0.2128371634343153 3.2876038717012737 2.4336707211117834 1.0004638054648252 -0.1197558146051099 -0.7131623104648362
Ni 3.949306388225091 8.15766307096335 11.903509308298597 0.9425844166495378 0.18541921824119034 -0.808082554083505
Ni 3.955903705897992 8.699243729431503 0.5770372525389278 -0.9440674289529677 -0.3364550739065044 -1.993176249119006
Ni 7.522499977453706 6.996356854649737 6.8862220029489825 0.2752108823840421 0.33345331096570313 0.16544174667799896
Ni 7.718767832092468 6.8753246981384954 3.6123692686390343 -1.0812054435902667 0.09576639366904798 -1.0574430510633466
Ni 6.68998042496667 1.137826146871795 1.035653122075292 -0.6949563289797709 -0.16733459282533764 -0.8848315261097859
P 5.8267828760746365 7.78508823606742 1.5170799447660237 0.9911150172600737 -0.37943183457834656 -1.0082393356451862
P 7.625908005103343 8.563918948715669 8.517468389276754 0.20534012553483347 1.040892602903833 -0.03064832101347625
P 9.484840681115546 2.999245720726556 5.019073179536176 -2.0340860999594903 -0.4257482011463829 0.8542562244260902
P 8.173766907558937 8.750239211984198 4.680336108983315 -1.269687359917181 -2.5953952010640395 0.8697815737551987
P 2.4718450722210674 0.946438242716544 4.81610853131081 -0.057174392328462824 -1.2835121816154154 -1.0418056016364057
P 0.54180776385604 7.330877460294439 0.6059256209492989 1.2352595172566145 -0.7236087026091409 2.9018398446513833
P 6.898194773769874 6.684687555596092 11.640686436680866 -1.1633488471592415 -0.9637376536883854 0.4615402711443277
P 8.912919868968176 1.2724846266562262 1.708067129910417 -0.9517496280885739 1.0474162629549637 1.5223350122887265
Ni 5.366087396870684 6.7326143000562695 9.937522718554364 -1.2321839636550844 -0.3269049683242241 0.7683893492589412
Ni 7.43886513378245 3.548718760649773 6.0363570418491115 0.04016217404118245 0.19799782623714934 -1.0043117184560058
Ni 6.575179589842065 8.541077026644773 10.599943150870466 0.4747940508304404 1.7710301077704271 -1.267427874459043
Ni 4.682312488929138 3.8261345611172324 13.196980537389969 -0.2134506704571098 -0.018434809666419864 0.5366373093894822
Ni 8.24117591587252 0.2379998773409287 12.593016281154236 -0.5439788373562181 -1.201289845179389 -1.571540784589416
Ni 2.087032823035716 3.338843351778143 4.423501499680065 1.100260660449505 -0.9170878150403303 -2.213262165504446
Ni 5.070052708404596 2.325859476602793 2.8379520958223132 0.8366475102053913 0.46115332011855414 -1.8802734528799876
Ni 4.115384241507207 1.711952321256905 0.7857996573195112 0.5801853691837622 -0.30995085696838875 -1.1592134848346294
Ni 9.054119359304545 3.1237501496972193 7.615945398500852 -0.01576934701911478 2.9597506009252386 0.7111871890163364
Ni 1.5118931204732609 4.8994139783244295 11.219236082336522 0.09022129548110268 1.433667177337673 -1.6069201925299745
Ni 8.97082235835907 4.937646513458708 4.114226191719389 -1.6397110138077502 -2.144391824895294 1.1120707657105557
Ni 6.201938454014733 5.4910610518493765 5.371545433796088 -0.7659771402730228 0.06214587740112523 -0.8263085901732286
Ni 1.0062457897000399 8.761491251656755 2.4264455790401387 0.2142937351836955 0.6942009388709851 -0.7961924875141385
Ni 7.080123081603241 1.767780831692307 7.827659234871943 0.6485903401207217 -1.1412371028618666 0.7084250528901671
Ni 8.828890875450176 2.225961259493219 13.22248672473446 -0.5516016440087984 2.7331518231219447 -0.1941468279221753
Ni 1.6809552511664472 3.0157343226487283 12.377401299752384 0.9978585066314943 -2.597132752580437 2.3405482270483304
Ni 7.842756112454299 6.084585029406445 9.755091400440387 -1.8040638982969444 -0.8123066194671817 -0.2931219583365081
Ni 2.072402356105342 7.144172431699327 10.83047482706759 -0.3283005631201701 1.2120573681085385 -1.3404618595275817
Ni 7.220102584318733 0.32162815184807236 2.922917664452342 0.06828155798521789 -1.2283213953758845 3.1541517109500647
Ni 2.4806571366518693 4.812522706157446 8.523841416917817 0.4199166820662703 -0.7798610973439666 1.3063371499297307
Ni 4.754620216766551 9.261348333490886 2.547218722794948 -0.5425590741905559 0.36116337528646186 0.33032145020494075
Ni 4.049852137225746 5.742472346951818 11.878415101389155 0.9355164540591631 -0.7820586192159177 -3.079436995744993
Ni 1.4905714906683805 4.21495400041116 6.51094911850688 -0.4578713069331727 2.289651183088147 -0.6768444498704086
Ni 8.310264753294847 8.7784866176676 0.9970611598188619 -0.48066567911986896 -2.0494520408925996 -0.3139383808612271
P 0.49729886163835235 6.236633025048466 5.751969481354344 0.30029430771523125 0.4047417740980449 0.3384703045643203
P 7.097240446376174 4.563804768341098 7.991191067834489 3.289704383378115 1.3021822472210929 -0.024263500533054986
P 2.6069727780135286 1.0869151250005467 2.198016035358988 0.823126335790505 -0.45595223553358893 0.3261182107568706
P 5.215813075539016 1.5773595331135977 6.574336859931644 -0.812123299811782 0.24191201112159624 0.2761187389102922
P 3.918318702654794 4.350541547691491 6.476693743016662 -0.8634522891030613 1.5790396640696227 0.030222546329967306
P 3.974165982130517 4.185693066550413 10.156132300339463 -1.4428496151678893 2.4750966265815824 -0.9388686583608477
P 5.531020338693207 1.3103136274235998 11.303185307433159 -2.1435690718836824 -2.6835773546279267 -3.4086104483884196
P 4.444443056418441 6.635606515156161 3.8642873278301466 1.2137352700315933 -0.30270677381146577 -0.3338837136349024
Ni -0.01608506755526625 1.1054683213580503 7.736581528261316 0.8208321404396896 -3.7998775850387974 0.7699052716828354
Ni 4.603651440943 6.392078216988623 0.17613618199024572 1.308934478343262 0.2238160728518339 1.69024501800156
Ni 2.4760493372530155 0.6322801689163083 9.541152494339219 -1.3473716992735376 -0.6318727702557247 0.6817912523527225
Ni 6.308133684152068 2.126954571798903 12.863874178933468 1.6248870614210404 0.47689515633384316 -0.2911846321044792
Ni 2.5961242727078764 5.748281364931228 4.549947585871957 -0.8575798894826843 0.5716943009936154 1.6446223350664384
Ni 6.342096262613274 4.762559520822418 2.846838297962384 0.00024374057968990284 -0.20276645127038628 -0.08343152625277889
Ni 3.7816050129551915 4.613477033551146 2.7918431329172435 2.2107890213736057 0.210097951934793 0.021223428155150544
Ni 9.348690062625579 5.489925524909945 7.842561852886974 -0.724678538634552 -0.1049514026024257 -1.7611946097372442
Ni 8.546426203136313 5.424027424342221 1.656313378128747 0.25497347229124473 0.5319859266603999 -0.4412946335214142
Ni 5.486453252450524 3.3754429804044777 7.838647569527988 -2.7132229454085013 0.26367074295492654 0.1513166201305265
Ni 2.8262514760860786 0.7117267012398891 12.332184804714585 1.2280611997359625 0.5392786036670713 0.8385305861607172
Ni 3.3561577914744474 8.281698273925983 4.900895794057788 -0.5246096888009869 2.036994788965853 -1.3085017616812173
Ni 2.9004079543951296 6.961840589499055 1.9514274451670797 -0.5159931507765694 -0.438936931922515 0.9785104411221858
Ni 2.6660858705051402 7.087396084727705 7.837892115655061 -0.29048374938271265 0.12058216716114718 1.088287804358345
Ni 3.358006541946085 0.18147972776969065 7.372804681015947 0.23033561913790657 -0.37827715214861307 -0.1476772236057263
Ni 9.1700275678081 8.94194618982491 10.209657849527455 0.22516101691550255 -0.005281560113913484 0.46326728113776344
Ni 5.450810844880569 5.892436979118186 7.8397877887275005 -0.19275766088413254 -0.164262124547601 -0.507530621831513
Ni 1.2255151032524296 1.3163854119675074 0.5110978600824967 1.8332420625227974 -0.9296016312366249 -0.05608912968408405
Ni 2.396111994525035 2.2326524223677264 6.460224848586827 1.3660569343878666 -1.022515385948226 0.401438934977057
Ni 2.4233834101117355 3.271978645633877 1.3795770169209147 -0.35889231986409803 0.61213261151432 -0.5521184357442168
Ni 1.116448209945951 8.641416316201894 12.733101828947541 -0.43096188413683845 -0.8758051542414594 -0.36262016233764643
Ni 1.2913381276588691 9.015248676799345 6.325661152456017 0.3041144527922698 0.31724353397506005 -2.6089130330448165
Ni 4.85647041406953 3.0562285271417116 4.888053078218008 0.22305836875020293 1.04640839051574 1.7780859861759444
Ni 3.9931602509355693 6.706506564969485 6.20076726589869 2.143969649756211 -1.7859533047391627 0.23769951570214548
P 8.10782188439041 3.701367365582072 10.875252126561872 0.09299371601991727 -0.262308058279445 0.7150885809532717
P 3.6271921182327 8.177051489615147 9.44764325855498 0.815068498483035 -0.3329833133078201 0.14706684371523704
P 2.661252842622432 4.725819124393674 13.158961030863335 0.31695299931783477 -1.2768249994032268 1.2516811531477476
P 1.847014335408242 2.4171239351646157 8.46364065853959 -0.8139685805506369 0.45250310064272387 0.24029118768872165
P 0.4643911032431968 6.419227633813236 9.552223412772676 2.7995539046962623 0.7656580663707072 2.499912914294314
P 6.353883219934986 3.2298609191531096 0.9273951744066571 -0.9850739532723163 2.0640723619089356 2.515218177192817
P 1.71657888969608 4.975897817633309 2.798023777895014 -1.4124504340507416 -0.42180644288981545 -1.5654195021830266
P 0.8261174328334755 1.042592036282039 11.63322855850924 -1.0912258039407465 0.2801923947590335 -0.42262482502605275
