# total energy = -381179.46988739434 ev
CRYSTAL
PRIMVEC
9.08736363766450 0.00000000000000 0.00000000000000

0.00000000000000 9.08736363766450 0.00000000000000

0.00000000000000 0.00000000000000 13.30027524852325

PRIMCOORD
 96 1
Ni 2.8283964043561873 7.756019178255022 7.4478476037585075 -0.9613383002182734 -0.3060517790242987 -0.016862065862661285
Ni 7.260721526491846 8.035610086294755 12.89662521308276 0.35443119876895085 -2.7956933932995915 0.20566819829821353
Ni 1.2485037626245956 3.2130735821190486 9.173518819536403 -0.36639814132284 -0.3568205249367339 0.6433895126460726
Ni 5.454980643543642 7.158170631142011 10.69572215254408 -0.2765015761710077 -0.6419964889532879 -0.07710532692443496
Ni 6.907722897350121 7.473874721115306 2.252853699310142 -1.599363463228639 3.050473518633108 -2.1642700518764597
Ni 5.590636803559801 2.2741853760265087 10.967978649627955 0.3053246710502871 1.6781016977708068 1.9666360367366322
Ni 6.024958247277128 4.651421452386836 9.823702400890374 -0.7031656042634405 -0.030128443954264235 0.1149643067537375
Ni 5.262010482909725 1.0936550912235146 2.443273945789415 -0.9626068825180518 -0.21208027247214442 0.4148184416077566
Ni 0.4956847734416785 6.955240720281826 11.814953627902474 2.2635853392390306 -0.713913329698248 1.74393890798059
Ni 5.310664226259571 1.9057109671080212 0.1542498141566366 -0.989496250709728 0.5648217422434981 -1.0830121577817025
Ni 7.063053199008494 6.723203984627178 8.909255567250906 -0.28647591377490017 0.9786989029839082 0.10764720426703396
Ni 3.462794326843327 5.725257004154614 4.094197054371911 -0.23400252646653247 1.1958254796307082 1.5042257042825256
Ni 2.6345265947511014 0.35233525161752993 2.024674549395503 0.34629365726348105 -0.03567688457631921 1.2333196199214242
Ni 8.147602752160184 7.9023802522917475 4.109851855206573 0.500340531840977 0.33270974793145924 1.2234434984582931
Ni 3.6152348469579474 8.763562414420047 9.61742834031918 0.4502454149567988 0.3724212075884683 0.2286176080055353
Ni -0.2693603543857817 1.5093110906299372 9.864202053110631 0.14620706681810303 -0.5393685922777163 1.3157417310730823
Ni 5.3090921124008625 2.4475995307416984 5.680095534538301 -0.3214544867326141 -0.7897356761452011 -0.32528388778103334
Ni 0.11496968609729552 0.1500260076738184 12.676066726069353 1.07652115074072 1.0680624784504056 -0.7798744670804053
Ni 2.3911397422783813 5.807288633071137 12.983794837234623 0.2556000501316501 -0.44006436065873894 0.8371679014852356
Ni 5.221489929753773 3.6768653451646456 7.683023114712565 0.47197303644187755 0.590512462141383 -0.3834491832678557
Ni 1.9628795699122583 1.6058734135353296 5.495207674863546 0.30627032279300803 1.1691793377980897 2.4987484616725677
Ni 2.9607084146613367 2.88120307275476 7.482787607084213 -0.24212824089746043 0.16641105256980374 -1.1353245940321737
Ni 3.652256765226023 5.218091255862693 6.815113577499862 -0.5237913066647495 0.31577466273901744 -0.8638068442290027
Ni 3.1764333331114694 7.868102717753902 11.828067601945836 0.07460801442387796 -2.2510324422746844 -0.48001107625500555
P 1.6656682643463105 6.715043532343248 5.108076908997498 -1.1593867771877 -1.4530430107611234 1.549146733164932
Ni 0.24889742960520927 6.50005469032407 7.4032522768785975 -0.4602904578976266 0.39017673179967644 -1.0602836058359353
P 1.9254759823836873 7.972916366576676 0.4284328322696808 -1.3381977460837535 -0.36755102398036055 -0.83437362656955
Ni 9.140070052535634 8.560596154106483 1.5768938118276978 -0.48765882260825044 -0.614060424664652 1.1566387821289177
P 5.18192354974906 8.4320826616796 1.10689447088104 0.184704708672669 0.8249631318889274 0.09356347248045822
P 8.219810941300619 1.0539160513152441 5.224999469477663 -0.8504887869638578 -1.2745061214620632 0.20141096568375633
P 3.4587504501547426 1.3786711551802928 3.9774208004416027 1.0022273251231513 0.10358486127220225 -0.5678361035897898
Ni 1.0717908950151227 3.874615458918103 1.3406814327159609 -0.5860814229532229 0.6663911157475685 -1.137134907768035
Ni 4.423155972520418 3.391458524584026 3.6063964773684702 -0.7558261678819499 -0.8294872450115263 -0.94835088681967
Ni 1.6192681871060568 2.6476850968748553 3.3005294582162827 1.2771520437253423 0.398867574705455 -0.6005006837023464
Ni 7.434508263104186 3.1708991288342823 6.6561628702847875 -1.6529663361557596 0.8434917868207344 -0.859948646825177
Ni 6.233567760228021 4.228631872754483 12.26555326557994 -1.2976038838217911 -0.818033751758946 0.6234097270900361
Ni 6.283530083899567 0.49690248012992644 9.968582234701843 1.190680445094659 -3.2706838764115544 -1.1415358650492082
Ni 4.508895245681757 8.07774819012614 3.6243912742645046 0.4187180337724789 -0.7300202625624396 -1.3291729168773239
Ni 5.186730764958636 6.636728635034884 13.248815975623103 -0.36195398950855723 -0.9744491265686186 -0.7314636798771854
Ni 1.7141584351559447 4.849898555207904 10.917184832210332 0.37710987131338924 -0.3478545739926977 0.3150634956046058
Ni 3.005490941226156 4.8052341643665715 2.06546590597914 0.9933981568672955 0.07304041282644196 -0.7173344395646549
Ni 7.577134430806062 1.4463810994648854 2.911909273497968 1.8507525606027353 -0.8447775955116936 1.778137922459802
Ni 6.898453786738084 3.560010939909569 3.9970386004310776 -0.6093558201001311 -0.15375145482426425 1.7078560462151038
Ni 6.455181290125799 0.739001653216641 7.289308554102968 -0.18734754561215478 1.0430369029403457 1.1511487055486238
Ni 6.49146713196292 3.191472919447665 1.771955883503665 -0.7245602678891329 0.9792609461349651 -1.2956274768217106
Ni 0.5525116913841386 4.0610608926702145 7.153726001729905 0.01471005251666499 0.12983248211482157 -0.34908870351011495
Ni 8.293436759122892 2.972340239743108 13.214474829541842 -1.2322564687642326 -0.6841278709056993 -0.36305724987506505
Ni 8.597163704207302 8.713354731938184 8.495484287002265 0.8317523868966191 -1.1954087038082637 -0.12552408454745478
Ni 3.4365500215025806 7.052984400422086 1.5584991709444778 0.20141919321387244 0.39399739109734727 0.9678128521990236
Ni 1.9163159201317925 0.9937577059704581 8.170704647256184 -0.40354286869393724 -1.2434456526118325 0.5333925771999395
Ni 5.295942697640455 8.932878168266582 12.158858532544723 -0.8561048475990547 1.3016654554856746 0.6244633651655309
Ni 0.05981575174667459 6.281621737597089 1.140720363460632 3.199963627077857 0.5916509466212004 -0.5101847716249085
Ni 0.6332983515223786 1.5499861289627563 1.2131530104756902 0.7749189228473429 1.3630875673468978 0.6422461430702487
Ni 4.417639942969922 6.093522403716163 8.680703835439118 0.6053325578733509 0.9414657296640624 0.9824329161050436
Ni 7.847937858491051 5.633392848098655 2.8351401366946116 0.6013699736811772 -1.8204497958541357 1.9837351583107643
Ni 0.017372312506892394 5.869882391792419 9.747053217283174 0.07828803437862646 0.016116188835572243 -0.8964624254804949
P 7.406028466380536 1.1854192862826765 11.941412467477022 -0.3780023012206716 0.18132062269178453 -2.097670509579355
Ni 1.5948958786144078 0.3328792066955983 10.874437875034822 0.5448769236904552 0.26516429678131753 -1.0097130919772355
P 7.746250262659002 4.6460053838331365 8.24139524671798 1.1700033763612818 -0.5961244090115217 1.6293417547582842
Ni 2.581338257092033 8.566866434814624 4.885310192691222 1.8392741276494904 -0.6659226607515821 0.6485474026979282
P 1.6328992321237576 7.682993126413526 9.400780145753181 -0.9342900378512297 -0.2769175806625037 -0.43470052524366426
P 3.444710473786511 1.928502074377617 10.795301480080058 -1.5042784118973318 -2.241645858853462 -1.0427044593015915
P 4.787341145940003 4.129897670009603 0.7047786428588669 0.10904588438677348 0.7859417563204077 0.4285355340835329
Ni 1.17243344406248 5.011844457381534 3.6749324629811353 -1.2213447069477354 -0.3282373139824024 -0.10233093426044311
Ni 7.4837617724348116 5.974387070261458 11.45865265092113 -0.2936644611035394 0.039156358484487404 -0.0005666711367474112
Ni 4.0739285991669245 0.7148083657828911 6.766860586873535 -0.740278449955338 -0.45416454750554686 0.1438622207350103
Ni 2.9059479631435594 0.7001504487071903 13.004490398516833 0.009644979288931776 2.0295077365601886 -0.48716825612507714
Ni 3.763849587104267 3.5508417902943292 12.021373995023525 -0.2986971384314404 1.5856862228518627 1.3529985585420117
Ni 0.5463868084895183 8.670289717045593 6.2718246511747 0.2909424341866861 -0.3258312756440711 -0.6877927213517961
Ni 6.944862951341683 2.454178781803575 8.939712774238457 0.5156074853023765 1.042055769973999 -1.3269026327859084
Ni 3.557902671613498 3.8464809820015686 9.448967707363424 0.2577582341252335 0.7312034842372632 1.7528724630247943
Ni 1.3603328559498127 7.269481744756555 3.0510168141126077 0.3243950574181768 0.4090463150106697 -0.27477713728073316
Ni 3.2902162095558904 2.6178967198295067 1.2590014847608941 -0.6292355897431937 -0.4910261964185867 0.10978841897975286
Ni 7.239711542437896 0.8734546463259035 0.6995052459096858 0.0009759907600241256 0.1910321935525936 1.962955759671568
Ni 5.285964772687497 5.707745654988541 2.54869190427464 0.17491343361386005 -1.1369449032444163 -0.6802503902281639
Ni 8.213767844676104 8.147702713156981 10.673909754306758 -1.4724298999281673 1.4584652102179594 -0.6300048638090505
Ni 4.7176047196294455 7.3760401673415945 6.001390170441524 0.7388743705189598 -0.6903707664916174 0.10286932326241639
Ni 1.3164590657195065 2.6742201978426463 12.024619092474072 0.09607903981346035 -0.33645713078903344 -0.1347618010956389
Ni 8.852836671922642 1.5784386635963703 7.397187370582055 0.6890847006903422 0.7270640081475931 -0.6071750103987286
Ni 2.3935569809281874 3.9591824622079193 5.453804738726782 -0.20737103992193318 -0.3325004601341306 -0.938161604991494
Ni 6.452818575656066 5.560884775967833 6.929736126317374 -0.46474515123487053 1.4574665937501157 0.1758565142534197
Ni 4.724120359147906 1.823615726648082 8.875619600565228 -1.7901940822933877 -1.075383437591851 -0.5183925042466815
Ni 7.989873386578696 3.6564460397281295 10.58530341801003 1.5599960171746103 0.40233830686287486 1.1320302395516182
Ni 9.082437994200795 3.013478733606529 5.021877815250897 0.377115270630028 0.12910923079555184 -0.9726866353515571
Ni 7.266710098936289 7.840849715081846 6.64336786269484 0.2784435303887269 -1.0609091552350762 -0.8565033685890538
Ni 5.791403921943842 0.2171698092220089 5.116203738037052 1.554073481042588 0.3462563762676424 -0.9366261421835742
Ni 7.218101792403169 5.608984190153626 0.5319342658254175 -1.2820109144795404 -0.9100252517665939 -0.06230811401060238
Ni 8.192358016634968 5.335827135362247 5.249791614155857 0.2710325826366365 0.6843932087519439 0.34623555033203596
P 3.9265860898889238 5.581922022111817 11.119987519983683 -0.137151384373738 0.43020597980742037 -0.4412864059912981
Ni 2.0191030869286015 5.491166524383965 8.496973705854531 0.5621323683367933 0.4427943579953923 0.5751038408957967
P 0.1550958476840686 4.7743098669030815 12.78186998876041 0.8544937943581927 1.3643003567080763 -1.604755580778488
Ni 5.330483765715309 4.680664587631477 5.285874807790381 -0.2403644641288183 1.5887455785034768 -0.9100882437940455
P 8.470204150912437 3.596842023547397 2.612439758140754 1.5520137703000818 -0.9530871159530746 0.06170184788517115
P 6.28714685451093 6.6216617866086525 4.3034235992939385 -0.10737878109699574 0.23749614144208775 0.9161961564639962
P 5.270243634100416 8.132517729007262 8.34433962490066 0.5694325015426323 0.11108245520082806 -0.7763823947667468
Ni 0.8852791235105917 0.5247279866927262 3.8225784901948634 -2.3623262421553703 -0.5736928194808829 -1.3770921091561057
