# total energy = -340887.16755781457 ev
CRYSTAL
PRIMVEC
9.15226754910845 0.00000000000000 0.00000000000000
0.00000000000000 9.15226754910845 0.00000000000000
0.00000000000000 0.00000000000000 13.39526868350464
PRIMCOORD
 96 1
Ni 6.705106728948389 2.095539766463158 11.256647400517352 -0.3068827595660263 0.10925902883884409 1.1843825279010893
Ni 4.983464544984313 0.6085241958490953 5.860604129845598 -1.2038478357145526 -0.7483689402729564 0.27682142140427163
Ni 2.7725695994689823 1.3874013763644788 4.444549749747492 0.8912759961835489 0.7731793144484168 1.2585156595710776
Ni 3.1476386722028034 4.48341210783154 4.695536956407064 0.1519557963764222 -0.25596103301549467 -0.26477888841744074
Ni 3.6166923794722297 3.108631708292905 2.7575370001677135 0.14224422551561308 -0.42152953507934493 -0.9157968641430485
Ni 5.562400375365479 4.62958297141788 2.5550000669821484 -0.6104315696628133 0.46868793793270247 0.3036282571844707
Ni 5.378119470080214 4.373081523614312 11.342510312909914 -1.0221657159182913 -0.8045848253428918 1.544392249199082
Ni 5.835458275002227 8.12069708908633 12.740280293078598 -0.04155365507207037 -0.2685627809399052 -0.24980966870211818
Ni 2.257251180194738 6.803035990758787 0.0626115769131877 -1.4103629553940937 -0.5693489406898905 -0.28661141091149994
Ni 3.0667234755985304 1.803930220687188 0.41369987845115835 -0.5377140873934287 -0.11038131536874538 0.12590537914627348
Ni 8.111288558138565 9.159863840906528 7.1147365940605685 -1.1250160130173141 -0.8119237822064661 -0.8581979826826575
Ni 8.951430101797182 2.5315354836709805 1.3918887330995853 1.4165603424540572 1.934737131145507 -2.2691237525587566
Ni 6.936585877519285 1.1504034105158587 4.655203828942369 0.8206704180508448 -0.5103233540853017 0.5332072006620108
Ni 0.8839973788682508 7.298429923774973 2.186335751016076 1.147230087220508 2.679982952408449 -0.43271743337536445
Ni 7.846833789913197 3.935246200647247 3.7332346076138236 0.45613684074056926 0.5293191784615142 0.25804414079676846
Ni 7.851309248700606 4.023025597845707 12.441525572097452 0.37726568016496315 -0.04521156353963181 0.7104073734275185
Ni 8.292183124464032 7.450137909173958 9.126531282821157 -0.24505467051563604 -1.086897865989354 -0.4866406657563812
Ni 7.2878224457900895 0.7573922326555792 0.1454762064862098 -1.592762927192986 0.7762255574739083 1.3123419613629141
Ni 1.7741487423758764 6.506209652531235 8.884599329585434 -0.003082752690381788 0.304808650645817 0.04885533093980619
Ni 0.3712901015000351 5.168404413526621 1.452556368404499 -0.19124405245308354 -1.363540595723916 -2.459723743669938
Ni 6.307147835299822 2.1551210276206985 7.139878787996956 1.176664333321225 -0.6825021623768182 -0.36373499266838005
Ni 3.5253802070346283 4.6051372650351174 13.509798364890495 0.7201248578255984 -0.8302318364870347 -0.2609967956671892
Ni 6.409168160664353 6.115096654941936 4.650007171479197 -0.7624573000452224 -1.514569766521011 -0.04261063558167501
Ni 5.35890886068395 2.970414165128361 9.295794232433089 -0.053450920730288586 -0.4188848983676463 0.8010061068526979
P 0.31344319502595885 5.866045152849924 12.468007657989826 0.4160924232241737 -1.2881720489849298 0.7109938420586077
P 4.180188334650206 6.371973345711321 12.30636671671768 0.09382161123785132 0.2500276982501952 0.6306810639404686
P 2.46798213843627 8.753237749974364 1.2761217020117614 -0.15057357131691487 0.027993399889132433 -0.7044316154600578
P 6.67075826917508 8.185110747462177 5.760956987433163 -0.7659383166152872 -0.2665256959052184 -0.14627648660345774
P 4.969681230191186 1.2516732499487602 12.77497379333511 0.741624165349955 -0.5073642714569778 -1.215302100298081
P 4.489855304122616 6.264315223592096 8.067916877877508 -0.05255129173415465 -0.13110209285586452 0.01162781404691546
P 4.994483875004847 1.595450720240549 3.7243935172485108 -0.33721020690497405 -0.41232961374763183 0.13558455410725037
P 0.29127914892070284 5.93865924286896 3.559524571243605 -0.7722696581499539 -2.9546932410069884 0.9343491732239393
Ni 0.8752038802937248 9.026707501646763 4.4901609898557435 -0.3072355149197547 0.8663684343085919 -0.3529494720171018
Ni 1.9443534603093304 6.674547307903071 4.64892171255857 0.4879233891235467 0.24259515323154993 0.72820583506152
Ni 5.971076574208439 5.722958603397236 9.699916262988491 0.25467419588327106 1.5286496416528448 -2.5261633633504106
Ni 8.963648378854835 2.581351275449858 10.107466732934004 -0.05581402164582645 -0.3758101786653592 -0.16618325282971377
Ni 2.8206190036282894 5.656284334959036 6.740150761048579 -0.4926573042641063 -0.13255682302452013 0.7486795295348396
Ni 0.4195234662352663 0.21531624423844903 9.2243836655849 0.48755392159927 -0.14532517843378198 -0.07802809584902046
Ni 1.4172377682805437 0.9930667806296402 11.450691029501042 0.5370890522149202 0.0800150443720622 -0.17985869343427735
Ni 4.287205798047306 7.347788102180905 1.3338780010379945 1.043023276093591 0.10050827922940755 0.09296929053988504
Ni 5.953989290862644 8.173661260871073 8.482366327033553 -2.1009286115053367 -1.4267786777479554 -1.703209548582028
Ni 5.26302970678435 3.442460663856853 4.876976082646338 -0.9735029606052653 -0.913326291115369 -0.7839164983602628
Ni 0.778611764759075 7.89863562373066 6.733252697064793 0.6950262629857579 -1.9700494332935554 0.2993892794024586
Ni 5.388644577657966 4.310370186985821 7.383243986316743 -0.8284536615406893 1.5571994282660795 -0.8026629257298306
Ni 0.7478619765506104 7.2916480935879155 10.995479211536482 0.272583214953208 1.2477239682722125 0.012621031198120199
Ni 4.809351808845902 0.34796188697400504 10.427064827826085 -0.4006953719428132 -0.20293562985839889 1.5476261827553477
Ni 8.38409934655392 7.380296956194973 4.616291133387298 -0.06599893259862827 1.1485948287785186 0.6624179900324334
Ni 6.980553370391915 6.319411873694768 7.1173486511933435 0.49211480149707504 -0.08314227714713424 -0.2701653495403347
Ni 2.7284282135146323 5.674204474643593 2.2773431529472954 0.8811646187811598 -0.42209543488514406 0.8101386652815853
Ni 2.467460459191112 5.450559667017531 11.143216028085043 -0.6779837056811744 -1.240794845252547 0.7445397963348532
Ni 1.2131971175514789 3.934944175821103 3.298478107419938 0.08331068440419846 -1.549318997076738 0.5381275207817636
Ni 1.5620266394805888 1.2390614253903744 2.354352161800103 0.3091599856359772 0.29757408057059076 0.2798990318883308
Ni 1.1869118054094732 3.280831620532403 8.00033745018762 -0.5899180230904938 0.8334385163497905 0.11246956535634178
Ni 3.650510007732923 2.3963107319655017 6.945513914425456 0.5711643966320744 0.5505284655492777 0.4456374838711422
Ni 4.512168532187452 7.198139376960175 5.9761789633167846 0.4550335803740615 0.5164346091893621 0.21786114081997962
Ni 0.5039824207996315 0.30825935073722904 0.21866688935515805 1.1997011605360306 -0.8016684230270451 0.4372646864264147
P 0.09600453996378726 5.663203449157976 7.841590455885983 -0.14174311750947846 1.0697573496543256 -0.9518311320587864
P 8.40698001520121 1.8185097827492407 8.001797236847318 1.2045890847559513 1.5361289807490255 0.5574722438569625
P 2.028975325234464 3.3430029733808166 10.177121894883573 -0.7575488070000115 -0.6410217837448444 0.5018379423221099
P 4.177241304528435 6.295506151092081 3.9744966148715526 0.3158906194915915 -0.33523945633184843 -1.424295763425102
P 7.302127439828375 4.138600431316893 10.25697176755563 -0.7389777288660434 -0.5392328380308004 0.46977988544530064
P 6.566074633980003 8.01973842674703 10.534065817141759 -0.3099526567406017 -0.6850043599733816 0.19643768083888102
P 2.6878196027994234 8.564151904273169 5.753254439139739 -0.40726634029211145 0.9879998686698598 -0.35620191751612845
P 7.340274090597134 4.327484927133994 1.339090217355847 -0.220395220095743 -0.9590528466182063 -0.08143480753772428
Ni 5.610010470686758 2.945757956594043 0.5472662392930812 0.05241836570071618 1.6239735484678355 -0.5311150940196724
Ni 1.4398255643691475 1.1475204462663002 7.0217056257941834 0.14361668038310751 -1.2560263174903208 -0.8173837768797729
Ni 7.0846604127370805 0.7207355710291303 9.3661861519131 0.47209490673172244 1.3628453694291045 0.18037831338317323
Ni 2.522529652491407 1.3355629334771808 9.175531607569445 1.3950101270871074 0.380008533017423 0.4732400760797592
Ni 7.081594403138344 2.0580337744165216 2.4294995994517676 -2.6783711278366384 0.10441841291709114 0.01608636403890133
Ni 3.915349171191564 6.957764224419215 10.168764044240092 1.022519242602968 0.7820244235438726 -0.612494622839429
Ni 8.381930259166158 7.264118073071497 0.43964472624369233 -0.42758191192101197 0.6893392399033096 -1.4571315790082002
Ni 7.778576179204604 4.035454377054914 8.081110786646281 0.29163894603307833 -0.4035585524232211 -0.5134374742342512
Ni 3.4030326956438444 8.749476168048751 12.696959865515314 0.45023127388941164 0.22896419271167665 -1.2398623061359486
Ni 0.21924714311205332 5.0006616555396155 9.951491960445672 -0.18057628832659223 -0.09436385689456651 0.7657732517923328
Ni 8.872464338161658 2.3646713433600306 5.7635415877635605 -0.6098826391378788 0.6432247049334341 -0.20820947666282855
Ni 3.65129710273439 2.5093686918854865 11.48892096590368 0.07080946661339418 0.45689583039378084 -0.41884633182022707
Ni 1.105895933863152 3.46805955593944 12.134880681339977 0.36812875086070146 0.5402394249184438 1.2446286171763403
Ni 3.0578457761633824 8.232592711039032 7.882405907845764 1.0811043992360283 0.5188239353571452 0.43112309230505114
Ni 5.380398384677483 8.235265173137035 3.7634407511352284 1.1520838157683835 0.48699316399979353 -0.5883298526677674
Ni 3.0566742859286413 8.331281611048519 3.30543016978173 -0.2039260187961262 0.04471096975412945 0.08425890725008069
Ni 3.2358299214369146 4.35073168647964 8.84732031377178 1.4703992426513839 0.815420739616131 -0.43491418391636705
Ni 7.503907480495087 6.321205718116715 11.521391380394421 0.31437186885421986 -0.27874177835543607 -0.0352379972666877
Ni 8.382708201900165 9.01061781545399 2.2727615278573623 -0.3118712139195532 0.2409769009018366 0.9252749788368129
Ni 5.167415968641058 0.9180456442689087 1.6495067575331424 -1.3118611650717535 -1.1644852747565302 0.2700373086029027
Ni 5.923448174352242 5.5479855541176875 -0.027254537265904846 0.40259053208299694 0.34867629856304466 0.8863003973458283
Ni 8.184973463450293 8.972580991894738 11.595372819171818 0.48657690239798135 -0.5763233151251945 -0.6661448040647172
Ni 0.6492106008377047 4.7568360981666435 5.627138024009374 -0.8112684080106545 0.9897484759298504 0.723704861867373
Ni 7.598184987589377 6.239503426510976 2.3435286903031898 -1.563285229448843 0.8354488619116 1.258859930284374
P 8.87888007765036 1.7373383226561179 3.494316496052323 0.5890960414098306 -0.11117681468684723 1.3676384199423735
P 1.9605346691766932 3.5425040994502592 1.1402050388863891 -0.3720280859151076 -0.05081296888680926 1.0783584610597752
P 4.795467819110727 1.0260973138888667 8.425811720724676 -0.3794205217244369 0.2423059041259053 -1.640890378827832
P 8.714432135948563 1.8256210945648181 12.35089341313205 0.15266053575293065 0.8897883558944288 -0.16248780625599757
P 6.403850693270724 8.315018031774025 1.673471054647567 0.6896549713715154 -1.5573601222136597 -0.5513093095793602
P 1.9241177969576682 3.0712446957232347 5.8670070561598555 -0.13688656074812555 -0.628956110829562 -0.29694801695081763
P 6.997503369725827 3.999861208907191 5.756322279191967 1.4152997305740787 1.1445980489142997 1.6321278021438537
P 2.5072819749048536 8.532045750027292 10.430131752651567 -0.6213731562759814 0.7610066836416247 -0.7135127518257196
