# total energy = -381174.93986723124 ev
CRYSTAL
PRIMVEC
9.14643866519151 0.00000000000000 0.00000000000000

0.00000000000000 9.14643866519151 0.00000000000000

0.00000000000000 0.00000000000000 13.38673752269499

PRIMCOORD
 96 1
Ni -0.03904614626372121 2.058881615426604 5.832989368390776 -0.08586250429177471 0.05512445177796958 -0.3973781346441221
Ni 7.740475473998776 1.728118957348611 12.186026941106373 -0.9266371492916623 -0.29576505238630996 0.5823116714981456
Ni 4.299658454733887 4.14560498986627 6.712899625110298 0.1368006859025386 -0.39310804651385844 -0.31794930179283304
Ni 2.236249352214161 2.2586947124697647 1.303800123049554 0.40753784878594324 0.5341813916498219 0.4609314339157352
Ni 5.368218580219486 6.220273358268087 7.944011171540726 -1.1753978079039757 -0.10023060008798867 -0.0658292397899834
Ni 1.4563782673755128 1.9060354804504862 7.684817566000651 -0.541799313206396 -0.8221020082910486 0.46783741700694914
Ni 3.4491311319268054 0.676634318033015 6.751253385974121 -0.33857057758761044 0.6654956005164926 -0.14071519046559636
Ni 6.8116637834542395 2.2770516146836997 1.2360926968767214 0.23345745259633985 -0.8072099216705647 1.1909311276528844
Ni 6.8873505626372555 6.743211837181649 9.411171260704872 0.6250331216260718 0.8953131423674 -0.37900657411546984
Ni 5.3085014827831225 2.0993728989846954 5.61715536954496 0.9024317556900523 -0.09942044548186749 0.2256353854487598
Ni 7.12585309483983 8.693397176619014 11.177015618587413 -1.2324307895585678 -0.839238153750703 -0.8161609602162653
Ni 0.10751730005731298 7.027547173068345 10.25219268990411 0.09023749343101878 -0.3469351475022218 -0.5265572994456609
Ni 4.806197369287916 3.4665642438449713 2.06871952475461 0.729299325236015 -0.6898681158235861 -1.691636499032448
Ni 3.821199106595794 8.379692626477738 0.3757978923186368 0.14054755453948056 0.8282795978566703 -0.07720765683025413
Ni 8.043341494432273 8.396000726451552 13.438275907076614 -0.16655940522220994 -0.10237721411734628 -1.0108652033038075
Ni 4.697528532614392 2.8024504855731203 10.43172264477008 0.25927569921102445 -0.6789051890541791 0.39014999232679903
Ni 5.78613765144974 1.5628245194760486 3.2430710173389916 -0.5399889994705345 0.33935759226528006 -0.15161203988375824
Ni 7.011074437200234 1.0703345345685602 7.436185353079623 0.27703019498096804 0.5865488495079447 -2.556627593377539
Ni 8.125211266089938 3.821821064418688 0.38699313313072276 1.1449096666174476 0.06830366947240495 -0.9533925630086354
Ni 4.9305706409895045 4.476230451365684 4.240837708277577 -0.6493315891621204 -1.0488167428469162 1.116259864091239
Ni -0.16854782607261076 4.687028421133775 2.4497327163469813 1.9289737462991683 0.2913586957884982 0.3335582119746836
Ni 0.19880973273181618 7.079544676349968 1.7521100657228772 1.4919612850928758 0.6069855200957418 0.7381007255777289
Ni 1.2919893269215748 2.810343862060727 4.078911903731069 0.02802039647232594 0.5594190831706882 -1.2958979568742781
Ni 0.7991408016220652 7.111859043824723 12.600828906071298 0.5405533566144368 1.3752434859831413 0.6236331559547518
P 4.802584526051989 1.4215211899777518 1.1209783649415337 -1.5259600106358235 -0.732714521565151 0.6782914667295802
Ni 2.8797927701376618 4.1965963849049785 2.7234380613253384 -2.141714020952815 2.387342818804366 0.18867757727748796
P 0.5889300332102939 0.6945878623059264 9.451679007852395 -0.10661464923746154 1.0117213806565157 -0.31378694288502734
Ni 6.196154199753814 5.211229108570269 0.48343409607738536 1.266866088418302 -3.0619360107467526 -2.3539832695073137
P -0.19820606778606645 8.342741014646995 3.730134420241733 -0.13886528174105117 0.9065753455447806 -0.03899952119164896
P 2.5030784046741137 7.257662421100427 1.5303848457928582 -1.0624968114371702 -0.079462771413018 0.6911919768413322
P 2.532493351121555 2.6118204128562126 5.817648046974018 0.649722653952952 0.3876040859764937 0.7970386375645176
Ni 6.730178162216598 6.928536975526816 1.7750008575369354 1.3980612552086051 1.2625476635486064 -1.8014326313216846
Ni 2.7840295582891814 3.9160751139027936 11.968746890322329 -0.5624051623822056 0.05367460670532047 -0.38575057770752275
Ni 6.757425402722484 4.664107446072429 2.6202131848898484 -0.13879329085253517 -1.1465546584200383 0.8247373890313666
Ni 7.845860739224964 6.604862807342097 3.704565551213803 -0.11310848449192132 -0.7707095127516855 1.6355031463739897
Ni 2.5447221394922734 7.790972961354598 5.590101118892943 -0.9666990503095543 -0.8351876378304133 1.0308678716779793
Ni 1.4864426109615636 8.207199941449037 8.419722014887945 0.32669593763721155 -0.8783397477378551 -0.8002738566723637
Ni 2.9646717200855024 8.467928319381489 11.547667724565462 0.3052002296572808 1.1615012524275417 -0.21285700273716887
Ni 3.552970649034331 2.3800130736883163 3.823600046720935 0.20972565619703878 -0.7646890175892186 0.8339990168389507
Ni 8.523072197531869 5.835747934264081 7.5600793514000415 0.3733792006263634 -0.2764175010976337 1.1052575994434644
Ni 2.2520361051893736 2.019670833268587 10.754704427554904 -3.019904644707315 1.0286420676712542 -0.47523833745671057
Ni 7.011787859408847 3.978966025523629 11.414148014291909 1.746444448011263 -1.7595691583186797 -1.0932153235669493
Ni 0.13492094466277918 9.003177904612917 6.408659809603291 0.2112266662225975 -0.9182347841605799 -0.20142330697893052
Ni 6.537288919172416 5.01975756350474 6.335769096691726 0.1119337474575298 -0.1181686726236481 -0.08460523484590592
Ni 0.9863885213550596 6.177577783014152 4.032566899486919 0.9870400758597516 1.7432989604037459 -0.6516391542493745
Ni 4.491934886393749 6.1819772199672665 1.4565840622433819 -1.5331840391880887 0.6465673961534221 1.0346389086846375
Ni 5.515009772860962 2.9379824123325067 12.918603621377102 -0.8580046357249288 0.44912904196416836 -0.5290988349205921
Ni 2.503096697551258 6.665238448355642 10.211751711758165 0.12509265343699102 -0.5199637053885433 -0.8386141470134589
Ni 7.501424155481883 0.6933229098514234 4.570754320787662 0.06198621189480937 -1.0918058448139325 1.041420193272529
Ni 1.1256064628589482 0.23408205844074437 2.0008081330016223 -3.382120115407375 -0.9574520777899899 0.48647251560963317
Ni 3.416652128557755 6.63683875658969 3.495183450136652 -0.10934336102253428 0.7044894652811867 0.5764917223822589
Ni 6.071625438596501 4.206812956789864 8.868017323259552 1.0509427880509836 -0.7520263345198855 0.41441426419080246
Ni 1.6079347545129832 4.5215327616126295 0.7276842502785839 -0.25103762757194825 0.7109195371772465 -0.4734231386248427
Ni 5.834705240266876 0.3361096660671636 12.992551662587585 -0.25268879002212613 0.12878732867975887 -0.429911331385137
Ni 4.907997230593892 2.1432849505687024 8.122964900776664 1.5363464960764703 -1.275385695853539 -0.7128062126769982
Ni 8.294200865145575 3.1926467014917455 7.742312993507883 -0.41777058225754504 0.6813287108940073 0.9404108060369869
P 4.76490119913549 0.6768574911341709 10.770674109301556 0.2269970416829768 -0.9156868209277456 0.8851176898916369
Ni 5.470183077419759 6.959936699144374 12.783089072851002 0.27804372384714693 2.104940817988523 0.611982459089701
P 4.109668632717018 4.996370120076224 9.581249285950575 -0.5215883854761597 1.0454853644808382 -0.4853134623045255
Ni 3.456375111275802 1.7469514743682883 12.499919907882232 1.5487338139972293 -1.6139405897118657 1.5854005732906438
P 7.378029552707495 3.308266831479963 5.5675176474149035 -1.2134478206981618 -2.2686732952848994 -0.16852732758185815
P 5.489774748840909 8.881310757080048 6.350521387464449 -0.5432543004853676 0.14717123050358524 0.2489817734841841
P 8.886387030487487 1.6065810816043322 1.0682427440671516 0.2053576090363302 0.5366380807204306 -1.0251857336915378
Ni 4.0112712465598115 9.296988950860168 4.459644299659281 1.1738057808265074 -0.5753514381302285 2.5165777765445045
Ni 6.944479217957753 1.5640958744375517 9.723925495878524 0.865133019239594 1.8016216074040392 1.060301346447748
Ni 1.3994782730193147 4.291243731247679 7.165197415000998 -0.7181255680073826 -1.3411671131247225 0.0931073587796461
Ni 8.165327545666578 8.533563162573914 8.505638170969846 0.6436931599294204 0.01778123524282099 0.8926672201041206
Ni 2.9506502297546793 5.910483483835611 7.636464003846097 -0.14606231371012265 1.01074616122744 0.4437459232753841
Ni 7.507963859060838 9.266897167958401 2.086965755061824 0.9214057256893937 0.0933708968536779 1.1762012776418775
Ni 8.181544181254674 2.6321072136088324 3.2595638753719602 -0.39479700418050717 -0.07465737960457465 0.3655419639701318
Ni 7.197131290631158 7.367200169438287 6.55043875390733 -1.1370734584024804 1.3759582526619787 -0.6885835926842077
Ni 3.9673774878529486 8.022332125032468 8.197180932637306 -1.2278984489058529 -0.6697083530462595 -0.8230170639061504
Ni 0.5513656099952312 5.017983154421779 11.877891657411565 -1.0667949245918917 -0.8014025709601682 0.7680929010644449
Ni 2.996729987280242 0.7137633707720523 9.284411683179858 1.4052017229081282 -0.8562532002514608 -1.448335320872809
Ni 0.14717808699307028 9.251256758000341 11.411979393706496 1.4015201602914829 0.12688985454672985 -0.09257668308715668
Ni 4.765111567222646 6.660564618245368 5.713847859552352 -0.027497176979004258 0.6171051250282469 -0.6109470758466511
Ni 1.3860513011956692 4.5713991447069855 9.868956913738753 0.34667855140672554 0.11207387257981989 -1.9517683755961803
Ni 7.336568746660775 6.168166097723598 11.556757455218282 0.5594033994414043 1.0667910679371497 1.5729518060043297
Ni 3.178625211160922 0.2875164672220247 2.504818971934359 2.045654778633696 0.1503056623675089 -1.6908098893660943
Ni 5.508406044212003 8.339805007865394 3.0067151542692567 -0.7811769879419127 -0.05037613845970679 0.32699649959676585
Ni 1.437719532688703 0.35898125036022077 4.223167703600396 0.9265078228026495 0.8475016793110758 2.065594712090733
Ni 1.6025109164398075 0.46465645768913993 13.28692612945087 -0.1590744096990744 -0.8722236075377882 -1.7427145486551856
Ni 9.032245286394623 4.533377399563324 5.113559778923391 -0.36557358853901556 -0.02486822399658943 0.1456735629121362
Ni 4.985577322561305 4.823429259557499 11.549648843160151 -0.7636484921398461 0.15787576140528295 1.3809852735629249
Ni 4.876570067660619 6.837703694068626 10.716993661322688 -0.5789998335160931 2.1899422598315836 -2.751919847758067
Ni 9.058230318377579 2.907899775869312 10.53157431466023 -0.8025150872980565 -0.6092522046427314 -1.7475659632102163
Ni 0.6809221684355525 2.6467140760082617 12.631270082926516 1.531637520636575 -0.3467024626661255 1.2221198945508631
Ni 5.7484177387789535 9.028376342878682 8.953919759683595 -0.11573923724654907 -1.2028834149187542 0.5499096010183562
P 8.161065305292043 5.035608341549957 9.636510238514676 0.9765324914602084 -1.4668403216555317 0.7530501477987096
Ni 3.0223491617203178 6.16970269940369 12.561552269555564 0.38557137181718115 1.3055591341131259 0.5530003241285378
P 3.865678237371263 4.47518775736848 0.346543923190062 0.007244597377555265 -0.8456630834404404 -0.11347486669240457
Ni 2.609350874441782 4.955778225693841 5.128887380682292 0.4736177711341521 -0.5780302705139722 0.3993601980711574
P 5.741320102447108 6.281133760525946 3.7060646524957486 -0.9509055349207235 0.9063799417045229 0.20300273565090843
P 8.414714339769793 5.903788290800933 13.715649888566185 -0.7235074011445861 0.08138184281260179 -1.174358568006184
P 1.0274560305431852 6.281289249981669 6.323064693515265 0.9891666352844514 0.6090809691721897 -0.7604562104547935
Ni 3.1588871967226204 3.3160504507047057 8.62396381748765 -1.7336722359472594 0.9019321903458144 0.824323955643032
