# total energy = -381173.0634651676 ev
CRYSTAL
PRIMVEC
9.25181760529220 0.00000000000000 0.00000000000000

0.00000000000000 9.25181760529220 0.00000000000000

0.00000000000000 0.00000000000000 13.54097025339713

PRIMCOORD
 96 1
Ni 8.674818493871635 2.503449252327375 0.9433032679820804 -2.01341057388801 -1.1707086299584226 -0.21748061755210932
Ni 0.6209431218055126 4.415272541616283 11.771300910653933 0.44341733629137187 -0.030348273274554187 0.02931906067909144
Ni 7.884037910907824 0.11803561072514832 12.80978502500171 0.526391720402074 1.0096339019998677 0.4699048410589391
Ni 8.937107515282186 1.9414938674781022 11.79219428973864 -2.024270399420649 1.1095623974664053 0.35018142235366145
Ni 0.27188870707600415 8.381702417105178 1.0740101677274718 -0.41880056618395617 -0.876052237255259 1.6472895974859565
Ni 4.011356700461368 3.9276462572260007 8.912449571724395 0.7557189528801243 -0.5303116242817706 -0.07464298142687145
Ni 8.658535295364313 1.1088025519926046 5.555182479030006 -0.880569151289006 0.516188297506511 0.30092114266595266
Ni 1.0489432938435301 4.0427018575879625 0.8810894223215777 1.6276605104011195 0.5394896912366128 -0.1322158947453336
Ni 8.874389445576996 0.5479657118589768 3.2595281188359237 0.6063106055159042 -0.3850895470847562 -1.2777014884709093
Ni 5.943617254240432 6.88379618350892 4.009210278839948 0.07266837419900388 0.3600724562151283 1.3436723960450794
Ni 5.470007473110713 2.2265053522602343 4.85801270903036 0.018037831338317323 -0.9636587208213337 0.5896233746682104
Ni 8.097495840431078 5.017223532799165 0.2657741810001582 0.34709584144980227 -0.7646136842665928 -0.4713454301602076
Ni 1.5203141351784923 0.315444412719623 5.167179763689064 0.20637576588819942 -0.34132654306619276 -1.2568187314846289
Ni 4.257492048807269 0.4204645668197144 7.912123652787755 0.9120775063099323 -0.6330277097957743 0.7496159253061799
Ni 5.424331250934209 7.709631902350142 6.682590435680693 0.2662197346290254 -1.1126037553958903 0.01211786630945655
Ni 1.472537750467237 4.972389226000028 5.412610123554138 -0.4966851944765768 0.4939971061214525 -0.5921430557662706
Ni 2.739953458828889 6.681866018383464 1.2158081460925094 0.30062546580240485 0.3256543837465747 0.47437881766989265
Ni 0.7623367957530671 6.445269293708612 13.287781092729338 -0.34710046943549255 0.1118599567968009 -0.33513455532286796
Ni 3.6310792525940703 7.304763124009854 8.44814341810545 0.11290382468028297 -0.7950493750486307 0.6758188368193715
Ni 7.190530935390592 2.4181660001452774 3.366839948089574 0.5799326297430076 -1.740681063164925 0.3820137363729098
Ni 1.0581396002732333 0.9107766537819719 13.575228581015434 1.268375325973977 1.4613623292600961 0.20220569367090982
Ni 3.6139633905267154 7.563277403948254 3.4795825941181096 0.2770427933864583 2.907436364902554 -1.4024676118064168
Ni 1.4194970816931034 2.0989042875937676 2.2920396751618037 0.03453608610365665 -1.2890148566011992 0.034289260200173206
Ni 5.757970287622298 6.1368507110722055 9.807399141593596 0.3816149582725944 -0.14154977055174975 -0.34104603571129655
P 6.947124873158135 1.1097924964473111 1.600149917314504 0.8328127098403334 0.04039254488443366 0.018841043965903036
Ni 2.9950538181711512 9.316765091388127 9.942768957275176 -0.8987867027382972 -0.9220176482417799 -0.44751001830350673
P 3.549006381026769 5.221623933152721 7.331284383578655 -0.478438332451247 1.1171646352936953 -1.1347921185674714
Ni 0.2881719055833259 7.872066059278009 9.197215883347184 0.2519272292657532 -1.2746333910685466 1.1819687762532742
P 8.62611692742701 3.394898859699236 5.500693900843148 0.6908649325192167 -1.0982282034005086 -0.18704492677007142
P 6.215833475650049 8.232109782636494 11.852369960040528 -0.32392505976029373 0.1567105374525882 -0.8596907651781
P 4.038843849759807 1.9087609377514518 10.335510453454441 1.1887140653969077 0.20018429236550683 0.16518823590629614
Ni 9.02457419635504 4.729519769172924 7.29122956561411 0.5006017559221637 -0.9467143796575116 1.6291959732090395
Ni 8.224403018797517 7.069933496445742 11.638436487106322 0.7705033102781504 1.076146541010121 -1.284855068796555
Ni 1.3288015163707882 2.6175426636866312 4.744918493943144 -1.7422612631678511 0.8931058503034361 1.1632485741359513
Ni 6.703219212789656 0.03974025617519867 4.20016501306243 0.5376863194792869 0.0864451162681221 0.8795347964872209
Ni 2.2936735461029363 4.11522685366688 3.194125171740493 0.023216290215463245 -0.1020779377093726 -0.37948531352410125
Ni 3.4462556977186356 9.09146483567773 1.5632101862462178 -1.4684554886614516 -0.9688304948302605 -0.8782132494623198
Ni 6.41984529967559 0.5347420893439115 6.520125747755624 -0.8918969175969995 1.400679923778375 0.023097505249411832
Ni 1.2451835913087579 -0.11672740375416235 7.5012504449978925 0.40218146957003637 0.7916542333241527 0.47363499752533267
Ni 7.779890203182301 0.0220766865216881 10.083174537131491 1.1636239551974994 0.5686871387361755 2.2828074206934366
Ni 4.072289169421153 7.704071560132585 11.170812631791511 0.8460310083028204 -0.8815844799273979 0.3711767936584059
Ni 3.7041223504436753 6.255542275646314 5.174831016624038 0.03309755388491719 -0.7416971846797356 1.9084103203255196
Ni 3.3911333700444177 0.7642546974863442 12.255457763544078 0.2843115591337297 -0.2633462697359723 0.6775255350978331
Ni 6.766529398804203 4.113182202036131 8.345786862215734 0.1673839580060343 0.9201001195040928 1.018242726714801
Ni 5.788556795727527 3.4711245827116355 10.443053578141434 0.10187199234615359 -0.3792246036635469 0.2265023614347454
Ni 0.1611768349522171 3.231039922901978 9.553830883201796 -0.791522849952611 0.6567525642165399 -0.14129523133878247
Ni 2.9655590245112977 8.201032928212577 6.311893244662447 -0.22950283882396605 -1.089417289977098 0.5457665253842601
Ni 6.20160418059081 4.4218505837405475 4.191065850714731 -0.7460549474277991 0.07248608298486871 -0.936411969290239
Ni 4.144074020113374 4.987941530937988 10.981212363626684 -0.3383489484951076 0.011808819709469984 -0.2515266513932249
Ni 7.74852654242104 6.82265092275046 7.570999895876699 -0.3566654874161083 -1.048689987461065 -0.09877381303680409
Ni 1.65523338735592 6.427653833505237 3.407205627116531 -0.2732398747006004 -0.22984273866188804 -0.2902559496426227
Ni 0.8421920067054796 9.204383266235606 11.531598350900158 0.30238487169567274 -2.020109326064424 -1.1233738494282008
Ni 5.076074342858866 3.03637243438348 12.767712385676683 -0.23471549337315706 0.0990607481496036 -0.32436548973182205
Ni 5.421814756619441 0.35126744943573074 13.72417913936116 0.6456819082246752 -0.46181152252784335 0.3426010389032422
Ni 8.010871074735594 5.3879438533607455 5.409306299584271 -0.5096373837618707 0.9378404742066494 -0.3089339856681002
Ni 4.439447540309256 9.165932713396725 5.0245389447649265 1.024718564247132 0.5226062852177129 -0.46871544873652826
P 5.026077521987522 6.802213658260305 1.3790666399448102 -1.1097387751432695 1.725833456629131 -1.1057471374853731
Ni 6.680172935811395 5.822955052574245 2.0111452490931705 1.266380407031135 -0.20720417532676572 0.5541310952988715
P 4.432360648231637 3.2457595642799033 2.825919495130214 0.19945127085422426 -0.2518161576091857 0.5041020557659384
Ni 8.374125178708873 4.271610322058504 2.957916098211924 1.3884599846734154 0.321446259202498 0.06704177204084583
P 8.830286032347223 5.773735384358932 9.97644464718813 1.3098973564771637 -0.3702134013038721 -1.1790356617668791
P 7.636227983624522 7.767872092465819 5.45162133652344 -0.2503220895621624 -0.05321155102597288 0.8437154727957663
P 9.512533546169337 1.23198124797356 8.942618822867876 -0.3665446942030332 -0.914957913181521 0.16546514371676663
Ni 6.204481495781592 1.5277896035841263 9.181806981577898 -0.3500610947257133 0.47757984110569357 -1.7903036112880586
Ni 6.322543936777008 3.6080699828851452 1.4872453644826287 -0.7523510648491559 -1.103199945583487 -0.5229382146358349
Ni 5.234160145639892 2.871273754063505 7.0743577154947195 -0.04124949356809025 -0.9303120270400881 0.4859690936106533
Ni 2.4335332687365625 2.0571323323320874 8.84324135215961 -0.5147785616431779 -0.09063447175912133 -1.2065593211084447
Ni 3.8350078102636074 4.351888341063067 0.8634563836652683 -0.027593079126920224 0.4496373490591547 -0.15836349967497887
Ni 5.007435110060105 0.9443514988859891 2.8653775708767344 1.465007125101535 -0.15492259231422997 -1.181432958354462
Ni 8.089058183022738 9.043133341926453 7.840614506252078 0.15984419798556343 1.402965634488758 -0.8798389579912008
Ni 3.080096523102572 5.806255522286906 12.642323430534708 -0.629278270055671 1.0081987122152378 0.27154680326889363
Ni 8.412122392498402 6.670301246716331 3.55832296108181 -0.28971884619223004 0.8985717585140138 -1.5295346153609595
Ni 3.954328498416407 3.978697785273388 5.194424515373361 -1.1202597292792513 -0.5976549867234353 0.17232561828202578
Ni 3.1394006722116248 1.4489178608142868 6.401005824038966 -0.4653149076954115 1.464910965843303 -0.6826078347167469
Ni 1.3959882138481574 6.5499443550221566 7.376876414217422 0.40335543527347945 0.12853896011437865 0.08781011493644877
Ni 8.017273332330518 2.3774857593289744 7.4970121874773215 0.17765860045916498 -0.40794459730605864 0.07553901087857959
Ni 6.9187958084823284 8.254841497825408 2.1202315769114257 -0.42256826075650455 0.5433815700918513 0.26933719721208454
Ni 5.957578246596993 1.1971944147988272 11.506601790827952 0.002208577615544584 -0.40909336619852127 -0.1273102299136001
Ni 1.832192897497705 4.885718201217876 9.151786684693489 -0.322719983708599 0.472535850923883 0.11460435231115747
Ni 5.798955838410612 5.388360185140762 13.213116151301135 -1.168626036397781 0.26445030143342846 -0.27112591368139116
Ni 2.0815756337277374 3.484345429681501 7.071040013798853 0.18678704512299443 0.6199533931103195 -0.03213827529544142
Ni 0.6350993275078153 7.377325127358107 5.195765103705015 -0.3454009702458825 0.5332300834801462 1.9531991945054359
Ni 4.196069233528799 5.45427013182608 2.7833463324874343 0.7041400523615681 -0.12888425926893934 2.267057099837715
Ni 5.983529594218038 8.406710079358184 9.043269343641258 -0.9229134205831719 -0.8380467045457631 -0.25092012815747755
Ni 7.395329163889498 4.905646615754677 11.371503053394251 0.035449599056861535 -0.3987207647149456 -0.3288978303845368
Ni 1.7492133478317005 2.1298886238443475 11.046317402203968 1.6944852813351525 0.9934840317128826 0.8045963953071176
Ni 7.20155910165237 7.362004117853491 0.06972077024507138 -0.6450288480217085 -1.3234650678592692 0.6955481969274989
Ni 5.803220926201451 5.135952104642608 6.459814075738931 -0.9146408961617345 0.7409060562370079 0.2631107566863985
P 0.25327034987365515 5.809419643815033 1.8534878054546953 0.10977222102983676 0.9042299852410556 -0.510009936609941
Ni 1.6285326425308457 6.621396140290365 10.827901423771582 0.11796067037790009 0.6184510975331801 0.2309927931059312
P 2.231436570899099 8.133411395320522 13.100644583520477 0.06036076047624443 0.4315324119283278 -0.5426547192281557
Ni 3.23059583566996 1.7443746473661723 4.024146412743483 0.0048904953230819 -0.04762531518744701 -0.9694043650558595
P 7.263472263249526 3.1251066144310498 12.622296021552435 -0.17404671473819058 0.000933053337230651 0.2373835271236234
P 1.7419784266767429 9.033344919187392 3.07755134815407 0.08896376892491775 0.047820461917388604 -0.6930894509743613
P 2.5855591311640116 3.679447753614683 12.827225625857478 -0.5919368532927354 -0.8957407168231217 -1.073681881519712
Ni 3.879314763474723 2.0489999848957603 1.0114697329150892 -0.9903110333015396 -0.10976502194098516 0.019264761766882948
