# total energy = -340861.83879830374 ev
CRYSTAL
PRIMVEC
9.39207577964558 0.00000000000000 0.00000000000000
0.00000000000000 9.39207577964558 0.00000000000000
0.00000000000000 0.00000000000000 13.74625226908339
PRIMCOORD
 96 1
Ni 3.6634824602049707 6.307689899339533 7.023413971287679 0.8347832033031429 0.7763800807739016 1.2593854637705408
Ni 0.1298632922261085 5.962559291652141 12.519536483244677 -0.041550569748276825 -0.06594442521160901 -1.2192137766476616
Ni 8.405081296071515 9.260868454513286 0.3293998200090621 1.0364319960293182 1.0291406045742275 2.3129813731736553
Ni 0.27958049338601787 1.1820396938660789 9.771097665820916 0.04318630557948691 0.02599950938755522 -2.1717784444383628
Ni 4.620422274504181 7.917688916956768 13.632282381414322 -0.0527927183209994 0.5805715488785872 1.4107805025474864
Ni 0.14658118706605622 7.491035091735249 6.785026182945778 0.36963901685764083 0.6407435903827933 -1.6739748200866267
Ni 6.413247438725024 2.357213780356876 10.9973317721417 1.2217815373748377 1.024044678108559 0.3470199939065443
Ni 5.887751408281251 9.37775283725663 1.0727685277279397 -0.5779508234262885 2.6534422258054433 0.26990566812104483
Ni 8.948610111960624 4.015412930737376 11.168720248893573 -0.36325779592164537 -0.28875442539643176 -0.2329414321918698
Ni 6.105966896321333 5.385040553613722 1.9887804935192617 -0.19609958077317194 -0.214340786371547 -1.0281013646764359
Ni 1.503502270656467 8.824813161463235 2.8555779823660186 0.11768916188406828 0.8422000645925044 -0.305424429852945
Ni 5.40321422019535 0.3522920654488871 6.521978560507378 -0.5435957429851864 -1.2031572374054311 -0.47629634640757973
Ni 1.0953038742891592 4.533010225473061 3.144675466112328 -1.132589454489198 -0.5151302885556418 1.3238281076256426
Ni 3.8657595956925856 6.864818440918667 9.9833257055686 2.8843877106132068 0.9072044944883473 0.16317583346195771
Ni 9.091585681145187 5.208403784931195 7.376898830357169 0.34267277268144214 -0.8106891384684167 -1.0283664454123644
Ni 7.699933640628573 1.3817621847489374 2.1992353093648216 0.919656604208771 -1.2044705569002159 -1.4815403468698678
Ni 1.6347659213773147 6.514099548158371 1.1406751138356868 1.0890987302954147 -1.4344678188620974 0.5671717305329136
Ni 7.479210468362499 9.285964080924714 5.44075246856406 0.5429856202050133 -0.8493909259139887 -0.6320488908222728
Ni 8.74194687709646 3.3253583410291516 1.0680311647182377 0.042655372776681376 0.11209984072174888 -0.5160916240276466
Ni 9.194306813653338 6.033835754539985 9.57783880147112 0.4199724750048703 0.5837707725421754 0.8900930316190413
Ni 4.106591202145361 7.3133182343411525 2.5427269998333544 0.19787595594730437 0.9502774144184215 0.07246037195325586
Ni 7.392258631043266 0.012592895169326913 10.038627186808544 0.30920497994129975 -0.29818471757139614 1.3725404852296814
Ni 4.693098156679189 4.745355666167655 11.011819988197937 1.505144102331737 -0.3626078210424723 0.3191656906984375
Ni 4.5812948869181005 6.5438254679159185 4.774403478055852 -1.8927132213052371 -0.46021383902342033 0.5620351806372966
P 5.695026013834213 2.4272035288665896 6.035361027642237 1.2156407145844226 -0.059738553511213245 0.17805120791189336
P 9.11166593910463 7.1651018868865375 0.4853458458082149 -2.3328572861619756 -0.2596397674186625 1.1514958044753976
P 9.053707439634227 3.717167565207859 4.996968436377046 0.5535698234787628 -0.03196755404553204 -0.26768166388653253
P 4.127056535210667 9.428141323670292 8.571970029330231 -0.868060220188718 0.242509278385963 0.13681585541119018
P 5.726696093272586 5.175174620917861 8.803787121475487 -0.27905108206573875 0.8074678033176418 -0.1660194735583399
P 3.5739853703567337 0.09506565156206001 1.974924364161186 0.25651844818086145 -0.2680740142289448 0.10069648398081368
P 6.909374448289854 4.597101750410029 11.874727279267892 0.055789853276110364 -0.058018742606629106 -0.8851845385738303
P 7.145641505926778 1.309593474664579 13.105003734992673 -2.1072694661217 -0.05621382818740641 0.48978332515042106
Ni 2.6568867414008155 4.5359405531079275 12.748068227291611 -0.46610963568256497 1.3297766118995937 2.93802426499174
Ni 2.155678618853731 2.8511993966500726 10.506206042915224 0.32347871625149455 -0.8979127847737763 0.2880522571230846
Ni 6.679165279513473 6.545544217778677 4.059694689496581 1.4713461799456855 0.6924361336610785 -0.13124401775036754
Ni 4.107699467084188 2.152607410082572 4.489430054772588 -0.34973919260992026 0.6814665220234521 0.5698744741760573
Ni 6.906688314624559 4.77716662674232 6.507242393651266 0.010631511571917175 0.1333960310963638 -0.33937507576677683
Ni 2.786365897728635 1.0257837295670844 0.08121233982671008 -0.253810305221079 0.665070597163932 0.41576640734332265
Ni 1.7744730481999116 2.852570639709979 5.753411852751368 -0.3802173065941194 -0.28862304202489003 0.18293193304296237
Ni 3.7954411245315245 2.7493799034141886 12.28648245472278 -0.6604801495797722 0.9599769010943726 -2.624267146903384
Ni 1.3012063510173466 8.566747096004109 0.03390257584480859 0.3075124227302252 0.4817887369807186 -0.7272259876467541
Ni 2.191734797668652 2.2318483532087736 2.783189497709045 1.5286972070613287 -1.0107227641886722 1.1482762690968353
Ni 0.3682294787937789 1.494589190767079 4.313298579765561 -0.08776177819701661 -0.7427641924916691 -0.21927910421342883
Ni 4.446828538365555 1.285343135070902 10.559238398653294 -1.2502917289993887 -0.9151528028011464 -1.7295507575797178
Ni 6.82299552759154 7.5319845420173674 1.4912484294218153 1.6123513908478746 -1.5512547806468702 0.19137595004525748
Ni 1.6587626749256668 5.439768179025169 6.137482006509784 0.1945216947630908 -0.29401027447873235 -1.6499224071231133
Ni 7.655330672878622 0.42403155767134365 7.729118576822761 0.7209612376839648 -1.7673719421925498 -0.66909334517008
Ni 8.74886883692626 1.1753431438543471 11.793363727021562 -1.1751980331883438 0.2172628451143484 0.7332639663107178
Ni 4.446452855335444 9.236054590374444 4.100685464912012 -0.25986216784211374 -0.5874901303752914 -0.019033105372051093
Ni 5.617860719449376 1.6343902383472038 8.438590343942282 2.0150720207508326 0.891842153099664 1.132033581985728
Ni 6.176313543709652 6.5810180878969256 12.681701002399745 -0.10183856800505686 -1.1957995114887792 0.5789191008768287
Ni 7.360550983301882 6.737649735226031 7.956138196673497 0.6630972754876452 -0.7033049580547822 -0.3671190786492645
Ni 7.869789330617593 5.008023848745642 0.014338882051768644 -1.1575037012323743 1.1743200014587647 0.2689096227563627
Ni 5.391746495701207 4.150978152152997 13.500098307269703 0.5838944426042332 1.0855300391075497 0.3199388214190361
Ni 2.3401859470170865 9.361748740173892 9.888792584701724 0.780757898126623 0.7664060002803252 0.12849499425032065
Ni 1.8398137192119994 7.223558166371838 9.239171820316791 -1.5783979167205655 0.08062311026970631 -1.0733180704223901
P 6.569756989069343 9.38809351266044 3.4378275089611123 -0.4106159734906347 -0.485814313200344 -0.4277852861810697
P 2.5378703574615917 0.4442949611079657 5.342852288539811 0.43947969179986246 3.166070573874838 -0.9939938814697656
P 1.4324512175866893 0.920174533764954 11.773747437604307 2.114092402580804 -0.20266643535741227 0.33812886206450155
P 7.0433054485244915 3.3942867849788017 2.313549080974628 -0.0920748037500737 1.9910126658087839 0.8964981638144367
P 3.782940271704575 3.054659933682538 0.5732697629678613 -0.7106274598581245 -0.6810312342582465 2.157112614896072
P 2.061062847720229 6.635698752929608 12.308696592293252 1.2671075150051467 2.130302436681763 0.31030155543958815
P 1.2231675935875008 1.8048094528813898 7.742246820309996 0.5610568758844272 -0.15596131799138946 -0.2329085220714053
P 7.6753827546108075 2.0208178031195683 9.034972126922582 0.6779734212685292 1.8342789884277444 1.1998055473243787
Ni 7.649103726654529 4.287163250568301 9.18119077986458 -0.7208679066392101 -1.1526736268335827 -0.3798195569350684
Ni 7.352022978518358 2.1126441277544945 4.2736546280130785 -0.9109032834961732 1.389980792193316 2.0849566615571127
Ni 0.8719931851531945 2.9290878808678737 12.658552353291869 0.49424161803209077 -0.6610717604171841 0.47819202076839584
Ni 8.954320494018313 5.873156122561431 4.711225802089629 0.3286245221184921 0.5756355450295505 0.5532939441095568
Ni 8.621803444066904 5.868666710351603 2.265395908590127 -0.009206349089616402 0.16603258618446243 -0.2532572609310864
Ni 2.3019132383245093 9.010813829671282 7.358863227289107 -0.049499135171392164 1.0848615522856153 1.3454063480170508
Ni 5.58341058558818 4.294554814185739 3.887852575485849 0.13544751430875382 -1.0040510085954515 1.1101650640474108
Ni 5.891827569157957 8.238738242414033 8.751922200753487 -1.7434223733554877 -0.021365867270285784 -0.1832875166101682
Ni 7.7504254398755155 8.296668565657178 12.266660478846537 -1.024306673520694 -0.9771225596357236 -1.404576944839936
Ni 2.0722863782448004 6.65993030837178 3.650193612222363 -0.3819831402452905 -1.8274473102178914 -1.133525593150222
Ni 2.3314043561882376 7.850582535703158 5.388723186516387 -0.2611754873368986 -1.3109628216272005 0.5800956376834332
Ni 3.2424638804351185 8.555908640585402 12.121115237736012 -1.084346817432726 0.42917599588100924 -1.7895302234571437
Ni 4.612711380311149 4.230566602082051 6.188164464894509 -1.2105486447734959 0.2788045132725715 0.2777123086496572
Ni 8.370095813892409 2.5746591181852296 6.728653065862443 0.20377123838581682 0.05443436768948044 0.18421877017518595
Ni 4.039935640527883 3.859842587968334 8.8047629581462 -0.7037217338772267 1.4138015487619975 0.7556302498210599
Ni 1.7473299492743783 3.63651781071874 1.0316133909868346 -0.18125094579611364 0.684585270158092 -0.6505392363169764
Ni 4.9143003248086545 1.0525887137655174 12.72093264202668 2.90850054450101 -2.875790970083131 1.6669919610108903
Ni 3.696749192521316 2.106201163788088 7.562899498565217 -3.01723455407432 -1.434675563997529 -2.107363054276771
Ni 2.421643420020944 5.264145754523943 10.776772961201301 -1.8190241191512027 -0.12335098815553597 -3.8320513415578645
Ni 0.6028557407966924 8.233938891704364 11.295968787230107 -0.013390048153660811 -0.12084956188992091 -0.42910194810996416
Ni 5.3630255280492065 2.2129139284911696 2.106819162372621 -2.1578469219589356 -0.11683401297262459 0.0015712011418618102
Ni 6.803920221737644 6.447960550707298 10.357374514498803 -0.4333105868746731 -0.37303852945749305 -0.09166934078153889
Ni 0.6800313664648577 3.5829548027006384 8.808901106722875 0.053582046991514164 0.3628801008672524 0.20007167804704254
Ni 3.372703794898914 4.5878505557935405 2.666360528212644 1.5427652551186204 0.6622665520562336 -2.879257074254861
P 0.4674257652719114 1.7503729818182792 1.7300344417756348 0.36359126800166414 -2.1729092156086964 0.3217776743999878
P 3.0936934005110897 4.267449283563217 4.602629926198115 -0.46891496634184404 0.11805425853297087 1.9048022912592872
P -0.04556941234491143 8.419206978003695 4.589324172479152 0.7208586506678294 -0.9279034175985955 -0.07951290792466306
P 5.623758943022121 8.216676256470754 11.26744599237649 -0.2829835843509255 0.2864589444940357 -0.0930687922322268
P 4.276155737786043 6.09514722505413 0.8951765849413558 0.3252340083797044 -1.8239470103741167 -1.3870589905608304
P 2.1264974394898446 5.315858523618747 8.24696757918862 -0.2670941668141787 -0.7276864722229404 0.9763046917201186
P 6.058198799042695 7.144420536078917 6.282532285228138 -0.29215496643754846 0.4688352621438442 -0.7466164763582238
P 9.043601566124236 8.185391252138245 8.708154188537959 0.048170646167955744 0.13934762069410842 1.5627311567175861
