# total energy = -381169.58520730457 ev
CRYSTAL
PRIMVEC
9.24767771765526 0.00000000000000 0.00000000000000

0.00000000000000 9.24767771765526 0.00000000000000

0.00000000000000 0.00000000000000 13.53491110937532

PRIMCOORD
 96 1
Ni 2.15966563141736 6.413643556791361 11.58451669228162 -0.12824225480956625 -2.7908828592848254 -1.0372658047845233
Ni 5.203067075450921 8.240328061571095 11.354625901007068 0.6713145211911148 -0.727537862460218 -1.2121470996088675
Ni 7.86536247871843 5.198544961114104 10.268314162385558 0.2964032001909412 1.217903028256038 -0.7821663484383755
Ni 0.7803199590022951 2.57774388714987 10.09712485408814 -0.16285187446363567 1.2768980187330075 -1.2823132762113079
Ni 8.482691195598337 3.665464971834635 2.263875860535423 -0.1527744356229756 0.28874671208694785 0.8661781726746566
Ni 5.660790124970625 0.11573930875755331 8.935707177229615 -0.2357066536418328 0.10671877891549363 1.8580555220220518
Ni 2.7755332152395624 0.6699507766156827 9.032441583791678 0.34179474095186296 0.3174602779715565 -0.4112597777222207
Ni 3.4851537543719067 8.891188857357546 1.1400953066613864 -0.34702205078907333 0.1809375283207529 -0.5274769830464529
Ni 0.6425092181635902 8.189447339523708 11.477116939166077 -0.35596357625307723 1.3575463258136942 -1.2481458863009796
Ni 1.586494574983885 8.285197793191218 2.4648963271717093 0.4642342730367231 0.3339487625448829 0.7450182786331686
Ni 9.085907956490546 1.275458187244558 11.781977727817209 -1.9222479975395603 -0.0038751666846901004 0.025185241016375984
Ni 1.0064062557202678 1.237367003290872 2.942313230866643 -0.3223710850096126 1.5170904760603354 -0.1357107952724695
Ni 4.9871800423363775 0.7424322239553776 12.902234916533112 0.14491791569303428 -1.1416399947272402 0.37709367336347316
Ni 2.506472036037692 4.595374438609796 0.07746502078777491 2.37893608279791 1.2486140841866495 -0.5105141299398691
Ni 1.8305130432980206 6.99765289134907 0.5211371489918125 -0.40298879596268017 -0.675633717391759 -0.2718237110793641
Ni 6.570946552434043 4.157848316925696 6.1385695376267115 2.907630226080915 -1.0283366206156934 -0.7173493519629904
Ni 7.390864142067872 4.841630844898389 4.076985699394879 2.811557356915041 0.7978894156005871 -0.933322788841954
Ni 6.803479405193316 2.0948948976442066 2.2866824829842165 -0.44188907257230353 0.04167655380317984 -2.576190088890499
Ni 4.489654988510611 4.45991445741203 6.217125784368974 -3.1531880614852144 -1.2929219049650893 0.056542158061102625
Ni 0.8097691882570934 2.495615262558297 5.149031970580859 -0.3865604752033278 -0.10585565958424994 -0.23398067208966153
Ni 7.590429024253003 2.363928333813336 4.381034541954453 2.0209698742925064 1.469857768325617 0.6124807388823581
Ni 0.9923682811532136 0.5648758896438519 0.3203765420955357 1.2259351545318953 -1.3381080145834245 0.3085388071122106
Ni 8.470447270481882 8.85306993037112 2.089398078090414 -0.4228063449092395 0.6280575102746926 -0.575004596313771
Ni 1.941938310464315 4.583084275105438 6.018717786649152 -0.02439077013953864 -0.3624370997925629 0.34164870229230193
P 1.9539417959636802 6.1606548412242335 2.884587377874242 0.9225953751221208 0.2893061841348437 -1.2401772662732062
Ni 2.968014376398103 1.8934712322654146 13.285408738006142 -0.6965663537793682 1.11370290199734 -0.8254428997388236
P 2.41179431296951 8.029813929130764 9.99746725664291 -0.04701339263506097 -0.5162656877116657 -0.620120514815803
Ni 5.131194125296017 8.803206452857578 5.135362053581505 0.6065412334694715 -0.04513185934163195 -0.55969059166452
P 4.740109840420708 7.646312739871387 13.470363214381992 0.531590233883878 0.6549718181670332 -1.4053544464359087
P 6.716181328834296 0.5949215941025864 3.6446946879890465 -0.5849156847798958 -2.486070866204899 1.3084446831910368
P 9.141847158174413 7.959004461897607 13.473516672436908 -1.0910856788184564 -0.9576855339570347 0.9263023916600628
Ni 3.9101585206121396 7.405040831798631 3.200411288296944 0.6989639074772672 1.413083182538734 -0.6115060336739145
Ni -0.020331943928277474 9.157438742574975 4.5502337500365675 1.2848661245401485 1.4407451672303768 0.4496406914932643
Ni 3.768780025762915 5.858736663579185 9.540840056916485 0.9978721334782492 0.34875214610630256 0.18179293434251273
Ni 5.976024958331456 8.625512328150105 1.8197820382337189 -0.14626491663923197 -0.4085182104213416 0.03303764718125923
Ni 8.726349004486837 2.16674935244395 0.4380550888416998 -1.2371233099382306 -1.038660885359837 0.5685832661684594
Ni 7.400093324293116 1.507944801615929 8.725131085349497 1.8602005933895123 -0.26855069675504717 0.8155737202542277
Ni 7.472632107233808 7.871493688954239 4.617259067603824 -2.4796539069349617 0.3795645035014689 -1.7447020113988596
Ni 5.309554082789281 2.1331895305046618 5.0184205467385 0.13277356702101648 -0.15929218213683533 0.03536552398348748
Ni 5.72558860177652 2.6404061504346914 7.709430913660923 -1.9243539881389695 -0.11656327580974118 -0.3093638741166672
Ni 2.0192766380692384 1.0765498901676365 11.352000485341991 0.1207973684957468 -0.2656306948947748 -0.5528563423515059
Ni 7.912405414569948 5.871276514378214 7.540095764718377 -0.41478116061191794 1.0206065989612874 -0.5563648697253966
Ni 6.537479207270558 2.4496820480164274 12.821824510435977 0.08871488613890527 1.006840912635763 0.20855220471422792
Ni 0.45429770974392236 4.499143105708106 7.870036254967567 2.079199190248045 0.7116857259193098 1.211966351056629
Ni 7.657548668131579 8.171562331083205 9.209857353403983 -0.09936619520516435 0.16793031742780756 -1.3239764602780486
Ni 2.4753536009796306 2.155069535659899 7.0858646382530335 1.1977756613785435 1.49593312525643 -0.057991231802803356
Ni 2.8559417718011804 -0.005449656398132409 4.662343345343812 -0.49691016600318944 0.643110290842757 -0.6671344216714962
Ni 4.7934781877372235 2.3425384555698603 1.1291987681683957 0.20240418283496112 1.2395344904828847 0.20467858069143458
Ni 6.604830043088645 4.959806916698379 12.352839639158857 0.510715704427714 -0.7209527530435325 0.043120485338558
Ni 5.619832160967014 5.743436619506701 7.736433207427946 -0.5497653621310081 1.0295147000841947 1.025856534506317
Ni 4.19953684745816 1.5888527327668882 10.76386761135118 1.3628476834219496 0.9488969891311271 -0.1841022992019797
Ni 7.420410471937265 0.15321089831335258 13.327961926392373 -0.03649912336729843 -0.10122047480508374 -0.3002431427623216
Ni 6.403508102163237 4.325989590692611 1.2253330004554912 -0.36451326559530123 0.6301491026963986 0.09868690974995262
Ni 2.2879679101678927 6.393391142890276 7.870374719967009 -0.3953459347054417 0.13702720009104788 -1.1689800773030898
Ni 1.6597176860655285 0.12132305648060158 6.48828433684608 -1.6558086907005611 -0.3460607153170685 1.4630124632690096
Ni 9.066413852151053 6.052863911347038 12.089423242352064 0.873431254692644 -1.0161125677456757 1.1474928539635916
P 4.175381913618143 7.068536340002871 6.234884099626624 -0.6539508331016867 -0.20312357749948887 0.2168663810068781
Ni 7.593998627799039 7.588237324666446 11.364425664939022 -1.0546351493009063 0.6210165442675111 0.1701977733057456
P 0.9773408050850563 4.705051894713394 10.348387028251006 -1.070754423460272 1.450942933698985 -0.030090391627477207
Ni 9.003446415506078 7.431442951290688 6.287439576083822 1.910386213104968 0.13279310740504224 0.36825087826086256
P 8.85192321835115 4.428342886152529 5.84480781160758 0.030982564424443415 -0.5578275703138521 -0.3144703421052971
P 5.994353855295818 6.115100781463161 2.5810943207372503 0.47768165679088054 0.9429186600605051 -0.3534258974328881
P 6.571982292323049 0.8614969975708443 10.786200752707858 -0.015675501753727842 0.10495808747064504 1.2632619160068115
Ni 1.0477341268270957 3.591585275644783 12.36997466094759 -0.5575478342899043 -1.405038972078019 -1.6319321411932797
Ni 8.49647948287072 4.240864718564987 13.45404013868482 -0.7438304289726544 1.1750558511835245 0.6109144228365028
Ni 8.484439006661033 6.059170827456874 1.5379720107195025 -0.2930545954336824 -0.2338202352523973 -0.8591570041618171
Ni 0.3929754349405017 0.4567844102452932 9.29790171734374 0.3016909309524417 -1.2131251472514204 -0.02866085826980225
Ni 4.4817574718569455 5.720955515308738 11.920561574501637 -0.4480980295964928 0.7713918835306909 0.7344016794595868
Ni 5.256694357739687 4.398815051638297 3.5562979875334753 -1.2497430555847702 -2.1379329566438274 0.19458160146674874
Ni 4.565208514342516 0.7158035363626026 7.159007294539727 -1.1376540134962987 0.9190624222681979 -2.1128508168642193
Ni 0.7764904957162495 4.755775406241914 3.8808517055920797 -0.4803098384423469 -0.985318979403587 0.08294764463782489
Ni 0.20399451974614424 6.659862972369632 9.114923469666824 1.496318276509991 0.06275754284319514 0.8832317857228337
Ni 9.094794974645314 7.045639090313789 3.412922919094641 0.8853750573180815 -1.2531623656789646 0.8631766668441715
Ni 2.96062548201136 3.9551854627511296 10.689168570927704 0.6722102935325068 -1.2753008494492166 0.5578661368612715
Ni 6.829918515395692 6.955501976937586 13.529212660200411 -0.07741617329663442 0.13683411024363534 1.0388434336842884
Ni 7.581042631508892 3.8163593269140965 8.2368324394457 -0.32890914323844644 -1.1054339771203285 1.4338448405661177
Ni 3.423601212396734 5.737074217331383 4.581201447950068 0.0979114650365088 -1.837657932202306 0.22326508544437032
Ni 1.291336449650113 3.3369319781131823 1.4200419271431513 -0.4326001910712098 -1.069224874189623 -0.018917148619477096
Ni 4.094806898860077 8.013038641999911 8.195104143899641 -0.9480804067671025 -1.842178445780479 0.20909907835663344
Ni 6.806577377182751 7.939094212066996 6.728840474674112 -1.2702838558505993 0.3892747888106973 2.1148488211308547
Ni 4.281166097460391 0.6922395291199738 3.0575633374801927 1.2923302941276775 1.1744310731153322 0.6185503421152057
Ni 3.125567059335456 2.678691535617566 4.589471646010224 -0.2938166704106875 0.30045808698660514 -0.107291363589512
Ni 4.1117486441873785 6.038927661233368 1.1732926196395226 0.5280361979840326 -0.4128286648712374 0.28768098982659485
Ni 7.156694450376867 1.2045100048476944 6.304574597872554 -0.2997816297448708 -0.6981383262521782 0.5257260617936171
Ni 3.1684670356309526 4.090913626598727 2.5248702905839067 -0.21881913385787474 0.3252090686790399 0.12045849709908932
Ni 5.787501803177329 6.206338368471433 4.990172590801396 -0.5014077967632268 1.3353389364787196 0.4925557456892356
Ni 0.1419527756269681 2.2794785421490813 7.393459040396934 -0.4942804416898261 -1.2028556470046123 0.16683348481920302
Ni 1.7615253685482024 7.21776611311786 4.934706870209645 -0.4553274574653965 0.4233694165015612 0.8352277470397292
P 6.015752981216874 6.613596841434869 9.818521921158808 -0.2576008826117628 -0.10144107545632207 0.24789034019221826
Ni 5.81083369371269 4.0949178709910425 10.301027821826239 -2.7037147488077498 1.0798530433274305 -0.6089441864840093
P 8.671981907991638 9.33035181797338 7.362815935966505 0.2917675011911427 -0.6405168190839678 -0.08590081372887787
Ni 2.949750213176804 8.37009147337933 12.186535878927167 1.198546478106297 1.1399361246622564 0.9336621744592437
P 2.7981252915684913 1.7659365107540552 1.9103177265136377 -0.10525942076114775 0.41572552680305824 0.4771527808706041
P 4.270660735729051 3.625561243075189 8.894764009510132 -1.2961972332822516 0.20613536774261917 -0.6822041715204251
P 4.455355352364891 3.587470059121503 12.498028177171209 0.3558813009519161 -0.4943292926498906 0.37683167795133815
Ni 7.57757475241624 2.9657302000357433 10.704206219441202 1.793619048814537 -1.9789644763949983 0.45550692046605423
