# total energy = -340857.47665482765 ev
CRYSTAL
PRIMVEC
9.35914829898431 0.00000000000000 0.00000000000000
0.00000000000000 9.35914829898431 0.00000000000000
0.00000000000000 0.00000000000000 13.69805957276839
PRIMCOORD
 96 1
Ni 8.378290777349063 3.9175897027762354 6.724788533484525 0.022890788555244446 2.336778475593253 1.7094051358697784
Ni 2.929843916860867 0.1635791927668593 1.2098935923917893 -0.5096692654410706 1.4244664846750112 2.3185745509907165
Ni 6.149718478226381 3.8593758007845964 7.4392518706531305 -0.20391136350810685 -0.14763094374882318 -1.0679547492279478
Ni 2.2447917030055615 4.689663276875634 2.150184753120918 -0.7266570025171615 0.3458475708649979 -1.1546682886661082
Ni 8.916778729919953 5.958464284142918 10.452304230769121 1.9601404017099597 -1.694991788657926 -0.9205701171619758
Ni 9.009293910175154 6.252304101977242 8.240204968446355 -1.6667345935844455 -0.21278732584149804 -1.2783118683613985
Ni 9.444503662026152 2.3012180076852387 9.661638708710496 -2.176008937579943 0.7772509134146292 -1.674476956534026
Ni 7.808187622056669 5.996621531477309 1.678149560728683 0.617309527729569 2.311821805647915 0.4844539425177076
Ni 6.051288316289715 -0.28315167055547324 12.089729329803877 2.326777141406167 1.6652153287264417 0.5383411794544665
Ni 2.7486882437177544 8.749989349310146 8.833097649679207 -1.2439053658570707 2.474335580045842 -1.0542597682393586
Ni 2.5433578906961203 8.534232905160106 6.01505063025733 1.4214539231009327 0.6692920914444473 0.09413528582352819
Ni 7.442572496445194 0.654865217153725 0.676268653241294 -2.3596019012456715 -0.6654459782254797 -0.6821442648167672
Ni 5.0534720868786875 5.752357121818179 8.158221637694561 0.05839798032291878 -0.7470234819886554 1.6848035352710145
Ni 0.7236558925602757 8.107661647125553 7.692172556510341 0.23209168259706484 1.7804794261087855 -0.41290656929702435
Ni 7.4122207787347625 3.471542057274705 11.07999048146244 2.2014070659380733 1.0474831116371572 -0.9068494251417738
Ni 0.9684378631165332 4.406268268466176 8.520590074784991 1.1755232777382463 -0.13366008339102786 -0.036387794600414754
Ni 3.232144404695262 8.574552115735665 12.967213118590001 -0.3000755068362058 -1.6981059088068755 -1.183464129851878
Ni 7.677683659135219 6.594184427677012 12.015335332351928 -1.9437095098474462 -0.07962063714712095 2.44444007803799
Ni 4.777723502573275 8.030925990786415 1.142180154946531 1.5852841023174375 1.158497175493895 -0.14792507795047424
Ni 4.244804243199335 2.0022119400278626 8.724349026818782 -0.7013907717512049 0.671658534794095 -0.4609594589401932
Ni 9.04496162408032 6.178348112662461 5.438046974974834 -0.15424356396933436 -0.39510553655986147 -0.00032344477768976555
Ni 5.745262887459713 9.5873242640185 9.387882687063287 0.32438605855711233 0.1790354262020336 -0.7088012052826631
Ni 5.114596683969908 5.3870508480982995 0.9343265755620435 3.195025566346291 -0.35607799034375454 -2.6677812681359345
Ni 6.43827037731066 7.900768316349481 7.649709165075251 -0.9011557171911061 0.37751199184781437 -1.9487807537227664
P 8.172997860920349 4.187067657767435 8.896916745545893 -0.5648230277950789 -0.0727161967178038 0.8638078726702672
P 9.604357913797404 5.128485659943475 12.520834159241124 -3.003065204552473 1.2823492716555656 1.32913332188864
P 6.1089313102393135 8.5154303763657 2.9525342358300843 -0.7423011368123217 -0.14474719444312492 0.38499158805431116
P 6.397249230617839 2.79887199652791 5.086240336662148 -0.07118407634399354 -0.08141732403622752 0.9065270088053483
P 7.101057177526399 7.870968788384629 0.07632478973183512 0.3408532029742001 -0.27413616126262463 0.2432988641667939
P 3.3414031011342322 6.570271803948936 0.7240779901454563 -1.4326857872610101 0.08899076550811125 -0.4504755286897338
P 0.3295552633954644 1.3342214533961512 1.0707361610167279 -0.2316715643405107 -1.4752452578897752 1.146747491157135
P 7.7928479781074245 0.9074199603151363 10.75585322897742 -0.71284992143074 0.7517756519616601 1.1839467259152512
Ni 2.1017277631592286 1.4220570595362687 13.058004343741207 0.04071444700022666 0.5971513076141393 0.041494005478728536
Ni 1.186506016879425 8.93561869530728 2.953287647262613 -0.36148424896099035 0.2921459675764839 -1.6394515894987767
Ni 3.7211037448321087 2.288218150793537 5.925767163886006 0.5371780123843006 -0.6685253884817519 -0.4018035174053273
Ni 5.618858231463077 3.9323022837940576 9.85975315844667 -1.6275409541041197 1.633136445914026 -0.991673460866705
Ni 6.80810647877394 7.521451397729042 9.762319745796518 0.5179109366245725 -1.218262468477986 2.299280221537479
Ni 6.69041518977959 2.297483707541402 12.725237020673148 -1.4377693724315044 -1.3573390948988946 1.0264031510384066
Ni 3.0413675271715377 4.676120589386582 6.297381503513018 -0.4863539877538979 0.6947601538085647 -0.2630508499827405
Ni -0.10907338530401257 4.390704004959409 3.1730591660033953 0.11968922303323258 1.2524722815904752 -3.675983837005915
Ni 3.491355374077968 7.972852476018228 3.2847128684744646 -0.09790323750639268 -0.13977339537761735 0.003449649111497285
Ni 1.7544284906341905 6.630769338108736 4.260945966151904 1.043731100793893 0.1726061256369221 1.9603401764255914
Ni 0.9258593541582114 2.3141055547981786 3.557441255646001 0.3418163382184178 -1.578616717599591 -0.689148206938426
Ni 9.003706498681744 1.4049298182750631 7.168331670919662 -0.6129211688538864 -1.2037372782786173 1.5785542397927717
Ni 7.582304579521588 4.488394794185893 -0.04717291482451087 -0.21738368696292884 -0.2843113020234136 -1.9139294503715358
Ni 0.5163039635209252 9.04764769962238 5.315422478948363 -2.468351337437949 0.29870099508618236 -0.3472891884075309
Ni 0.31017527515525756 3.582616428470327 0.679517213591985 0.5535070885616273 0.0918176934339451 -0.16904874730296693
Ni 7.274603863158386 5.029044709997951 3.941288002009841 -1.46360150300326 0.06432977242632147 0.98310988756741
Ni 5.862214803743879 1.4747303457756487 7.058678954340203 1.5886735876149607 -0.14603788823009042 -1.6417444992980113
Ni 4.900524886501297 3.7643242913590202 2.559934814041392 1.7375021512163107 1.5925220148267734 0.07611416665575924
Ni 4.1775213265726645 7.340707527108056 9.534054800036857 2.8987576061816336 -1.2876092345029244 1.0996615934129255
Ni 8.782259692407763 2.3819500203186594 5.350530515789365 -1.4729065824542698 -1.1602488680776792 -4.540655600338374
Ni 8.973672992011139 8.343184612337707 11.164781556683284 0.69397879555785 0.5880107787654519 -0.055815564307723234
Ni 4.06296535223542 7.009842918875191 6.624778547326605 0.4475668396833711 -0.005033962879481653 -0.22751460474934365
Ni 4.63344287345702 2.217912229288522 11.07427859329757 -0.3934060373702515 -0.5725041984894205 1.2771245329215166
Ni 8.168074948951281 8.65718403545981 2.191963054905561 0.5338324929508355 -1.677408014137892 1.438768246009664
P 4.693575400835845 2.182768627684245 13.544504099723165 -0.2829319051773837 0.5913609261846073 -0.3092016375071901
P 2.4856774601536005 2.7216964602219527 11.344075695243419 0.5647795761516531 -3.4654323424734703 0.3835371149959717
P 4.427485457503965 -0.001704300892713416 7.239835563398138 -1.0713012971026776 -1.300751428311837 0.15933717644215784
P 3.2959082815873906 5.323286971206172 3.852127140480332 3.103297604412675 -0.7711039199766269 0.4436788174828746
P 9.501688057712473 7.061589649439784 3.1719501069381204 -3.7674217785029374 -0.3264933347081022 -0.9443847030830704
P 2.3159867435924424 0.6082323251820948 4.357133676172623 2.034644800676438 1.3401682395465628 0.5259690310423586
P 1.4754416410411415 6.303508001944485 6.739979366976909 0.2934644292775914 0.4045517695744259 0.01711454819309956
P 2.2322223669324472 2.549581724269181 1.4365150717222308 0.6670063807340642 0.4529885249195747 0.07848369532920031
Ni 5.179305834833282 8.487736656752636 5.047912752829967 -0.5330825021586884 0.12419199599959256 1.119419749876459
Ni 7.316373741709621 0.686743411940497 4.6357658140477485 -1.171131576428454 3.1797976936529433 -0.5055747836567229
Ni 3.50322277403382 4.471632559705663 -0.034386446512456675 -2.2176893480378648 -2.5970697605529853 -1.2067709228986183
Ni 0.1565626393387031 8.538191824861466 0.050801456593346624 -0.013636102726195871 0.4861971504610594 -0.1690790863202701
Ni 6.9770110268837655 2.2475807291781513 9.004432768584406 0.727020042283535 -0.4911033295134252 0.34221434498778486
Ni 4.213806744261022 9.208830950442316 10.924626749012022 -2.765216050646341 0.17668440947135378 -0.004365733167863449
Ni 2.107530435061932 6.452440127731133 9.811700483688524 -2.000456841940819 0.6452731028220305 -1.5508457181339097
Ni 1.406090352655604 2.895982518564123 6.597204624810887 0.8272676116523882 -0.1821855417952411 0.5525082149834677
Ni 7.459372167518343 7.9445784892148925 4.671024533175256 0.8252055869170369 -3.8462898537547496 -0.4333697222473826
Ni 5.760200088035059 1.8518478645619991 1.7664465728765477 0.3728852917090804 -0.08770212860367477 -1.2634601480605467
Ni 0.4916248255527978 3.406056097108226 11.549614757270584 0.2037411564788298 -1.1524671672497313 0.6656421533966859
Ni 1.1892108107179433 6.723350032401548 1.2434264845856549 0.24560720058499638 -0.11227107619229051 0.3572455282892944
Ni 5.4967775019487775 4.4112754127693155 12.31774719405026 -0.535513223087368 -0.07386882226500825 0.11976687034870344
Ni 8.080754095963824 2.1722208676288464 2.3957772259139083 0.6214736864095878 -0.1609502865655486 0.5990590661598135
Ni 8.780706073801555 1.395402205376753 12.873052600075937 1.9714650826941595 0.7510076634473841 -3.1246210484807992
Ni 1.3465100150223606 0.8110609778818056 10.709567561405128 1.2283327082297941 -0.7361659704488611 0.5907708580090922
Ni 2.0010326873508615 6.0930301173962595 12.614652132929963 1.5582589798788455 1.9849461478997301 -0.603289045080761
Ni 4.665600906775874 0.7403760108734692 3.3810231833369984 -0.9003710165062816 0.54858574000061 0.48597577847887274
Ni 8.252700367248451 9.365138085034335 8.911984974196463 0.2544430537090715 -1.1962815933315205 -0.5176556260806568
Ni 5.153025346602974 4.79084502839197 5.037927477583202 -0.4031217219961186 -0.3907104928159594 0.0511361565541829
Ni 5.298092144170562 7.010451263510152 12.558435473170643 -1.1425085133751225 -0.5207049544299419 1.713816891784229
Ni 5.363418998817128 6.282384404388998 2.7404063334488793 0.4632755086678796 1.710887119731944 4.55036202899286
Ni 3.164103397061948 2.9946185817618534 3.4495274688077058 -0.9232517777591971 -1.7721629358232898 2.039408797723984
Ni 2.686122337799088 4.525354070546822 10.622311286540459 1.0579750123074165 0.6839139551226802 -0.030056967286380493
P 7.051069966829076 4.008148821051331 1.9518091831491209 -0.6808731114138273 -0.46654800877156427 0.48650773972294276
P 3.195784113821064 4.606881610779807 8.471249581230374 0.7597846383090657 -0.504523459574073 0.49436323121161957
P 1.3357657128541287 1.1822476044346988 8.355542431660819 1.6278574569032738 -0.879067627042815 0.1024242653051978
P 7.943146539535677 8.98782402413515 6.5318103842970645 0.33626481227256927 0.15250961199736315 0.4999633510072164
P 2.0844788529710305 8.106707014006076 11.075319330580763 0.095822443717964 0.7006212405750321 0.7012671016891471
P 5.574486509703855 5.956405271532281 10.828316434149489 0.49715647768604054 -0.11711426321720475 -2.025588861121757
P 0.6362685896203832 4.073868759923564 4.934602481122159 1.3176901130487049 0.2533251380545444 3.2803134290815184
P 6.393271592620017 6.0044364202494975 6.485551858254641 0.5226533364055644 -0.17836411116662185 -1.4747791168866342
