# total energy = -381175.1889824164 ev
CRYSTAL
PRIMVEC
9.18355842987616 0.00000000000000 0.00000000000000

0.00000000000000 9.18355842987616 0.00000000000000

0.00000000000000 0.00000000000000 13.44106605043149

PRIMCOORD
 96 1
Ni 2.026747017870853 3.8860410348587724 7.423836949613276 -1.5441785905263792 0.16741866789871165 1.2785890332821852
Ni 3.663890761119706 5.24534540722289 0.40230689073044373 1.0564937997761998 -0.6988582351373384 -0.7123724675736893
Ni 2.6433219343060417 7.279558657939955 1.2088437092860382 0.692543348662904 -0.35080131532584746 0.656454830470463
Ni 7.880723563654427 6.423155118160586 8.179022983934088 -1.5690987508068268 -1.759602582659776 -1.0154476804681674
Ni 3.045570968619596 2.8078729307862655 5.86512997726171 2.9486115535892834 -1.6816706460689879 -1.0707636794316526
Ni 0.2769026479446197 7.88913570299899 7.341375943496788 1.0140191755517567 -0.5063024058513667 -0.9744133882346767
Ni 7.410653951764891 1.6713433141212912 1.4502776186099458 0.16290586763002265 2.08913418997357 -0.16043323771981402
Ni 7.534962596053109 8.924829850228042 9.08484325058365 -0.8770511108334186 -0.26105310282642136 -0.08637672492403188
Ni 5.627363062741606 7.259015038165078 6.763289319630446 -0.6854527603647098 -0.6425101953649128 1.4398380820350751
Ni 1.157660984166983 4.8921733081247805 0.3148821713871698 1.7496858377666964 -1.0914065524929848 0.5599096496538615
Ni 6.048952670701067 6.054113830429936 0.13767990508045033 -1.3495139424275209 -1.4940680470232333 0.11455627268204142
Ni 5.726674061510281 2.286283557190397 10.816536317655594 -0.031299581444229965 1.2814617268442898 0.36321614405043257
Ni 6.600498811264146 4.843959627383561 6.539401516673049 -0.45056320330753374 -0.4645633742413677 1.2904060805217712
Ni 2.9478028076346394 2.5232652774812867 10.867168947636285 1.279424641809603 0.1390565718162508 0.3939521396817086
Ni 5.04405099423874 2.377099764590382 1.2429532812877597 -0.6848660346233044 -0.8301400481041769 0.18803891525222455
Ni 1.3720603347545093 4.171410923497374 11.51209810012643 1.040710054579382 -1.961088881666158 2.003589731142846
Ni 3.2204351009993224 3.9380750758263443 2.2788384465281295 -0.6903612534099208 -1.1186767010628478 0.530650495678428
Ni 0.4929394269657002 5.0624640285027676 9.780149730135516 -2.1499376944141875 -0.20571036439005863 -3.633687390230549
Ni 0.9078636083571652 2.5359661385222596 5.5862684763452615 -1.916774890240131 -0.6542920184911893 -0.30130218015445526
Ni 3.072166553272277 8.285149101270013 8.68077770845093 0.07935735618340527 -0.5715665171664995 -0.9695881989318914
Ni 5.794531373319209 8.468315170295465 11.14596340857761 1.102470266506314 0.8182273558269909 -0.6459565020423005
Ni 6.386163745584274 3.7156401117819478 13.06732358555057 0.9573908855347512 -0.5320363202823611 -0.3108918807254194
Ni 2.0871013626006234 0.7259905843314012 6.960012157324506 -0.5460238928107048 0.011229293056916145 0.29205237942141316
Ni 8.628503976613388 2.786080347091234 13.354706510154594 0.7294888155390018 0.6218117864752969 -1.5107843313366496
P 2.9890553512326505 1.3832275415699993 8.995473453605902 -0.6889741432544071 0.19209303071694014 -0.7494192359143416
Ni 6.534478211102502 0.7698108508123159 3.5127018418734774 0.5836350182952594 -0.6129260539498929 0.014960735074890364
P 3.466471809711325 7.943355430826831 6.513378986054321 0.6929948343780258 0.890830424005698 -0.5472888755660575
Ni 9.270342861756976 7.450721816350403 9.5764639185866 1.1523080159640477 -1.2646868213787963 2.518710506616791
P 5.138485523583875 7.0985415415418265 1.853065727791978 -1.634777581061875 1.210799327331721 -1.6463154064981453
P 1.7786348249974184 5.590582912004733 2.3447130281138135 -0.7108745428719241 0.5955788209206969 0.45316773080991635
P 8.96157326673197 0.6974866562771921 7.171211956222463 -0.35304588838565004 1.9570885022575135 0.47865919021280146
Ni 4.506647533359751 1.108639150300958 12.409182047825684 -0.418148534422254 0.3266506862215729 0.8594614227761135
Ni 6.080268604287268 5.614478530535904 4.467030581483647 0.8334305459299904 1.2552778693600704 -1.4538912176940315
Ni 2.9475915857952018 4.680244334702851 9.692487156633918 0.648778801982444 -0.36653672378323326 -0.054400943348383725
Ni 2.585318580484796 0.4852270747587523 4.320294769626261 -0.4062389274688617 0.2708371787963787 0.6543151584196408
Ni 8.175892308931292 4.924830041213499 0.7666700738954594 -1.2285111427891875 0.8287812200834371 -0.05835735689297047
Ni 5.236547558432397 5.094597298772011 11.274607610709243 -0.4534243269054126 -1.1452513662275827 0.4056504019552433
Ni 7.3665636886718255 7.497438577099086 12.759281328337888 1.975128904698992 1.311098061653484 -0.4051325817785604
Ni 7.088944723184764 6.686365080774698 2.2958822122591065 1.8016738007982134 -0.7338555771481297 -0.35037116976696436
Ni 0.8860884734227831 2.7633694075725606 9.37967312256159 0.3776269201591238 -0.07492297456113549 0.06904748961696494
Ni 8.4001456175065 4.495122167773041 4.97722683273141 1.2616634611714401 -0.23256759379221884 -0.00902277232390059
Ni 0.7291396264506704 3.60563026766784 2.8509575942524426 0.24193360838815106 1.4500857279050123 -0.44207881998560633
Ni 9.084072750047614 9.205323269443102 4.966850330280075 0.1654114076606958 -0.20089468816897016 0.33832580856665606
Ni 6.188763161292367 9.191456096506105 0.8699906141901576 -0.7731098946630621 -1.9965582782173616 1.7607225551968322
Ni 4.373100229485692 4.060032729206039 4.3397437092593565 0.24112679621613956 -1.5001690177146487 -0.42529594410031274
Ni 8.691769509304105 1.8323770077969648 3.3333441944486695 -0.024822201250002413 -0.35939677030434236 1.6138462302258465
Ni 2.477604625929793 6.486797176738995 12.315753118107436 0.4189959700242139 -0.44918920577814253 0.08133736272791153
Ni 4.5492408764602805 1.6236439126413114 4.092347833928363 -0.17840936258226048 1.5104919969072117 0.23319262897072743
Ni 4.044879858115941 6.965095256808366 10.622810075014078 -0.8861237625586481 -0.3234344932771204 -0.636048241789653
Ni 2.145242469795416 4.772796234609521 4.83434811533332 -2.244044955213258 -0.0652877654642166 -0.5198279511416274
Ni 9.111485671383337 0.16533802742108483 -0.11147737672028886 -0.8571196620168142 -1.167806368709963 -0.912724395865312
Ni 0.28697425626250456 6.981304237095652 0.6982966461136445 -0.2225408056838361 1.3037395644058838 0.5253470811876436
Ni 0.20947053488203815 6.102832606874158 11.845853402045273 -1.0540435384634943 1.9825354815757081 1.086380045812671
Ni 5.539393758394912 5.4075637799110625 8.678855589712047 -0.054833145789795895 0.7300166630180137 0.8585977892242375
Ni 7.550446075239718 1.8244607805971684 5.825008848038426 1.9906478262701977 2.5101235362787286 -1.6646584277817074
Ni 7.015246668337472 9.05288538627672 6.4293595301051125 -0.4525177559307432 -1.8684929153052918 0.5123972058951949
P 2.9493089111854127 1.7291905474525182 2.301083779644216 -0.33879349223169397 -0.37545536642910177 -0.024178397018416425
Ni 5.507930887876927 4.585525115052387 2.0666045789727514 0.5740823416098177 0.5749999683280806 0.06459613871383069
P 8.279289991115176 4.341205731730595 11.528496261713387 -1.2820633649840305 -1.4404446052708224 0.15770401171410903
Ni 6.613622115983993 3.27612419814499 3.993905599768853 -1.4104691419546547 -2.5617893400841365 1.2374171870295656
P 4.356670843800731 3.3964655452750745 12.523834180628304 -0.1327180311927327 0.054015792094823094 -0.39781599351248903
P 7.6086606509004024 4.33161809693177 2.690094714759967 2.2875143392508024 1.2526738560783202 -0.7565666455924002
P 7.359657652878035 7.9908252433508995 3.9858938635633976 0.05299352147789583 0.37858979829302536 0.6565561319350176
Ni 1.0394502225477489 8.482283362373064 3.076054871829578 3.1720008233163433 0.24288157412371716 -0.5832830342724794
Ni 4.73803646668466 8.01357291710252 13.077431009745576 -2.023714269806863 -1.238291362104403 0.3854302182536265
Ni 2.6103070424461023 2.6296659832084814 0.1389068284608364 0.31626265811902954 0.6893950328419095 -0.28977052536577197
Ni 0.8615105165146447 1.5036056229330292 1.2897508573489227 1.1877722703089286 0.7389450758558951 2.156211700348357
Ni 6.984692970084893 0.8757964597072241 12.52033891836352 0.23787126539331938 1.2836962726017633 -1.1836765029730003
Ni 5.002385190520089 8.31216712960157 4.628821000358002 0.25214525881383026 -0.4444144100973185 -0.26080550559198956
Ni 8.403580268286921 8.847834897973874 2.128890225999642 -2.2133210437668396 -0.397451925304851 -0.5325052894989797
Ni 7.391285827444275 3.9789786442113715 9.45130028502657 -0.3399142360996984 -0.1198324334793162 0.8911721236158329
Ni 2.5451956145498644 0.08431149310112664 0.1397856949840621 0.07259715464143626 0.800548193379673 -0.2636213777742299
Ni 4.36072997654123 -0.015700211160988388 2.3780071001441407 -0.8607796273669046 -0.5336044361004294 -0.5145145093485138
Ni 8.492596498272569 3.530297539454464 7.49129753170639 1.284251116663969 0.7167338298661785 -0.9986964291517574
Ni 7.748223185419318 6.771257893112191 5.708689899415895 1.2488459976917974 0.3806960460027508 0.18043153521861183
Ni 5.137989611439108 0.7361117838637626 9.224872309860977 -0.49806921930829706 -0.9908165121830486 -0.8351475286210972
Ni 6.961017756951395 1.843176872282998 8.183552314856293 0.0006378906943150305 0.7700186573322481 -0.08155770626883373
Ni 1.8097854545353647 7.349638390842098 5.366788781341346 -0.7342407284016904 -0.035320015457532716 -0.8145936157291455
Ni 0.6868245451647051 0.41443286102581633 9.570388076457382 0.9261926055550759 1.2967893583402956 -0.7421157602743929
Ni 3.1853079907450055 0.05130394808777587 10.741521340557197 0.875598437547292 0.9615812694670148 1.2441429357891736
Ni 1.4236168306937866 8.348864628314315 11.709923883164684 -1.9945433046698617 0.06904106185906174 -0.026526585535618836
Ni 4.4831192571580365 3.0964203305746696 8.873831714629539 0.4036493123648145 -0.5192484244890735 -0.9897050242864245
Ni 0.11637313161612585 6.536994506059282 3.607407286186587 -0.3667784074803941 -1.4151176964702599 0.03276408180489841
Ni 5.565585266485189 2.71431083947359 6.100953650858987 -1.293131192762418 1.4174486585962816 0.7242237104853204
Ni 3.9809531092322024 5.9689271442288785 5.404101578455932 0.2503606561095817 1.5099965453280317 2.658960327410195
Ni 2.595034785098931 6.126875162337114 7.455933485649573 -0.4322361228635717 0.8537404611319361 0.5787411805380678
Ni 7.200947399436176 6.209361882416664 10.517485682312191 0.0565087337200059 0.3987441617537133 0.2582104911713036
Ni 3.8492333334471907 6.173013358916902 3.190223949468962 -0.916837389592421 0.11167226626602704 -0.6349930610522613
P 5.539191720113711 7.623538015243407 9.179252984321547 0.6779086294688647 -0.18187058165798356 -1.1801548629729868
Ni 4.5336931123660165 0.7348692484343746 6.40384760532433 -0.4499327688123864 -0.6890636176444197 0.7799827105234954
P 8.395223230291776 8.784422428351375 11.19682470915839 -0.24013486461651548 0.39008520052713463 0.0664236788408727
Ni 8.00548220229623 1.887358970958428 10.626076666678774 0.825237982816869 0.05438114585404183 -0.28175254015730183
P 0.5342654390296027 5.623368214908762 6.58036936996573 -0.7453656346702582 -0.46673158553728006 -0.5605110306832863
P 2.010216613045292 6.490525701382983 9.651975726185585 1.0141842403747114 2.4272409405508846 0.6063939092583298
P 4.216070567201099 4.60594934857019 7.207233545049008 0.34466332074890965 -1.123902468238161 -0.8714201377998864
Ni 0.9871406748330848 1.777863406105559 11.847264914946212 0.14998838823740623 -1.1086054328697745 -0.16397158989037566
