# total energy = -340862.9875060569 ev
CRYSTAL
PRIMVEC
9.28018238896341 0.00000000000000 0.00000000000000

0.00000000000000 9.28018238896341 0.00000000000000

0.00000000000000 0.00000000000000 13.58248498146149

PRIMCOORD
 96 1
Ni 5.299336734761241 5.427672375655566 6.088322056783508 -0.19852953037090323 -0.07970676910302402 0.38632881880849596
Ni 9.020346466477994 1.864899032172894 1.6627135566478044 0.8764751837252907 -0.08714805587241765 0.09256125646818898
Ni 4.962048509415646 7.454779714082845 9.050783608354138 0.2779465361476503 -1.0473285883371641 0.03398844113030275
Ni 1.9114669869062602 4.043913674512184 0.8474931592904978 -0.5915172492568135 -0.7004844578868517 -0.6279713783187895
Ni 5.533939743063252 4.10958024439925 12.91126519971373 0.6784860992388897 -0.07512043528392223 -0.9909759205790482
Ni 2.086686108731825 1.5094773306318043 1.453747051923099 1.0121109027854505 -0.3596813914242966 -0.7923779988640548
Ni 5.089548933903833 3.6558814124025316 10.438669206562071 1.7333241085792215 0.7320375501027845 0.5324016740415799
Ni 0.20473381358204118 2.6202873102491266 7.19976308879658 0.5001171029762613 0.43364534450627246 1.695379511014648
Ni 2.3086959096657265 7.57316699956183 2.71543794729111 0.9396086218506657 0.9629732647185351 0.8112666082384415
Ni 1.1740265813797153 8.899314329046236 10.96025071597681 -0.2163094800621436 -0.6846482621855434 0.14030047152568095
Ni 1.2374844678816594 0.8219457454631794 8.511002733449642 -0.5770169987581095 0.44890612732008495 0.16794111606108497
Ni 2.102351056438067 5.180754565454156 8.063826013566636 -3.6037440657038964 1.5271375758836927 0.952665969255256
Ni 7.347305922977402 1.7566549859373455 9.841148893482991 -0.174077567976126 1.4082109420480973 -4.309368415920475
Ni 0.0661797639677269 6.773438010501935 2.064374694469179 -1.0288505841376345 0.9277051855448605 0.6843656979481182
Ni 4.479581112318602 2.3384760146357086 8.722698539785961 2.327849548534739 -0.9876139460853506 -0.2537141459628469
Ni 7.133574044646561 0.8817722966348795 3.696269693748702 1.1810573201825982 0.9498020174438997 0.8837334079496005
Ni 3.2076857285040363 7.124349543449877 6.835507581733231 0.5274769830464529 -1.7703081420027382 1.3151087254747738
Ni 5.173785148554045 6.55114052391703 2.086228595744907 -0.1363420010985652 0.4405212456904994 -0.10104666823138081
Ni 4.834046955083778 1.6701544068082692 11.848327040441578 0.8314356269871487 0.16689236308159644 -0.2159253572498475
Ni 7.688946553817206 3.4018735429312357 2.3585165682918876 -1.7222603945658919 0.8695514600222636 0.9146241839911862
Ni 3.8621613043541583 8.73342179042255 11.252097600719097 -0.4677898515984653 -0.28410355688798167 -0.6670086947269093
Ni 6.070956051663431 0.6259130307966433 7.571447381783414 1.2892004902494443 0.422673161765485 1.6197330280239266
Ni 2.5570614283044426 7.315261453528555 9.526550713837493 -0.5912868784135624 -1.266464482104509 0.37808766184562626
Ni 3.5347471929655794 2.442144931002076 3.2535623096567656 -0.5156254830245055 0.19817908901002 1.2614904259286854
P 4.108745027993113 1.1898678525494752 0.4861117246824955 1.4675342623987628 -0.04713731980743495 0.6156370251231525
P 8.080514565379511 0.6030271732502196 0.1537549882060348 0.6809574435975175 -0.3087622359769263 -0.4834136741786513
P 4.407650419385497 4.083994781824542 4.786834027681227 -1.3596312333671812 -1.4943279855528395 -1.055732239019827
P 5.012282136153732 4.435945695189011 1.352387972928819 -0.06193993203790623 0.40233445020813285 0.9136780180278329
P 5.628476960055838 0.6485557475670578 9.983750958612392 -2.4680116947103428 -1.523633419385176 -0.39323531612034207
P 9.326583201879815 5.72225320210061 0.026027199251733465 0.18236551901653109 -1.0690914339355524 0.20230159581882579
P 2.2116530434547244 6.313781301474762 4.483931661776355 -0.5437888328325989 -0.19871362135725132 -0.16028231396424655
P 6.916816826889042 2.9662896267654317 4.34748142948728 0.3031294631711811 -0.2206047650033878 0.09677529454953655
Ni 0.9464579512538476 4.189881661758322 12.046930365602565 -0.5930658246908561 0.3096181562193183 0.27251842315354363
Ni 0.45067813266118456 6.373805520529247 10.756675997162844 -0.01717779733086719 0.24333794493484542 0.849271626727305
Ni 7.388565613440643 6.614162241851324 6.30031668498958 0.6276289073777062 1.0966004379890986 -0.6062969786691494
Ni 9.088119637744986 4.244291370527098 9.496004065810324 -1.4704768899668546 0.9428556680330537 -0.6888962388286201
Ni 3.4925130833618425 9.169395474244553 8.455355048363321 0.6505767744231311 0.6397927964337498 -0.9459708166232675
Ni 7.83484957978731 0.8564735916929447 11.593710391012031 3.6380716353411726 -0.6482905494921157 2.555702510460108
Ni 3.9917126491285284 5.846941731354797 -0.06394324003573383 -0.6523325807719733 -0.8201376854758263 0.060704259858592235
Ni 7.022081934609363 5.912849585981415 10.000755964641371 0.25283045780631297 -0.2418870714209318 -0.3479324784184846
Ni 6.173836152535111 7.902065940116878 3.962065250765299 -0.345145916812283 -0.4705833551832025 -1.1513322823143397
Ni 0.7574336302530423 7.159781279434729 5.968687514804689 -0.6414005072405018 -2.362006654032422 -0.2347535456999441
Ni 7.009618649793319 3.3904774790785908 8.241267739050757 -0.45603605349664683 1.1792007265898337 0.575832491531705
Ni 7.6825339478545205 4.158960094366616 6.1502440731163865 -2.8554705133582243 -0.17925268441916226 -0.9747409467774245
Ni 1.820716084288168 3.449898486284199 9.993761491249076 0.2822230520358172 1.3788944524721671 -0.9723747605380931
Ni 1.086709346209081 8.653918468740457 0.4108819269451435 0.39367626031250263 1.8002033869002738 0.1437524346300234
Ni 2.31006937664471 1.9396601807045795 5.433686861797991 0.3540108234020806 0.8876160308334584 0.4409182240186019
Ni 7.158983183757752 8.259176634834825 9.186622276630274 0.06196230063540942 1.5525948396145326 0.5956001610769356
Ni 2.7585156254650465 8.488907547434362 5.1484947957761715 0.7019677273005974 0.678542920618754 -0.5067361509546757
Ni 8.299146379959698 7.739347223836519 13.510728782964424 -1.866044196654483 -0.49843611572941254 -0.47325473136777857
Ni 8.959143664272624 6.9962459071128125 8.577990801294865 1.4290844430629968 -0.2499919599162533 -0.5494357467057311
Ni 5.170073075637873 6.635794346770311 11.601574417484938 -0.08978652193652924 -0.8489579521416282 -0.06870990377188813
Ni 7.395627832163659 5.540231706656162 1.330453334067164 -0.9728735545513825 0.20153386441486584 0.26166271138596225
Ni 3.3463966131990595 3.6905985743510215 12.013055844206045 -0.7407165659340211 0.2647056119773441 0.6863297636530244
Ni 7.457573048952264 5.518061351164331 12.465352440658679 0.10536612154234112 0.6822208836909734 -1.4200799255715415
Ni 0.5808688819953655 1.681736074306723 12.943524041373484 -1.5968522667710112 0.6906589871559975 0.09713164944769077
P 4.15275165241432 1.4000361408807909 6.837449923886618 -3.4692306331736384 -0.00313520319487202 0.8709578534514871
P 8.344461510083855 0.70970843678806 8.148255256008488 0.20525656468209166 0.2618506590270523 -0.9955506844339242
P 2.299025959719101 7.594966147762045 12.284813918344241 -0.18664126357374952 -0.5155375512963896 0.34392412859003996
P 6.080152712313244 5.694746741791783 8.006915295670588 0.31013520506505293 0.41616055745794783 1.380503191720184
P 5.698922823822476 7.363648323990844 0.2095056833157791 1.0576605663907912 -0.29151630441228504 -1.2093237712274592
P 7.208028947162663 8.849331267229992 5.462522244210809 1.0896358337458074 0.6337571317626312 1.667583314737986
P 7.8777054616045055 7.583922730836436 11.337123558882226 0.965298313307286 -1.341270471471806 -1.7447308077542663
P 3.2705311229748126 5.054664728674115 10.335795601817994 -0.5490325977300415 1.7282330672095594 0.7172084555097519
Ni 0.587174765861711 4.580410292904099 3.0461984924136174 0.11031112425244227 -0.05412017888317131 -0.33868756278144896
Ni 1.5148876769071238 0.47350088496803333 3.796359243805652 -0.7802927855647465 0.4338284070513561 -2.2500471955432797
Ni 6.651978984684818 2.06747613139064 13.325748765405788 -0.13600004437811417 0.5999568953837345 0.2295871710076562
Ni 0.4681582840234341 4.083567893439182 5.435928025821129 0.4041393646273556 0.21529903651975826 -0.973034505609279
Ni 5.362534776159054 2.352062201508895 1.8884539908624578 -0.11977715476134855 1.3200344449111652 -0.2508324535396777
Ni 6.517861790223557 9.763958193227673 1.6715696346075595 -0.35113118786144043 -2.6278016424192034 -1.728333083122533
Ni 5.742762404962456 2.6823067684960544 6.374246329188043 -0.4843613828039013 2.1172962542300824 -1.192128233284779
Ni 4.294812682916187 6.63229571804682 4.263067035337092 -0.4434355911238169 -0.250407193076801 0.7996614198993454
Ni 2.541433601327362 4.5395125295501835 5.87293088185914 2.0520835649781755 0.8381441493555759 -0.4684398264776383
Ni 2.565534234735603 2.981249280617601 7.715571396808443 -0.6199415660357774 -1.6567864812327981 -0.8192208300885117
Ni 6.209026603780413 8.764046391980962 11.856667140265985 -1.7056978622215206 -1.0373956454941682 0.9671214825589538
Ni 9.063592115951387 8.10455023751172 4.076239333484431 -0.8940977819030602 0.5984206612448663 0.49680115122915086
Ni 0.43941384739706346 9.593295640906708 5.902975472024399 0.08680815603449565 -0.29139417701212394 1.4208620551532045
Ni 4.1409101398117345 4.651032480134254 8.491851221256885 2.421969921959932 0.42591069486617616 -1.3031620946358589
Ni 5.377624352563289 7.989383175287512 6.554187207762977 0.09768366529641886 -1.8185898598272618 -0.0788099683203675
Ni 5.109668369109479 0.5948884533815144 5.24590886927879 0.0697152051079509 -0.07843484436913588 -2.668636417047378
Ni 3.706699690624914 8.191867472682354 0.35056538214850885 -0.384195574515577 1.594230769987764 0.2998582486190772
Ni 2.951097968356002 1.550282292162815 10.138713298534412 0.879365360788892 -1.6365773532747752 1.1905871140499045
Ni 6.075456940074288 4.893449401924805 3.6782457237042334 0.8011968827072654 0.6270090144055201 -0.5945228688523568
Ni 8.4925546590745 3.7411477272869815 0.12002523765324638 0.506974492217727 -0.9809637877586849 -0.10276596491533269
Ni 7.907439165663035 1.7740831682787688 5.87533444907236 -0.8241493777383806 -1.4562406917628148 0.017929330784911057
Ni 3.157396420672209 5.1699617134503875 2.4579138167499712 0.19909440173543777 -0.30905919839205487 0.7169418321119265
Ni 1.8616324080066635 6.541099366678787 0.7701224234987442 1.275981420456009 -1.5833292925839118 -2.1397977777667085
Ni 2.69717362052532 1.3453758671901717 12.606854804186662 -0.23023817432809382 -0.6051335544886676 -0.8891471227660042
P 8.487896007564705 6.03881878039168 4.079118974049151 -0.5694019054150129 -1.177465489066282 -0.4194019472133809
P 1.2900381401923515 2.523337245861028 3.192521910641478 0.19264247546250696 1.3108340093588198 0.9833451435066679
P -0.3557845566686454 5.364307290976525 7.205195707509396 2.4668734673408417 -0.5156416809744216 1.6504847073844866
P 0.909858768336859 1.6942921609456718 10.7487980504165 -1.2218252461285795 0.7183978478321628 0.7203721979497142
P 7.175873115526331 3.2530936604510994 11.296973778220918 -0.17891741256693058 2.0442810382146215 1.7254688742008606
P 1.4947404011546053 8.15620373214024 7.597852284454367 0.8404393731476557 0.6588590690365813 1.8863173450812225
P 8.848087722803076 9.136673551488505 2.256933836904408 0.24360508255330304 -1.493079457857719 0.4345323750969162
P 4.311832537236831 0.2433282356914718 3.1440598707026353 0.11912409455838192 -0.7331472382271954 0.400299164945659
