# total energy = -381176.58323481306 ev
CRYSTAL
PRIMVEC
9.14653860400308 0.00000000000000 0.00000000000000

0.00000000000000 9.14653860400308 0.00000000000000

0.00000000000000 0.00000000000000 13.38688379324924

PRIMCOORD
 96 1
Ni 0.9712160532644554 6.3102975827218195 7.8269363663585025 -0.83688070926212 0.17928662298089124 0.7903236874381873
Ni 7.707403912187518 2.868226449173015 1.1686386007299991 0.3180889126944909 -0.5394979187667289 -0.3429334825419965
Ni 4.636517607554353 8.706215072367318 9.842425535192888 0.19910982835440547 -0.16214790641807558 -0.3312254500764489
Ni 6.76446895623239 7.475438547096357 10.995731793290407 -1.135423067283251 -2.085095501127822 0.41413735638033194
Ni 6.684903217068793 4.556375636459808 4.6643788787425615 0.13473917538781957 -0.6929722086702065 -0.8805812354738641
Ni 1.6405231608671051 7.155858488885515 3.8410449759978187 -2.433226725820674 0.5193456121885701 1.0438545137456345
Ni 4.173775927388269 7.117543638746842 7.478355378251578 -0.22936631324610177 -0.0033745728991877366 -0.44825126734490545
Ni 0.7319188228423895 0.5127613557338455 4.650777061210641 -0.12695027547102006 -0.3574535305350425 0.5745068307417461
Ni 4.5363447169554645 1.8784246295008775 10.705785605445831 0.13059095754740088 0.6168603560072925 -1.3853258099198078
Ni 3.736278693720811 3.685725774953458 4.191406795167526 1.1040365825521696 -1.3813043474652404 0.393728967927309
Ni 7.188008572016915 0.34186285551517115 1.9733876517209192 -0.6898110373334055 0.6958963242955369 -1.3426822642176683
Ni 3.028784787519699 5.318163395710134 -0.4150040659756411 0.5102737317942889 0.3799928492881391 2.4370149892185125
Ni 8.968784755568766 5.117305408351517 5.656695081872117 -0.8939334884110539 1.4070596020524735 1.0039805603688323
Ni 6.104564490296619 7.464490140408367 5.088113315798978 1.0453056443698643 1.7041498010081102 -0.7662267943899836
Ni 5.4782186744345625 1.893351780473977 8.167511389240701 -1.0037653590342326 1.1898330094926994 0.2897425003413139
Ni 1.2359626126494818 9.140803706764281 11.605826039392047 0.36883091913404864 -0.5316146593639103 -0.22782776511438826
Ni 3.8645771904730575 1.8324266869495802 2.046291966832 -0.6594432236748256 -0.7633648994611563 0.6347480349209907
Ni 2.9904516443038536 1.1845224796392422 8.0692519545141 -0.4298475680267371 -0.29215599487881294 0.5690964583594522
Ni 8.593666915060952 2.9555758926736893 11.25565172426336 -0.5614032034802525 1.6403931274764396 1.2818345368026764
Ni 7.852458867630155 5.270592248521966 11.079788482899955 -0.8822056584511644 -0.8744794934515004 -0.5917170239724454
Ni 3.7145739576551464 4.000055720015673 11.218074999788616 0.13909950923904432 0.5442770853229272 -0.048477121664781034
Ni 3.6907929573303555 3.7460197573153886 6.751581483364071 -1.1072010963230803 -1.6222241698768964 -0.023571616672352955
Ni 0.05621737011394676 7.477139803273437 5.570523712541379 -0.5953762179915875 -0.0715381172493026 0.5961606615660958
Ni 2.6313768324766857 5.766993190686215 6.239264649405528 -1.4643232116606328 0.26826916095888637 -0.569109828095891
P 3.1524276961314386 2.886903680966563 13.47015036500804 1.8514974091885599 -0.7056521181307202 -1.475892404555471
Ni -0.17810871658637917 7.256946033343048 10.304071460036312 1.8403964141793918 0.08402699374493271 -0.8013719748325489
P 6.907026906640925 5.969927442303958 6.269586339473494 0.32578808111096147 -0.8148304143302999 1.4464229343414443
Ni 2.10083186176919 8.057039496193461 6.5623578930874285 0.4722152343596706 1.1781424605286483 -0.16408574687073677
P 5.446900926314531 5.514612751470079 11.47218413479759 0.45067993139105617 -1.2225605816327074 0.0814170669259114
P 6.9572688430963385 1.956819611725409 10.01069806418339 0.6099988530007687 0.17649877582310897 -0.42134055899699047
P 2.8744369488732207 5.567040710647657 3.7988364443828906 1.0225356976632003 -1.0320775757153644 1.2125381643996989
Ni 1.1959556528723148 3.8790744541325934 7.130430196961303 0.6426127823810481 0.8101764604980563 1.1842891968563345
Ni 3.117597677194206 5.3509171503882405 8.85672227946134 -0.24804332083031475 -0.9014071710802798 -0.1163305909736448
Ni 2.99776887517302 4.080673311116714 1.833788606545104 0.6450064794242053 0.9005787616417136 1.4107211100644605
Ni 4.354804219091447 8.423632762738697 2.145609656073054 1.4198788653043288 0.20126698390672432 -1.533134931117708
Ni 1.0222903247312367 4.975360276028275 11.948865139769437 -0.08706989433631457 -0.4360472690795458 -0.8024703501030502
Ni 8.874758338899978 1.3243913477033578 13.069641733384218 -1.361300650649804 -0.8472533107456958 -0.22341163832456365
Ni 7.050161088980405 5.003238925639799 1.750442602983723 0.1941224024421431 0.969897245531878 -0.02939567955329776
Ni 5.524884314302672 6.444175468011804 9.289479776833296 -0.021653316603717547 -0.2920328390373874 0.18739459680000628
Ni 7.618755660207567 3.817527395984318 6.955155078029008 -0.6367246990313873 -0.5410182120659973 -0.21814627616056625
Ni 6.258070847393143 0.5650676659482228 11.486401514376382 0.1350937305137609 0.7378019633903874 0.783587140045302
Ni 2.2087244309350487 9.183764998504875 2.893280647669041 0.19891571006572836 -0.46777493920012986 -0.4062854644360809
Ni 0.947883233330401 7.257421653349544 13.112090818963969 0.7209473537268939 -0.025169557287092137 0.02125196740024082
Ni 0.32317098925988563 8.856227451723814 8.31483468625278 1.2608491928002608 -0.6382128535411395 -0.9554648721566319
Ni 8.961879118935991 2.547686004410595 5.669719752819233 -0.7675239159348524 -0.5228358847300157 -0.32291821576233415
Ni 3.753611384342149 0.7202478396060691 12.499976102488583 -0.28905267336314094 -0.6980491089724816 0.9339120856865206
Ni 7.650283778715087 1.4651291369331867 7.727297633613063 1.2006632673389839 0.38366078505802953 0.8295096136090295
Ni 3.8786994460505486 7.783164691299149 4.288474435916312 -0.2992216434763427 0.14829865923980912 1.1958342213814566
Ni 4.730351946912825 7.459111975719529 11.957164708882788 -2.1698622012522564 1.053376851413773 -1.1822809081770542
Ni 1.2044802268348935 3.085959800223648 0.7983995239042008 -2.4751999849286666 0.1655584747615213 0.6030553318034001
Ni 0.7294830996168157 5.436016545396646 1.4516736640186485 -0.34187290248796603 0.10258675902499106 0.4994200769092367
Ni 7.67796120447771 7.654765582622452 7.4661328587384945 0.1814026408826295 -1.2727734550416725 -0.037934570262244345
Ni 2.5642046530977387 6.65813129862623 11.216026175145249 -0.23060172831509962 0.3790790792246181 -0.09272940661493709
Ni 8.272202669901299 5.961777876423424 3.66779215674699 0.05968456034482625 1.9783908632797154 -1.4142653757722932
Ni 1.8021059115354723 2.7251837322193992 9.691139957665156 1.7115854313505492 0.8889152092608562 -1.2136008013362583
Ni 4.689741315588952 5.733818695233131 5.394084239247029 0.3892416215799167 -1.0395373744275194 0.06284830278478855
P 6.575245365955748 7.247140943978365 2.2277117303866767 0.139872639959643 0.3403315261427751 0.10200620393117273
Ni 2.8587963678903776 6.439446707562605 1.8719818077205768 -0.049550043013985634 1.3062147654192535 -1.2426853774070405
P 0.7965025318013694 1.7704954741806733 7.704231892605734 0.1957735648923209 -0.3601328771394185 -0.0022777402905831737
Ni 6.192682243038556 8.58101725219588 0.032079654784284116 0.5805103566233486 0.46020946814804614 1.0854302803048919
P 4.038279104768481 3.340032349078278 9.050658166417728 -1.2001189647997397 0.27306118303089105 -1.0355171975245328
P 8.205277447064185 8.507515668115104 12.089855373464252 1.3667277352026463 0.7989080866730885 1.1803394681799673
P 3.1265704315475213 7.840165919769955 13.556495518571921 -0.08408870022080357 0.4707134530031635 -0.41469785686949223
Ni 7.743688230759997 5.53002466898826 8.482451408426632 0.03140216846036527 0.3448124447322642 1.061397150615088
Ni 7.342036281812867 8.913466490197868 9.497833352563518 -0.15560676286544814 0.8698245111779923 -1.420856912946882
Ni 5.993909666477651 3.9030383852291135 9.777525355998817 0.5148621224959198 0.8730774708976512 -0.7286650340861257
Ni 5.557638068980777 2.0251076688119043 0.49457712237010837 0.3417674872583533 -2.290138664247527 -0.05377539394924286
Ni 2.49006281131591 7.5966210368283384 9.230671192337807 -0.46681334661780893 1.8247605074143476 -0.9468521907869564
Ni 1.5984216437536392 2.408859841745336 3.2495858876122297 1.200887724644964 -1.198732111754542 -0.3283519851833958
Ni 5.717382365393266 8.789155884269318 7.683334795897253 -0.4092759145229725 0.03316080302268483 -0.5201333981971881
Ni 2.043098910211467 2.0701726644273832 5.8669895530903835 1.6328896200105427 -1.0663946038296797 -0.286919429070222
Ni 5.541576747222957 4.602693707861631 7.520323355901682 0.3660284166882471 1.4441457082714937 0.18848860119513342
Ni 5.216774015479247 6.547695991733336 0.49404570847823515 0.07363253788448608 -1.2938922392981587 1.7963009665220742
Ni 8.838949640333995 3.3076901886365624 8.850081892447573 -1.3532250727305208 1.1467983989997281 0.9701417574425161
Ni 5.985988764061778 2.530902106104445 5.681139206244426 0.12986616356623443 -0.31388233081231104 0.04921991336807652
Ni 1.728988482075327 0.6946283850254003 0.6694808918357926 0.9310450485513706 -0.7744872346265629 -0.4994912964668043
Ni 7.698769579761901 6.530088904954405 -0.36225872190911385 -0.23033716179980332 0.3054717381511126 1.7776959498263771
Ni 9.403647786123326 7.87545326563651 1.9870150795608827 -0.11021316522199727 0.04602917434492073 -0.43611283221015856
Ni 5.703470480203263 3.0431722927161973 2.9198934163401993 0.8992592714993416 0.13967800745033362 -0.41036709070462235
Ni 4.238588299811911 1.0104547038003602 6.165677087862038 0.8319094812997736 -1.0232208966556828 -0.30250211399982746
Ni 7.747694414660866 1.8700372536170957 3.8215134575002963 -0.2417960543690223 -0.09122119750052676 -0.21057771978468898
Ni 9.147270309544908 1.2537983628930751 9.973335368711567 0.03943943694254498 -1.3941716903462118 -0.1401120096639587
Ni 5.079301540524783 4.188867716055926 0.44786849377064336 -0.286741508731461 0.6242430216246088 -0.14091496518122829
Ni 5.665786741227057 0.5982046605931014 4.0429456687552925 -0.5840885608929102 0.1851929611629972 -0.22003346588095007
Ni 1.4759586386195531 4.072258495617173 4.825529912789648 1.1040571513774597 0.8969877018563455 -1.455977410799099
Ni -0.1775800466560819 3.744766681529044 3.0599333246758817 -0.9711025786938889 1.1171389242620826 0.0393317077200871
Ni 4.97780240183086 5.664753182366788 2.8793852262484942 0.4050744748471153 0.0334114855809102 0.19637751702490694
Ni 7.450706306758574 0.19529780655190968 5.987792461471027 -0.16558572845503094 0.6447491119977605 -2.242809025923628
P 8.640991105707284 4.553467037189314 13.329735448590311 -1.5556917333723015 -1.0841290449949652 0.38100946347811154
Ni 6.2640435370901 3.164190144753623 11.928784828956724 0.4911159279189155 0.4542923313326628 1.067421502432297
P 2.8054171686998086 0.679212808891784 10.22942655863223 -0.9580868831605113 -0.6344472158511203 0.45775483595996647
Ni 8.069222685590622 8.616588140758616 3.8067079554903964 -0.7518386439891116 -1.767236702166266 0.6972595231916507
P 0.6386735205688848 5.109896712096486 9.781822399826735 0.14459087137091872 0.40749928223852405 -0.8662059405887985
P 9.313097054117392 1.115740509469078 2.1569614251127067 -0.8684224886241432 0.0963171239661954 0.028603779779621707
P 3.3791429480739725 1.139128208634651 4.252075785611503 0.43513272768507644 0.25864449338492873 -0.4943022960666971
Ni 1.6136597770386782 2.4261650927509146 11.893992310827699 1.280830263907878 -0.5727502530619556 1.2090170386203178
