# total energy = -381167.3134609769 ev
CRYSTAL
PRIMVEC
9.25248185951482 0.00000000000000 0.00000000000000

0.00000000000000 9.25248185951482 0.00000000000000

0.00000000000000 0.00000000000000 13.54194245659491

PRIMCOORD
 96 1
Ni 0.7203797420205782 7.335682298352682 6.915395706384083 -0.013382077733860825 -0.6422636265717455 -0.24823949600152087
Ni 2.520903482900931 4.607708268733102 12.788929558101797 1.239039553124337 0.1284685118877594 -0.4402014004572354
Ni 6.026280300985549 3.436270030173913 10.152407985623496 -0.5178309753162565 -0.6902650941516886 1.1221680020455578
Ni 5.961503674641615 8.572146980269274 6.308961205198842 0.2583776128767873 0.7961168970811966 1.0863049696003615
Ni 2.2236397418385203 3.6783057062960367 9.151089581746511 0.18516776435201657 1.216069574591725 0.36655086485062033
Ni 5.552479203739411 5.014114287234886 3.1224202899136544 1.019549875561999 -0.6699088990928399 -0.09157112464077778
Ni 2.5309609308134946 8.818975442057182 8.393607386985014 0.33468255538711394 0.34280749848709346 -0.7214602888075704
Ni -0.00545896436836473 8.85439394307769 3.591323123199432 0.4152676133300332 -0.9509502721157299 0.2846195772924518
Ni 3.9178709697294254 0.25012789686207587 12.330494057680308 -0.20379514964521675 -0.579563419329047 0.21043425222828918
Ni 7.674147341673275 0.3829037890236765 8.209789252731005 -0.7123436712182828 0.44715263496408797 -0.6508027743910082
Ni 3.103245446257724 2.413269360024343 12.435254359653824 -1.1453364697422213 0.7193959500793738 0.5316933351206456
Ni 2.0369616654044074 6.49223529351241 0.5584437276499297 0.1396461257711337 -0.5023107681934704 0.8088227746836393
Ni 5.051198235011845 0.49169169640320526 8.84772290356991 0.7303776459018583 0.7054204617358883 -1.3379051545439993
Ni 0.832082181223895 5.228901403925088 11.412769977998751 -0.3020161755023444 1.3012196261975073 -0.6463462812815515
Ni 5.061403722636093 0.4605191593634466 2.252512111857982 -1.6113833705076506 -0.24421674799537293 1.2335088531140952
Ni 7.407731375533116 5.464210525647547 10.35068867446088 0.7998560524086548 0.8416832728570859 1.8423311693082596
Ni 6.466707695728819 2.295300214775783 3.0953762103334963 -2.913908345780143 -2.006193230203964 2.039965698668719
Ni 1.0588817952690928 8.125603694937038 12.559068297769326 -0.6437258129395688 0.5678445882302221 -1.1987591083377356
Ni 2.285122484597476 5.882006349467056 5.205996884782906 -0.1275061479744901 1.0554812993512854 1.0845738458418674
Ni 4.333844054598818 4.245630891398836 5.168309675180833 -0.5490521381140673 0.4508339404704171 -0.27015866467211536
Ni 7.842153909471185 1.7874407313602378 10.078861856858651 -0.500742395265086 0.2943131504311319 0.3050410783715973
Ni 6.028741461192303 0.7494973028125168 11.239257258174376 0.040959987352129454 -0.004183699064044407 -0.1036717645590537
Ni 2.6793984992231135 7.941784635434832 3.0537761261019627 1.4821949497347313 -0.17594058932679377 0.6667148176355743
Ni 6.508371622086017 4.964345186662964 8.407785890371594 -0.21083045922544338 0.22952854985557888 -2.025091352660048
P 3.0846942198872638 2.406746360228246 5.334794209692987 -0.4848380653300038 -0.1399322895529848 0.013946949098395335
Ni 6.1224228412426305 1.0372865023271212 0.3978835573497485 -0.8973018906626545 -1.4326788452824746 -2.3136465175614798
P 5.435833163414032 6.759511740476736 7.865539557676341 -0.9205752593682984 1.2736843968917162 0.24105454821730743
Ni 2.2358992804623905 1.0834656398906946 3.5919458152367048 -2.215585414320984 1.2922187082504777 -0.2699290651598126
P 4.328773694473625 6.653339509753032 4.32032617842563 0.32991521590545764 -0.11284340375599276 0.01640543794121691
P 6.208295126501602 0.22295520778239192 4.248377953298781 0.7213307052082416 0.41099598253787284 -0.22941593553711456
P 3.856869356033445 3.800336691133939 10.555361903098436 -0.22037310860855594 -0.41979635443832214 0.8049074987896332
Ni 5.755524920796639 7.636221418036111 11.955612170533534 -0.9455252444454169 -0.44932521713537454 -0.2920346388096003
Ni 8.442519707725562 3.9447031674722353 4.964395150065657 1.8643511252227765 1.603188236291368 -2.615969939891598
Ni 9.227278219364923 1.3005288671480446 13.007212262484149 0.38585573582681937 -1.2758780621089254 -0.04203162314975342
Ni 1.7098494174736163 7.666430771701722 10.175753848156136 -0.520845079552232 0.32703043815849486 0.5825340719215967
Ni 4.406929409761044 8.031681750355224 0.5550785999537021 0.0661673398556925 -0.19096123110534208 -0.7525271854157041
Ni 5.330354868838849 2.081678910815097 5.737436318525193 -1.5380064002773963 -0.18938720175000287 -1.2327807166988187
Ni 6.670132764547239 7.195396166567689 4.584326321520739 -0.9014722199902604 0.1225536890652212 1.2397111252700648
Ni 3.645709212279513 3.23437162088224 3.1657950001890054 -0.3159638959316881 -1.5544925708578776 1.0896833991542911
Ni 9.066627374741335 3.67476200569759 9.468012071272423 -0.9571615431327645 1.3889803759532595 0.0762640619700622
Ni 2.3003798273829563 8.761989405540643 0.9001462144154229 -0.8102340532088691 0.8276270518743359 -0.3040550603092441
Ni 0.7997410557100271 2.9616547145135113 2.2886967183864577 1.1639790245440729 0.2337911817866748 -1.0086458270549856
Ni 7.344268601630381 2.532950214439254 6.053844370052999 1.7426672403570178 -1.9933048042770702 2.13366312562388
Ni 8.216370543163578 9.39719079845077 5.862469733765696 -0.2509720644413355 -0.6462025566148355 -0.8597499005508097
Ni 0.2756434664190918 6.009672095830948 8.87396756870697 -0.0352883908886489 0.07086705932420699 1.0670142396915494
Ni 4.659457400448804 5.5265722541946305 0.4877982519859038 -0.7442695733926021 0.21400525740899917 -0.1880592269671987
Ni 9.055219064459651 7.60370819635741 1.0176767920181176 0.3322155819038601 0.4803756586832759 -0.19868842454627073
Ni 3.06566186445383 7.0474304747390635 11.841358822048257 1.1726598401475223 -1.073385947545848 1.50309107645745
Ni 8.557907410501624 5.172563041147168 6.882705762299558 1.1360213629888822 0.18055597661161807 0.4301219047340463
Ni 4.180845012572921 5.059756780843603 7.3836628941578155 -0.17455964981886712 -0.8007222570636919 -0.2489699464096422
Ni 8.780845963816452 1.999304063744671 3.8038914947107627 -0.3846827985646407 -1.6879677919316092 0.9134103661887429
Ni 3.1941788391599073 1.5538710762500698 10.05084349092597 0.8122184306287494 -0.0025569620938988226 0.04737720373238292
Ni 0.6108349816150626 3.114940583480797 7.2906162343713365 -0.7384457676219733 0.5849208269862185 0.1818369002065707
Ni 5.018490711211559 2.708164465699802 8.026661353632726 2.6003592299375344 1.1791158801855113 0.4808903935361653
Ni 4.806516349043361 5.808125280854526 9.959923051498558 0.47714712444364915 0.039783707655841154 0.9099301209496264
Ni 7.772630759871367 8.76162855874341 12.563591836209483 0.0746766628782843 -0.650974524082182 -0.08756046081948791
P 1.8076296470412072 0.9100380429005394 11.644093130484107 -0.930497917798649 -1.3613356176527973 0.10353935274624748
Ni 7.8216781668488276 6.71029778882363 2.8394608859927555 0.5378038188937576 -1.342619529300533 -1.7343337807906583
P 2.4803591068633475 4.187997181143677 1.3424389095259175 -0.28744599099765333 -0.8124112633658459 -0.6083389487998426
Ni 2.7928894431932183 6.220628684981314 8.84761464953074 -0.6445017718736449 0.29963636241625813 -0.46136877856347
P 7.430039109587569 3.129726049685283 8.157747742584727 0.2769412348115875 -1.904058214004411 -0.17148306777607242
P 8.979885356176217 7.01285394957876 10.879190445174427 -1.0524144875005037 -0.8519409460293522 1.010168434347099
P 0.5322194179732243 0.13044611719896634 7.722888491497188 -0.5850043878389602 -0.9654458946287438 -0.4313007555334959
Ni 7.323820616453964 9.051777141162987 2.0588632154999265 0.6378999502864111 0.30378149493288326 0.449270195527723
Ni 6.6229266014838535 4.7674338651586625 5.760823817226745 -2.8474934086900188 1.1590245087522748 0.3892763314725941
Ni 0.5465903729849939 3.3716969584335446 13.465809681340291 0.1957339699036371 1.1888081677726108 0.2804626177012847
Ni 5.227633813893789 2.6782049290476575 12.567857230402392 1.6464928126162741 0.7989057726802434 -1.2286648947582324
Ni 3.950245404178423 0.39450362568235253 6.642106071380774 -0.6060457818902918 1.0321979033433126 3.801380909057201
Ni 3.085860032616779 5.389089624449661 2.9812857055310698 -0.12055568479858593 1.611312150950083 -0.4690679469799406
Ni 3.99720175022834 0.3710966967686422 4.6180599455726385 1.4742828939765062 -1.16075820361393 -2.9638443113786375
Ni 8.958845212153063 8.927377520938133 10.101368519275681 -0.6986826287914225 0.4502407869711084 0.4950749125666635
Ni 0.8552069094372067 1.531544837231656 9.29463443768496 1.1952258983734965 0.1764812923216122 -0.1902462073161885
Ni 7.615468100954345 3.0509504181051854 12.207749706481726 0.40439570361253585 0.17059809406795778 -0.11916343243674961
Ni 5.558104712783422 7.285718895659174 2.353955399041565 -1.6827224843722697 0.11661418365233465 2.870978893406469
Ni 3.0185019638003463 2.16099118635005 7.640851360019043 -2.593250129696579 -0.6804679055556087 -1.0539157546363784
Ni 4.148341043376201 8.317768493185458 10.229908625186711 -0.37056487110601993 -0.7357473948542038 0.08537630868397554
Ni 7.608186397635865 2.3619643474436947 1.1845989689279384 2.9102787194473554 0.33696338100149065 -0.83631686633885
Ni 1.8304370151225955 8.64163311994117 5.358695221144444 0.5101896567209149 -0.8069237578887134 -0.5781487983697075
Ni 4.829906623489507 3.1154679749536722 1.2416118376422207 0.773923648813609 0.5142653694521853 -0.09712187925567789
Ni 6.5448078961243565 7.981264976044683 9.530683757965843 -0.5991045746857682 -0.2516066127015409 1.2401381855051545
Ni 0.8968143956543243 6.434851400270718 2.971657572782391 0.22424081909407834 -0.16343165822650563 0.6913511281270158
Ni 1.3953575549639263 3.910422721735301 4.496832076170624 1.280824607480923 -1.4127656512983153 0.06142416874375227
Ni 6.727387123041206 4.382549119743008 0.6048005128675245 0.14784845907626795 0.8528336330469505 0.30650660717353023
Ni 6.617079032872318 7.076742337652588 0.528466611282023 1.6923934318031304 -0.2286500039053675 -1.2579533593097045
Ni 3.891723455653157 7.451976744362811 6.388384510517557 -0.6198531200870292 -1.7388941464678314 -0.10988792067209462
Ni 0.9603613671430798 1.341628392104445 6.057595326247804 0.8390571480881484 0.7366866188390216 -1.781426877623719
Ni 8.14195283059619 5.6825135854902555 12.802836963766355 0.2508753909624712 0.7644815295641028 -1.0970735209707752
Ni 1.0460208453165047 2.9948341148947923 11.273410019659984 -0.018130905272755873 -1.5422651755537504 -0.09301814149994948
P 9.013055504075517 6.811455174314023 4.7936313426376245 0.1372406016534346 0.15793412544704413 1.0281219335017262
Ni 3.132316744639761 1.6996161724034275 1.4931886731824087 -1.1946078051735234 -0.5599189056252422 -1.4360073954350754
P 1.745721290111159 4.911078647902496 7.313759467548608 0.17885210654663392 1.6161437680107715 -0.37048748090086514
Ni 7.483268638420115 7.163419588843843 7.607145493413084 1.2572725311925959 0.27314577232489734 -0.9921509147237559
P 7.660028054171369 3.8641047969420232 2.857675322019133 1.8056014179873938 2.72091028675043 -0.695736401678905
P 0.7907929803868989 0.6653626336694419 1.8914164228618235 -0.6161569021823646 0.8823990054088933 -0.41642126731850215
P 5.811622719043071 5.385786488382702 12.044569233284731 0.9599838430729081 -0.07649443281331343 0.7898099810265624
Ni -0.01254544031706057 5.089022381347227 1.3124432881940502 -0.8870563016752464 0.19254734464553935 0.6542984462490925
