# total energy = -340863.84439212666 ev
CRYSTAL
PRIMVEC
9.27440879416660 0.00000000000000 0.00000000000000

0.00000000000000 9.27440879416660 0.00000000000000

0.00000000000000 0.00000000000000 13.57403474187083

PRIMCOORD
 96 1
Ni 6.377593698260521 7.7738095962102625 4.849595868415681 -1.0116506753195802 -0.6351329290642352 -0.7414310755025424
Ni 2.7595169184753017 5.668101412278553 2.008590282991987 -0.0804917268981646 -1.0824434297624261 1.853339604603621
Ni 1.4061766131803912 2.586011275519084 1.2403965528937548 0.27098218901467525 1.3533721398313465 -0.7210370852272228
Ni 4.628449441477343 9.143055512883723 9.74803077445203 0.7710771805037494 1.3264290355835993 -1.5374703252682684
Ni 0.8402503231270989 8.079132413815653 4.481046622558985 -2.6671287221536 -0.8549892459373726 -1.196514792388249
Ni 6.049492932231971 8.569275653317103 12.806273623434434 -0.5262688216709647 -1.0320055848268486 -0.6677681986007532
Ni 1.8459876352174742 8.21535493272419 6.478085629182468 -0.5779040293487531 -2.047926091166376 1.383476415415895
Ni 3.814786993977082 1.6981442818731798 4.792340304657384 -0.17703485083223705 1.4045378640718844 -0.028346926573809245
Ni 8.037072969149925 2.0665145316368103 5.151156058303124 1.451643045089803 2.9347797899125134 0.11945859507966522
Ni 7.665577243564386 3.10934762471373 1.4739910915477132 0.9591312652646257 -1.1595114756910223 -0.1732527580819855
Ni 6.464207403604123 5.018058087775597 2.3942016590254283 0.8993022089221351 0.20775104896917124 2.040271402834596
Ni 1.7007596652018973 5.896400263412306 12.359864786858166 2.4699899014826365 0.27534175153495155 2.2988305355945697
Ni 0.6953580867161306 6.867087729134275 9.271337282834644 -0.42413997611899856 0.8931138207232361 -0.6596779653934509
Ni 7.9608373274404896 6.6938788672650045 3.4863004125355013 -0.09079722258923073 1.4506642261163014 -1.1617267381747864
Ni 8.65390463514175 0.43343393843131583 8.80851737959112 2.014117370147047 -2.579966268103479 2.05010150155114
Ni 5.170872524326249 2.241689568207103 9.16778108718997 -1.3650405773082104 0.3791181599926697 0.17093233747892495
Ni 8.230555689021243 4.103239661671346 12.907305324958266 1.5356448420237554 -0.2831057117510866 -1.0451665476888388
Ni 2.163765984065659 3.3218707061944728 3.538533883838122 -1.1305549405576722 0.24745968041270286 0.937690064671714
Ni 4.132778654231509 3.600817104697475 0.5571248759435289 -1.2982057790718482 -1.970176445789723 0.9798594989509124
Ni 8.465476468157494 7.601509626419766 11.183348508047896 1.4655138895346245 0.31297807383048676 2.9809976832294725
Ni 0.002406709126958439 5.31573879239211 10.866774904924535 -1.584311453991523 -0.5173941448891541 -0.362257379681589
Ni 4.964229418130639 0.10138783882816821 3.5337557083382793 0.7021039957681455 0.12361118379545806 -0.5380110498085573
Ni 8.3324814435695 2.219811237453751 10.287326526597234 -0.4932900527520988 1.1653167695188897 0.09130681523579759
Ni 2.7333167131432874 3.195386316701374 8.715263197427085 -2.1126986075570713 -0.6663877733134588 -1.4201781417123025
P 2.9325495665741976 1.5469435924828003 13.395848728912894 0.46862777411872836 0.6752742771698113 0.05248572860354186
P 6.226856729318496 8.584318744661715 1.819897795352169 0.15687200273111693 -0.8098057074221989 0.9638240427546046
P 7.868788818442176 4.139586070413349 6.5839224019921465 -0.09372468064867084 -0.9387604149177574 1.3003868458835668
P 2.6675889767935597 2.8527711006393366 6.336427379178322 -0.44882385201892383 0.45719022170574813 -0.14324772707946298
P 5.942521899205618 2.483074610393413 13.369731993261585 0.5565546171386996 0.5539143513023751 1.2824911965500685
P 4.7059185795794 7.479328562687395 10.976589471740196 0.3338477181906444 -1.6064548228577817 2.0020100453605525
P 5.4324386804249345 5.779904412376758 4.189558440809795 -0.4508851054233267 0.5012381039545819 0.8801603458863616
P 0.7961032090028799 3.535599460840936 9.782888640554816 0.010135545772105124 -1.0157194460723151 0.6809877826148207
Ni 7.641454505841 0.8348127371496973 3.269958129442114 -0.03475900074774014 -0.9805884066971369 -1.6138017501411561
Ni 6.8354341713296165 3.884029731325335 8.754546811488964 0.48567444518837 0.4965111307925578 -1.5482584170227078
Ni 3.832881365871864 4.72233428345114 5.622500998269191 -1.5560969392305202 0.471168281152395 -0.9983768410288096
Ni 6.34199851664485 4.285277760877281 11.172109779261582 -0.6773962086088204 -2.21476086153716 0.008740722307107528
Ni 6.9620205793213525 1.5220510788151453 8.069505577307819 -0.6187827698409859 0.36786881233109553 -1.54021703477547
Ni 0.3172728935594786 4.709053329810274 7.997631690135604 -0.058559445601447525 -1.4253915675924418 0.8203048071813098
Ni 7.957832418935154 0.45898679001742715 11.991017832473625 1.3868139644295598 0.5018248296959874 0.03457182443759853
Ni 6.589792175427415 6.406075408198436 11.928970181602038 -0.8985517039093558 0.7014383371596887 -0.09559078732313216
Ni 1.2138160967940905 0.21748952748261605 -0.08524016537557731 -0.7458068359727349 -0.43037978638112334 -0.005687794413396656
Ni 3.5836965457442362 9.31929710648523 11.929636084165873 0.18788670594507642 -1.0771911802245513 0.8246327451327025
Ni 9.185791989404049 4.989001364481721 1.6881214281024512 -0.7550257834678415 0.8429325718831547 1.2934350971560822
Ni 5.171744318769155 3.037007234770471 6.330495467202975 1.3957251508762607 -1.002258692581719 1.3264951129348446
Ni 3.206682546823283 1.8667994089396118 10.591344434860956 0.49667979515993815 0.6027722533453426 0.3849332240125499
Ni 9.021301071963837 7.973997713764783 1.9651127811951916 0.4926560187125258 -0.03138879872392659 -1.3619449691020222
Ni 0.4118013795155911 6.313312769709658 6.143499268963236 0.4278631906068567 -0.7507801208176103 -0.6042573225313013
Ni 1.5605955224823487 8.012681273566491 11.597723536051852 -0.23751876714990705 0.8256169634228425 -1.0075181412084455
Ni 3.241007134410463 1.384010775749059 2.3300375880275506 -0.2125988639797758 0.5163276512978527 0.2567105095870095
Ni 0.026372709338801602 1.524443876328653 7.0906009852410135 1.1787651817143119 0.9758971718690549 -1.3374855505080774
Ni 3.9380624379675697 8.742011520329052 5.54928232179675 0.7884113009068229 -1.0510723716503123 0.9700476550668133
Ni 8.052078962858667 4.903806643710084 4.640134269334973 -0.8525981199973768 -2.03541304630103 0.4116724397796071
Ni 1.1675182472304046 3.7724771402692423 12.20650501506025 0.6646191114488103 -2.7306712227919356 -0.20504547711255008
Ni 4.5469181122477025 0.25601449489098854 0.7389338972479773 -0.04821435492169761 -0.09002126365515463 -0.029438359865775105
Ni 2.958805418360014 7.416234758484319 9.473889447234873 1.2774430926031999 -0.22155478762148295 0.3837032082601908
Ni 5.687447829383892 5.932765220972245 6.485673950599336 0.13816697012244591 -0.07051096153636889 -1.1012423076364841
P 4.765488108374984 5.551957988783753 1.2038052997550195 -0.5801061792063944 0.31692394585211225 0.8176719975441531
P 0.15330505278501078 2.470377944517474 3.229045929165614 -0.730568935977058 -0.12392794370492852 0.4892523923476154
P 2.273037070515849 0.10380845956857727 9.644772287335199 -1.2073010843704755 1.2624363347817227 0.12071329342237276
P 4.7782311462957585 0.8991372554227055 7.181031109874571 1.0753952646663931 0.04834805228608448 0.7464853500969982
P 7.312648884730951 5.6821243186367845 9.856948505920572 -0.20921374955762675 -1.8296191210582298 0.8746142192571518
P 5.907752139988017 2.710269806860083 4.253667792794767 0.22966764653660446 -0.5977832847711835 0.5775049941381216
P 1.6845201751005323 4.629311961511282 0.6433657500466546 0.1405231290594483 -0.16542863405187636 -2.030736980981599
P 4.072485721536493 3.885995906026357 10.26328725855455 2.086405478188497 0.48142801120719014 0.7786740190144009
Ni 2.2519934365695344 7.753276054757138 1.3819861722715445 -1.0865628512474383 1.8380723940319053 0.07309234911029992
Ni 1.3171422870963796 1.085829253048324 4.894403320458356 0.2847674157242257 1.0208943054050355 -0.13276688215279714
Ni 0.920611221945093 0.6385977763966765 2.2163138578322634 -0.7027989649526412 -0.6093784458079505 1.6904769315067079
Ni 5.37373167166329 6.863767490724059 8.708951962124985 -0.46346705585339537 -0.587429195230369 2.155706992797797
Ni 7.804878866249996 6.10452727504265 7.636697661481781 -0.820996948152328 -0.8312690195022974 -0.8478804028067334
Ni 4.30220355724221 3.9710144130276213 3.131258415898468 1.0730887280204036 0.2696588422175614 0.2739237881415024
Ni 4.418022376423162 7.373396263465355 2.5624245986339944 0.6208121415661889 -0.7513879296049383 -0.022175507655774713
Ni 5.688161958874357 2.02885115682148 2.2964011615857283 -0.5165389959777104 0.06049394361999905 -1.6231603085379205
Ni 6.385300732112168 4.803587380411767 0.15504771422992597 -1.2809670465960585 -1.386688237484973 -1.4988970929807606
Ni 4.239888803392369 5.199539722443508 12.470682844724065 0.04845963816328428 -0.7262209434210073 -2.8780111176629015
Ni 6.393119058871419 0.7462078162008616 5.728663302833615 -2.380897063179022 0.45789573241320486 -0.6086819339615582
Ni 2.4200735502800073 5.235728466233072 10.419727989011331 0.2682514203470735 -0.7702500566167637 -0.9550738073658003
Ni 2.3833376163613855 5.680575492339282 8.076713647957037 -0.6546221481370984 -0.06283056217297565 -1.662526726150685
Ni 7.621254843110689 7.566990276244277 9.287572135731525 -1.5178618070087213 3.564986228209409 -1.9188574838007728
Ni 1.0822957032318647 1.3909665824743724 11.420310584597804 -0.6525503532097343 -0.29635280656897994 -0.2335862648647203
Ni 7.36049556059214 0.5979545339802219 0.6751751179219612 1.0424946572836304 1.4787622699040985 0.5122036018271501
Ni 2.807289399064754 6.784786623960367 4.408724781433659 -0.12104059485480446 -0.5169696557572258 -0.2791171594169838
Ni 3.9879587582104845 7.063621729555764 -0.0003830330903405916 0.19506059798569633 2.5892019277691345 -0.6601839584955921
Ni 2.630361499199682 0.7727604490736247 7.272343230800899 -0.0915749812955197 2.3224533172198325 1.525144970933696
Ni 4.363164247382857 4.632289046789716 8.059081141628816 1.8720922026207758 -0.16120533999914818 0.6733053263688985
Ni 0.7145681700096528 3.7826975389509694 5.816704339717251 0.5214575163252503 -0.6042030722545981 -0.9507708091150724
Ni 7.313029135498602 6.802769702947544 0.8678787874400439 0.3587897328479628 0.81450696955261 -0.39475149565455236
Ni 6.349557159953024 8.178943603119416 7.19232455767379 0.6004027246719015 1.0509612999937448 -0.02031865695269404
Ni 5.820118249658036 1.4751967647134343 11.500153043954535 -1.1194254063034141 0.6289273144741555 -0.20920423647593003
P 2.427595095952313 8.88940042763396 3.4079242372364638 2.157704997064432 -0.07569584817141801 -0.2996070518402195
P -0.38857269481663115 8.01249578538715 7.344177238014554 0.30259518793426593 0.6071706395233543 0.2510836503185353
P 9.502837659943832 6.984269886433388 13.157488998931647 -2.116566832263226 2.3519058181529946 1.7517080104030476
P 0.6717176182590321 5.730453263764263 3.8824586464463113 1.054086732996604 0.2152501855596938 0.020505319042203395
P 8.189089806529408 9.02004902675328 5.11312170712911 0.9185841970801987 -0.2236093561576665 0.34008495734960786
P 9.130961683590645 2.07383204031184 13.37081802655163 -1.0688134976838173 -0.5214716573926373 -1.0435107572529707
P 3.818199976476969 7.017481544944519 7.247856008805105 -0.22641648658915844 0.061872054914448284 -1.3746207647974777
P 6.834673669794315 0.22511216421266284 10.132284377012688 0.9402629676052129 0.14688583805268252 -0.9666185747806062
