# total energy = -340887.4925775223 ev
CRYSTAL
PRIMVEC
9.09940990714733 0.00000000000000 0.00000000000000

0.00000000000000 9.09940990714733 0.00000000000000

0.00000000000000 0.00000000000000 13.31790618156445

PRIMCOORD
 96 1
Ni 6.567635705046516 1.77989920503395 11.339797654793058 0.3326729811562529 -0.6074125803308313 1.3212726881936405
Ni 4.993428664515662 0.7237989244482174 6.002966353861456 -0.623535454034623 -1.1378077654653436 -0.578931442172003
Ni 2.875513673823827 1.5830698659334654 4.7556774584740875 0.8653250806457419 -0.1407694407422995 -0.9310383636831514
Ni 3.7093108168341176 4.808319365577972 4.884755320058948 0.8942124531040535 -0.8802860728309484 -0.017947585617356186
Ni 3.6602467977675093 2.8867696440733437 2.907698287221193 0.36169147987579 -0.06270534944902104 -0.7768176825319525
Ni 5.0587806275973355 4.643938522766717 2.3202194448279974 0.2726536631798272 1.4755635604611426 -0.009926257974776453
Ni 5.647876435158953 3.0775842731213383 0.15943622338232394 -0.7836601593750827 -0.17759175177697156 0.26739421455310075
Ni 5.637330218894451 8.427700712746791 12.468210947159639 2.069252363447978 -0.4109612726451955 0.5168873804560646
Ni 1.7068218428077009 6.78025252060853 0.21526838365474557 2.032350605325622 0.8848850050555405 0.2431543681691296
Ni 0.968195429659736 0.24866594841367992 13.338682352493011 -0.3325068878920338 -0.5475297879322699 0.18343252682846473
Ni 8.39386910612779 9.172660315299495 6.792079023869078 -0.6161646154918485 -0.7593192686368729 0.15727875125123236
Ni 8.637514910009006 2.6650716172671767 1.1503019232762122 1.3444920637328974 -0.6216570060649874 0.6059959024889627
Ni 7.008110848028216 1.3529548848178374 4.699023621472861 0.18768564567786386 -0.3451477165844959 -0.02541098387393688
Ni 1.0691260860927523 7.637052972261325 2.5477820414205947 0.20829046641240898 0.05684940488887629 0.09729311472621953
Ni 8.00428696363562 4.1553002023147725 3.695865528523135 0.2807225562308907 -1.3965728435885367 0.7916398351464495
Ni 7.677381557666224 4.08733670854465 12.565444513283538 0.713019871349701 -0.4856322790965249 0.18017108246837357
Ni 8.681219376547752 7.332959787323085 8.806266199474136 -0.24279004285117542 -0.03647804032137589 1.048194278771569
Ni 7.196086461136154 0.8086090660113515 0.14674618610667622 -0.25224270362364304 1.2374513827016107 0.05708183261465653
Ni 2.29387938251492 6.645763239858441 9.17426636117584 -0.5061504536545348 0.65672068253734 0.25980740334477836
Ni 0.21648952448537223 5.257347954020097 1.101504516924487 -0.9317086502772985 -1.2973940818038303 0.9311003272693384
Ni 6.486296078481899 2.4590245757715743 6.813853912152904 1.8984665788492467 -0.030298393873225235 -0.20319762527053392
Ni 3.366790823194414 4.522361304897846 0.411953042135208 1.0541679798565005 -0.11284700330041855 -0.8680149687730792
Ni 6.2892119558996145 6.02280852744763 4.980816882166567 -0.5331835465129269 -0.8729635710276061 -1.320429880577371
Ni 5.442047779504894 2.7783410737473595 9.72690629225592 -0.22981857029217195 -0.023886576809610476 -1.2363321814955028
P 0.4008572215028225 5.6201778309232795 12.268548961706143 -0.8754194887672665 1.2538892165426598 1.0228989945398899
P 4.033504598604358 6.319021623270203 12.653676033030841 -0.6633073346159222 0.3391740154995643 -0.39941984766449923
P 2.733399087439871 8.695796631470733 1.2081950999281936 -1.051299914280086 0.6064787556626523 0.9181285976000187
P 6.646363800922685 8.259516316528666 5.805088762721566 -0.3986032653004748 0.010203165785246944 -0.23166899323734938
P 4.681091414059181 1.3607621786529913 12.43194615828945 1.1349540980666324 -0.23964429813334212 0.03905094325487468
P 4.450694351231561 6.3527622357885605 8.478206078367581 -0.621290109643872 0.05977686294831641 -0.5034849910072298
P 4.934964954852649 1.263189204533695 3.728907306348556 0.3032428488205939 0.814886464379216 0.7028758409371637
P 0.3324860741618202 5.722418802405552 3.4482724005560335 1.5184616453762494 0.7359443413563583 0.3568745181031209
Ni 0.33558715311172754 0.0896018909029851 4.727057993939908 1.3789795559868057 0.5626890121712116 -0.765343877564398
Ni 2.3549000264059954 6.524058630248669 4.504395429666927 -0.9135589759514654 1.9637440599008182 0.3859647506008579
Ni 6.510937280935975 6.179118193531867 8.959767787612535 0.216662235415872 -0.7955607674674104 0.851136704960502
Ni 8.481960494960104 2.7375484184291827 10.345975556569282 1.6032311737141614 -0.4700429092987002 0.37359748728475656
Ni 2.9018746647800526 5.71623120356184 7.09131858347903 -0.11648639982521874 -1.20988092928251 -0.5801686570132137
Ni 0.5630269076684568 0.26740345361804946 8.98019778308886 1.901005029000384 -0.34317722312168636 1.2627394678444381
Ni 1.706021094722044 1.3143551873251529 11.176613384405256 -0.800050427807648 0.00268680280354376 -0.2656463786240586
Ni 4.419228591229273 7.31692662678982 1.4077424328148795 0.10252659521101697 -0.28117687015948994 0.35033645987428697
Ni 5.747942647635862 8.262919495892708 7.8729606378238755 0.762952494514086 0.0228355098372768 0.4904980918292585
Ni 5.672927111065921 3.559234246643914 4.441269182286977 0.18513305445933922 -0.734348200513832 1.070478544091066
Ni 0.8592563824291453 7.182046071406967 6.449622726099824 1.097863106751606 1.5438371480265607 0.3191296952541794
Ni 5.646165746066869 4.879249267029051 7.094861893758061 -1.5720745456056988 0.2874403345706985 0.5657756215163353
Ni 1.1046319841635808 7.67741795530648 11.357763530023977 0.30754224752689613 -0.2656564059263877 -0.8355133966009481
Ni 4.482860765808797 0.47153415935411386 10.330233577158078 0.40319345577431853 0.6537785691898805 -0.57521054167699
Ni 8.158176186642757 7.3133141609943 4.551288329492198 1.1236353306197036 -0.17232073318601937 -0.7279111866392368
Ni 7.742587930186868 6.454584634407876 6.834150146301285 -0.45704006928112906 -0.6472016873033112 0.24193875059447364
Ni 2.3785584925731285 5.582824752609401 2.3458424736280095 0.48232326932795 -1.0492548588255994 0.1889567990808036
Ni 2.368248860970297 5.5393659701423905 11.188519962474368 1.5951689655313173 -0.888568881665031 1.6966835745380522
Ni 1.5633878419644234 3.5309623795741905 3.8406708104630995 -1.0755564728346056 0.19905146431264428 -0.8452159686006927
Ni 1.605518110562049 1.0847497731731246 2.649251382929416 -0.056260365154625694 0.7268413506138256 -1.07942803997487
Ni 1.1941610797860516 3.600609264206205 8.054123522616687 1.1097652575058305 -1.2511268233061743 -0.5586127852193089
Ni 4.262837030454458 2.9578633349055794 6.777056807793954 -1.5147080918710882 0.3518575245045037 0.18963377054317018
Ni 4.470221685229509 7.236487841821567 5.753548794176467 0.029097431586588597 0.4392518920597726 -0.4784961822723759
Ni 8.303302677757992 7.528360519043477 13.184168000014457 0.43921332551235326 -0.650286496876222 -0.11402482565860361
P 0.5761109493998878 5.572469623956248 7.987068149970979 -0.07742671481959569 1.9583172324582918 -0.6404774812056001
P 8.92382784768164 1.8179984349730987 7.897691924437589 -0.11255338331939972 2.211896395505171 -0.9297391852557536
P 1.8523487079657635 3.4080748466560613 10.175399835386267 -0.3614559668262162 0.20915281441270428 -0.3293248906196264
P 4.62299168079874 6.544259320591375 3.5797870841561084 -0.8626526760199015 -0.4175109008382552 -0.2830596890044996
P 6.899300102479533 4.275921982126896 10.285139630702515 0.2235299090699828 -0.0943070355147021 0.2134920652180065
P 6.794547693819517 7.862982224747384 10.353473470462253 -0.0784412721270391 1.8590556811517918 -0.8050807911427038
P 2.484803204483686 8.665049724863524 5.617026705218018 0.3020663120139895 -1.9225752989719922 -1.5293816347228628
P 7.121853473831742 4.144353612007442 1.6392214154991434 -0.22599225456754626 2.400175966013292 -1.9456699760079266
Ni 2.898080210783247 1.7785979893947577 0.22421401368894125 -0.38268787962179895 -0.18565755950424156 0.40068277353732284
Ni 1.7237558449373298 1.1466712586605636 6.649963527544115 -1.1391650508241864 1.0446883225008394 2.820838782216968
Ni 7.269427706254268 1.0090517808483623 8.8887168640076 -1.4934311847701829 -0.6635978692731475 1.180932621679276
Ni 3.007200336274117 1.772192004709503 8.756336826510413 -0.2303829274360742 -0.031235818085830074 0.5746994063685263
Ni 6.445148546171216 2.3676119022657973 2.3802291442609307 0.25750806578764035 -1.6932452382804646 0.9246401734662915
Ni 4.673156728483127 7.229253810820463 10.714282368390156 -0.31815216183225853 -1.9581269708243565 -1.6828291851534631
Ni 7.445182811645874 6.092810289072152 11.286112955295806 -0.4794765439077743 0.6030800143937485 1.041983779085483
Ni 7.798239922140017 3.787620339847329 8.338167977360294 0.08477929852992495 0.9929353582982641 -0.8796049876035239
Ni 3.3886203079386266 8.546648201107086 12.359656804974767 -1.9987349741537062 0.08295638638857325 0.45797312261835965
Ni 0.24709993994161697 5.177000163152488 10.261526661585702 -0.11370472331502353 -1.3053537029705389 -2.6644444904532176
Ni -0.0885299803974127 2.489789681198912 5.697973237267858 -0.38103440317877607 0.9663380674257098 0.0674328368316774
Ni 3.4673029067644734 2.9012923025359383 11.393815392698661 1.245317672823565 0.3976797250449409 0.4791191605683554
Ni 1.3072121504246916 3.631419866683864 12.662558877135593 -0.5567387081250476 -0.6979776323045979 -0.28703332894026695
Ni 3.3625322992843296 8.203873423985582 7.546299096044202 -1.2077849659854296 0.9552661258822647 1.4543486169464244
Ni 6.413082225104685 8.574201214781732 3.3292639461483082 -1.180545413543186 -0.6032121690962385 -0.1484472690025314
Ni 3.4159185381314727 8.669253652313222 3.493672997130762 0.5713986241300675 -1.2450626193899654 -0.05514707748578889
Ni 3.838695328538144 4.344122060558689 9.436762502946225 -0.9691945630378986 1.3552073932678725 -1.0375229151006518
Ni 5.1783832734822575 4.617714022961456 11.6003629017478 -0.13261364440438453 0.1183126544006801 -0.5177641266340631
Ni 8.423988153440563 -0.09007960993135991 1.9115321809648602 0.8479482799301913 1.103637547341538 1.5611625266788856
Ni 4.726433774409498 0.8159104326469314 1.5995470776778673 0.22904106869619906 -0.8159406166753431 -0.8151605439762091
Ni 5.962270152289961 5.880912326905216 0.17772967737555653 1.3888867877981887 -0.048433927131671425 0.8430667834681739
Ni 8.41150376283237 9.092166933870857 11.264311678722793 -1.0982855390010053 0.8328705596614624 -0.5773221887033542
Ni 0.8895155606569087 4.980270917562709 5.699797668985746 -1.1106697715979712 -0.8286030426343599 0.14834879575145418
Ni 7.401623935668156 6.217663294564166 2.467022047277072 -0.571375484201616 0.37916161163609535 -0.4998772190513132
P 8.755816340254736 1.7593072400584795 3.412061298205223 -0.32544458172861374 0.31838047579298073 0.0778082665287305
P 1.9413227395743131 3.296124804635199 1.5193466972532985 -0.5687555300802656 0.4785589171895113 0.7523009283375108
P 5.121357270609402 1.346430607801747 8.133671475339646 -0.47798864650833806 -0.5968980539527526 0.386806786886179
P 8.883635753427706 1.8628403277698804 12.37783560640119 -0.6695743985715565 0.2427285934856207 -0.14524213180167245
P 6.692443213488209 8.034469706818843 1.1925477543816545 -1.5912215508477952 -0.9525181308234821 -0.10754050348584061
P 2.348302954109391 3.3202200424854187 5.933113822561989 -0.6849999890980074 0.38417320591807386 0.350968437031331
P 7.393252478409018 4.379655256859711 6.061058807593845 0.9560472270226631 -0.7575611482951857 -1.5174506876132319
P 2.493383948174303 8.736097918645436 9.90039837436454 0.2514238072667735 -0.017083180734531873 -0.0976947210400124
