# total energy = -340886.7829278968 ev
CRYSTAL
PRIMVEC
9.10241068254204 0.00000000000000 0.00000000000000
0.00000000000000 9.10241068254204 0.00000000000000
0.00000000000000 0.00000000000000 13.32229811967017
PRIMCOORD
 96 1
Ni -0.09446117519497649 7.75448004030107 12.043291012612604 0.4343657676120648 0.42975963629862113 -1.983328409790649
Ni 4.88599190768188 5.3398836072171765 11.75782030430024 0.958546339295433 0.20649557929551532 -0.5798439266839434
Ni 1.994165194543116 2.799109559795405 8.07372524277017 0.6891785459557292 0.160673121644762 1.2258315390744954
Ni 2.1431261423601247 2.487424819486819 12.908680845024907 2.3133940352310414 0.6086886188297775 -0.9960492213368976
Ni 2.6398628881144663 6.776189369504808 8.149822304783306 1.9895785044654186 -0.08023821612646181 0.16068700560183294
Ni 8.183412930247963 5.055287640553773 6.163600783882713 -0.7960443919720485 0.6757411895039007 -0.261884083368149
Ni 5.068677286397881 5.655427769577361 7.021823378268063 -0.706121601567971 0.45273321437565894 -0.2769926568748133
Ni 3.2319746910778897 6.865957341846472 12.81894109015579 -1.2912062078255635 1.4470209729367596 -2.970655163652884
Ni 1.7677882454316582 6.406458557443758 10.235001591665407 -1.1867823955918335 -0.41382728133908087 1.973811471439149
Ni 5.400960781665825 0.5868442380076209 1.59882201981983 0.1320192053534952 0.29588486579362594 0.5781179451317721
Ni 2.4584427444578334 1.5828636737328894 6.047564165081831 -0.05630613079089657 0.06188233932709342 -0.39038396271447606
Ni 3.5306611891938275 4.796715465507163 0.3930411751080755 -0.11676305052537311 -1.868551536457369 0.8047684021086075
Ni 0.2516061002916841 0.8785136878698386 7.226094213241519 0.41917620435582004 1.4112808392226726 -0.27020468741870235
Ni 8.519947251218966 5.2889738252959715 2.1776224576694374 0.6143951822962516 -0.7310705582038248 -2.764638323766
Ni 5.888385761479635 8.362511959227337 4.218811615091713 0.7491533838474645 0.18991247812585357 -1.0572587029666825
Ni 1.3735446418966577 8.599675264780172 0.5701267508850595 0.9937532262138691 0.8739580737303916 -0.1320713987476693
Ni 6.217073804600453 1.6933396299599006 4.1942724266273155 -0.6107658130737804 0.28036491578115585 -1.3573136409775979
Ni 4.412966941277571 3.2702867368684054 7.121927137731403 -0.2402060841740831 0.305096614199881 1.0535030925789919
Ni 3.891353307629317 0.5002575581353755 4.262708899964448 -1.143679136644456 0.35706040886168183 -1.4979900077854589
Ni 7.377867805902736 6.058992241463392 12.8808766219145 -0.32021315812634527 -0.6403219294643424 -0.4764922644684697
Ni 5.9521117373835075 4.318420203423904 0.5743120392325242 0.09252886056835678 -0.19719307094766683 -0.03834646098868234
Ni 0.9159755685197427 5.558933115876896 12.998339588440583 -0.07684076040913863 -1.8299129981495648 -1.342445979837146
Ni 3.7288752802212146 7.938658214338916 1.3829210349517327 0.4102038256538806 2.372178709469418 1.8191390474625124
Ni 6.307633686655535 1.6669244346916474 12.839697316816782 -1.0797391434573855 0.699833197456098 2.0712513961558776
P 5.059465646972839 6.306404861238163 9.315363213160845 0.32280688699545057 0.1538913228362382 0.22510650952848327
P 2.5364139927927245 5.0285356560970556 11.68177694650905 0.8581342193242576 -1.3314863955018488 -0.03136385902326211
P 0.5114316772640134 1.8450859153896195 0.6002438965032774 -0.0996400176918413 -0.4102511339520482 0.8002396610003186
P 6.778401255256077 4.025013103397417 7.592270534002688 -1.3791171100059345 -0.38697133748850127 -1.4703066829375775
P 4.4280951475269985 2.5820898886769745 0.45855213371081266 -0.7081021223331095 -0.9395538573533303 -0.41796392921527376
P 2.2535747913556388 8.515778347210398 11.527771442793465 -0.28584110840437865 0.5584078682973544 0.7143591589864149
P 2.831486833940539 4.75703805814179 3.055348787031108 0.14788882539590015 1.4656671272830373 -1.8880834358427097
P 7.431180624195692 0.25082147250666575 11.559584367487657 -0.9788112601920562 -2.438568963969194 0.6336925970732828
Ni 8.376311213543902 3.4419946085225486 13.293122062693476 -0.49816152191178725 1.004884303130024 -0.1015886567777799
Ni 2.057554381258524 6.374736656854557 1.5632388766969305 -1.0393381139325197 -0.6453574350057208 1.5875315035907176
Ni 4.561627509548112 2.677783530253523 2.6133157078939773 0.6211325010200851 1.3194225223587792 0.9597287896393084
Ni 1.0515104608506478 3.9282089677399847 5.93958682053681 -0.3464769769188807 -1.4664364013488937 -0.08378968092314601
Ni 1.50468306995652 3.827754765472431 1.476710452251879 -0.8712054506859189 -0.02334561670447592 0.43405800656365884
Ni 7.1934893788339105 2.426657126995139 1.9213550129611878 0.015180307284864178 -1.5101325566852637 -1.1662279684792496
Ni 1.2845048623949173 8.789924746620889 4.822458902880587 0.8936596659243772 0.3160572269764428 1.0653630772413718
Ni 2.7748971478679234 1.432428135415034 1.65497570042954 0.4908413341012902 -0.153431095370368 -0.4666693648407769
Ni 1.6302599252014607 8.495498176618508 9.386517666272995 -1.5352823164780138 2.32540288676646 0.2925514305450187
Ni 2.4782586921142724 1.6104712847765184 10.534500024797861 -1.3080304784717538 -0.6711638545458635 0.42796500629204365
Ni 6.876106529552916 7.269895012562965 6.177123324920108 -0.2291282290933667 0.5489076421164031 -0.4300247170345497
Ni 6.1695956314373905 1.8747688760270327 8.381643405614248 0.2594978425241595 0.14265765890394785 -0.9314042316630023
Ni 0.7811998172244587 3.5756817115221455 11.372193042543644 0.19528145574725078 0.93456231767601 -1.4729353788096764
Ni 3.141879031958259 4.648737578024053 5.256645704167533 2.269617918586356 -0.029145768326020775 -0.8540513075041356
Ni 5.864992566497068 4.033105146331076 9.58427390605228 -0.1877306399831864 0.4462959433907475 0.58117704367307
Ni 8.137800751237206 0.3415315443349823 4.732573509443484 -0.4516368959876867 -0.505904913302632 0.4965029032624417
Ni 0.1856755205649406 1.3198040103102466 11.74168719193172 0.9228671407262686 -1.2410848656891398 0.0006851989924826909
Ni 6.9022304476852 7.17310908172653 1.7183503232881494 0.379522851630256 1.18673148774924 0.15512031014733282
Ni 7.263996650559578 6.0811384062075895 3.7943634827977037 -1.2616367216985627 0.3392768596260157 2.3227513080762257
Ni 8.11978708085958 0.2619682844038065 0.4619364099343607 -0.30933816308505435 -0.24859276557588153 0.8485036382130291
Ni 4.988230182407247 0.9766795441379299 6.213586671138266 2.205462724064686 0.5090709697354395 0.8391409660512065
Ni 3.8364475674990275 8.100408048907095 6.2752818992598005 -0.003143173614672006 -0.9866608381434621 -0.440118610935442
Ni 2.1674022711611003 2.862780921236284 3.642596261823837 0.3931568974739229 -0.8639999340764153 1.3287957360435632
Ni 7.17186205148816 2.25433029142706 10.921885872262875 1.733955314405317 1.7881657390094492 -3.102376378149986
P 6.380871681530919 4.18498796791828 2.7586748318765104 0.5112949739699517 0.9822303131759342 0.9139073604298197
P 4.082130729278977 2.3805352129964352 9.451024628997686 1.519620698681357 1.1155492111774596 -0.8927862621804883
P 8.930393145442281 7.045402262424811 5.08771861892085 -1.4984872591368517 -0.09515035735160386 -0.8380076237777117
P 5.096193873336519 6.562146186619567 0.543591403798219 1.3946476015413658 -1.744984832746601 -0.5993485723757742
P -0.08125630828399971 6.984743798859119 0.7421450147372204 -1.095647844267842 0.6829107106691464 1.756077600225653
P 2.025468384249361 8.614248223989158 7.269857692679919 -0.628956110829562 1.032966148967905 -1.5531651102957058
P 2.3397837211921733 8.8551981323096 2.8839977298685273 -0.46537224329590826 -0.7716613351419936 -0.3892897012090328
P 4.815348099798726 6.706774387039027 4.911091804633019 0.2819669701609531 -1.5891533554648567 0.3307647083899465
Ni 7.0123150002607515 6.060120940365276 8.368947363450168 0.6878780819767508 0.6555639432250774 0.17897834771185306
Ni 5.546653964113674 8.28326637342258 8.254669330357702 0.6374330379523215 -0.2762328958906533 -0.47163673614838125
Ni 9.225839185420556 7.899526951603486 2.8427119265679712 -0.3773335572884211 -0.8945585235895626 -0.20755076003290707
Ni 0.9275720394955368 5.383957478853593 3.9710303476917312 -1.1319569631115214 -0.7498406397224764 -0.421683544158706
Ni 2.70915953924376 6.920817569924267 3.9310234330662914 1.919721117352649 0.550563175441955 -0.6131638809923117
Ni 1.68353633385242 6.440974898056169 5.953108451333155 -0.1990280672738766 0.740036766258177 1.414948774992563
Ni 4.87559695489196 5.905944311332309 2.664513125986953 -0.4469389762913851 -0.6346215366454554 0.6146620628043931
Ni 8.107790103821827 0.2940697555108181 9.385266084829377 -0.03257896237728583 -0.6704945963929808 -0.017415624373286136
Ni 5.9642634553997445 4.022218663374208 5.122569928239626 0.026875484234605326 1.2098259076748583 -0.33923160821037707
Ni 4.470921988925045 2.8621983669643445 11.582365880484689 0.22630695759448766 0.6538027375595966 -0.5517353413731853
Ni 4.010212583925957 7.955315625552183 10.168936296263277 -0.6426161248151577 0.3500029877942682 0.7243550938568621
Ni 3.6571391830781743 0.742743953348058 8.144359948242824 -0.3119162082248757 -0.2636090364790557 0.9558952748258313
Ni 8.21170322207902 3.438854276900375 3.7585928300185234 1.0346895594169148 0.28007181002076925 1.47109549738746
Ni 9.007800044326231 7.651113066673819 7.37081434800702 0.1995165768745209 -0.19631426788713932 -0.4254106153013061
Ni 7.434166214839381 2.335268925584643 6.063670880459906 0.767828848769781 0.05117652287381509 0.7520265916302016
Ni 3.9186696415369764 0.6642374832758224 12.534244086735846 -0.441730178396936 -0.8388946543683552 0.16845842201713568
Ni 0.5713610377487311 1.2379915447447545 2.6506310397348467 -1.1797342304958005 -0.008015671215624905 0.8387478443778458
Ni 5.703270039160386 0.6174201451149911 10.29777636567213 -1.5622357051384061 -0.7688197519281404 0.6386764234411194
Ni 5.904114726821999 8.34612762032904 13.025237211465285 -0.03211205004319631 -0.12051403292737307 -0.8236883789415622
Ni 8.72192063778246 3.327367953107969 7.910567265297788 -0.12245650136572458 -1.588194848206329 1.0792935712795348
Ni 6.428522800493464 7.2163455315970335 10.937859692447665 0.6600335489606569 0.3781586242928778 -1.4132035101666822
Ni 3.5010601502509062 4.825488185094671 9.633780096274531 -0.3956778641235637 -1.1283908430268181 -0.4897722694068275
Ni 0.6491529685967911 5.291941211118663 8.202059218155274 -0.17720248675835287 1.0874892197164496 0.18097738041975284
Ni 8.346173132381537 5.206414962069557 10.215537907295282 -0.1674441218200084 -0.8541677784773419 1.1090049823010386
P 7.249396384119096 0.2974540317343662 6.995272557083374 -1.021491572669402 -0.48721453598198017 0.41114227830775
P 2.536177330119749 4.85512563367959 7.3067342883347335 1.1998186599505014 -1.281644018058425 0.7449540010541363
P 7.323180523624424 0.230289165143951 2.636109964265707 -0.2755171007705513 -0.0844190869770288 0.3896424565627612
P 0.5033724030081517 2.030647655823322 4.963288667398791 -0.16337123730221542 -0.4878028043852825 0.16082018874558754
P 8.807920212177518 7.074630102537271 9.401572142997379 0.10443615352890402 0.5382457915271828 1.0455928365929799
P 0.4113497635858715 2.0075366355662254 9.573842543620366 0.564037555779306 0.5436052560668831 -0.3512949671328144
P 4.274828759543937 2.679139789417882 5.018603105760488 -0.8257465470221714 -1.1259223268816674 -0.7101088683504931
P 7.020907675771858 4.177724244340036 11.641623483074575 -0.9285641911110459 1.5536590192129887 1.0808920261149064
