# total energy = -340867.3742610051 ev
CRYSTAL
PRIMVEC
9.27069027978400 0.00000000000000 0.00000000000000
0.00000000000000 9.27069027978400 0.00000000000000
0.00000000000000 0.00000000000000 13.56859232019852
PRIMCOORD
 96 1
Ni 3.996094030900848 1.6008999077408956 12.88807305703944 0.6630167999586969 -1.2800260228390277 0.06668695980458837
Ni 2.4082379846074025 1.205912870903617 3.273151684444334 0.3850422387865885 0.9914469466781957 1.1235607686280262
Ni 2.342351187658556 5.817488040039149 2.6121709246048606 0.603114981396742 -0.528990848587818 2.0282157572216426
Ni 1.4683012223941463 6.688469406768301 9.246887014070673 -0.7064021089228674 1.3061342898903054 -3.8723212448215056
Ni 7.807840382425335 7.054670949792977 9.529751539533471 -2.0688093623732886 -0.7479742759376989 4.437835385146338
Ni 8.450623704002405 6.503658192869997 3.778785338738229 -1.3537004697050428 -1.8925802952717987 0.38381839368181636
Ni 7.552247447026475 9.18018995877747 9.145502743431503 1.0559191582196525 2.4430210862032764 -0.7799672839045276
Ni 7.58597421884298 3.4074051880344163 7.029439838694627 -0.007549787322799901 0.02946844177276215 -0.22318152459162852
Ni 9.093907642863174 5.2558974253254505 9.962549087325565 -0.6728016472596027 -0.19466593365043894 -0.12989495992164082
Ni 3.1737652475947344 8.165855905792512 12.72891384358541 -0.2444615170163274 0.24967494289646677 0.29658986228045053
Ni 5.361750168756141 8.786139261674517 9.24832582522678 -1.6887110978555366 0.12112261304564947 -0.7550478949550288
Ni 6.261405781012632 7.505708581023492 2.5939623615139324 0.06174452819764851 -0.3541578905029062 -0.024188938541377696
Ni 8.49051548496074 3.0240992211500783 9.239329547224928 0.2012865242907501 -0.6885671376239755 0.29719869950904304
Ni 7.262408581146537 4.536148831725117 2.409741690596582 -0.34987777507031353 -0.03622632932188599 1.8407946780590747
Ni 7.716385021246164 2.6758271934341216 12.184230187025028 0.8780170742911136 -0.18680092908006538 0.4391004540835728
Ni 7.636647812781687 8.938363998680293 3.8068588435251285 0.6422664547852229 2.282320710865005 -0.7351940934538951
Ni 5.1187468309732305 3.6998027644754754 12.975360315797309 -2.593250129696579 0.09447518566145019 0.05466268165020264
Ni 0.38626239006528473 4.848682347799341 7.642903674689818 -0.17329903793888862 1.9465577779295187 -0.015790430065037324
Ni 8.473522309386343 0.32210735809041424 11.731934523101964 0.7482974636050727 -0.002044798344170672 -1.45667135154233
Ni 4.82403158192246 2.1354108356827375 2.8285905575543953 -0.3524365369364253 0.7044902366121352 0.6919951894689179
Ni 4.3064860174836985 0.704464933342859 6.954419557525434 0.5258983257054233 -0.6716865598185529 -0.6798297577509776
Ni 1.4821145511480203 7.523508306666066 1.2083566249032955 -0.20265846493761225 1.2737854412459546 -0.8459333063826915
Ni 9.130322914906944 6.109755826814063 12.3906625051648 -4.0726343494553925 -0.5889160641885406 1.7009706319491802
Ni 5.563675077204548 5.669055015422858 7.237961770459312 0.1955704477425793 -0.6687390471544548 -1.4161947315845222
P 6.369075579769336 2.3820482841176753 9.225258493276854 0.02717964573858545 -0.12920179050935812 -0.7717847480937353
P 0.901103694103037 3.0083390474040477 6.64390241662166 0.2695688536069164 -0.4026049302607002 -0.9572530744053064
P 6.893629786179862 5.97199336689288 11.461186790042731 1.3594826236044588 -0.1090433132836122 -1.155623710600842
P 7.808785992850096 1.939511876019579 2.875415887891939 -0.278531719227159 0.010899677631639293 -1.1288778099655656
P 2.955653713640112 5.072912537443598 7.940828436770515 0.4389312754955602 0.29215573776849685 0.6557680888160835
P 8.782087969952743 7.845803859772389 2.153131760456583 -0.23194024462086504 0.19222158587500443 0.10830257846284574
P 3.119624415431901 5.004040578173445 12.459237802340908 0.7011933110284182 -0.8453818047545957 -0.322118088458542
P 6.72432843738574 5.129194899097805 4.770405273078982 1.6130527877902736 -1.1443645927472548 -0.8287223418210437
Ni 8.193519646062015 5.682460433797423 6.444050434555378 -3.3488472122868584 0.5686575710498206 -1.5482337344323593
Ni 4.852436977427071 4.485345448120266 1.819005879281255 0.19234679859895906 -1.2872215121462025 0.11853222661065395
Ni 7.011942337560358 4.883966595609571 8.934931989079834 -0.14183644855423316 -0.5495830709168729 -0.13115660024288378
Ni 9.19900018967788 1.374871204151502 0.2014585927193317 0.6778273826089681 1.89273096191705 -0.6374890880012376
Ni 4.767814115101326 9.117445925887392 3.8097077266969848 1.469048127940128 0.2322778304659419 1.2498016767368476
Ni 7.043379248838468 4.768555770336433 13.323828882150568 1.9412307092896504 0.6618032392665699 -0.13405449061596914
Ni 4.628827924042215 4.557870059423323 4.283374186219667 0.26365531633595884 -0.17809260267279006 0.4335144753553631
Ni 2.1107507991154195 3.699320688572656 4.339317240603811 0.2804896142844783 -0.16873892937203197 0.6355936707507376
Ni 1.601799164713463 3.568103336101294 8.68772532025195 2.769015884008405 -2.975777572481114 2.7682746349670064
Ni 3.491564515838219 1.4731219814223437 8.923683860370387 -0.8356890029468639 -0.6042629789582561 1.0311987726548368
Ni 5.268644624678858 6.303309301796196 9.555301562382917 0.06445010005426965 0.29624790555999947 0.8149579410470997
Ni 8.840799252501924 1.4443735703714966 7.258831021706188 1.0391416816509975 -1.3059915936648538 -0.038096549761405356
Ni 3.9159767241283805 6.3765384855726035 0.7806310718502926 -0.5092504327360972 1.314249719908588 -0.34252750535282944
Ni 0.7496549138869916 0.10256535660107839 9.555436914463325 -0.01055566402865924 0.16974783025252058 0.09091909287907567
Ni 9.048323657975391 4.138983182634711 4.896104710601145 -0.6544249445246277 2.0073391708829496 0.0372830527211745
Ni 0.6759306752411489 3.5000286562088814 2.3201886750954617 -0.4401684903367709 -0.27766062947611536 -0.778336433169324
Ni 8.876704636571558 5.765803940842607 1.3655291293962817 0.18015925539383165 0.40028785209174933 -0.4527424703470396
Ni 6.519140245902863 2.8110772962463795 1.0949844244576596 0.604132624027979 -2.0530197036391997 -0.2797475939121311
Ni 6.224434267542532 1.0979649514337473 11.00483427198363 -1.5262826840825647 2.571743880193687 0.04081112047909101
Ni 0.10695502852386982 2.0334425115459207 4.46577687474196 0.11882430392977603 -1.6407255711151938 -0.4032294512185765
Ni 1.736001679506132 5.2468492314571415 0.5045063383365318 -0.7831994176885801 -0.4342492966388586 -1.5891602974433923
Ni 5.991582335790151 3.6744196140539276 10.907981514830965 -0.08459417910231239 1.495357198148302 -0.4302820844609944
Ni 6.694124527935995 1.0565156944816871 6.38372419773175 -0.1526744197100016 -0.6877464414948931 0.4443131086327638
Ni 6.186229752244067 0.4325963738095704 1.8082861799268224 0.7863677881142327 0.7302917710562713 -0.4052289981471086
P 5.5501213277829615 3.481672689139975 6.435773562131581 -0.9390810314819698 -0.0581732659066224 0.05578419684915554
P 0.7873680825921986 8.10769159397922 12.426917394263977 -0.6975243468172633 0.3054514264361385 1.2393478283933752
P 8.610765610642952 7.2556224357453045 7.8356997342630965 2.227556727750248 0.7194365735093222 -3.2125499483832995
P 0.28701037822704834 0.11138178320841662 5.234939175450362 -0.5249992109299215 -0.8638132719869059 0.5857322671439202
P 1.1590031772830793 5.887954558064782 4.551245224035727 0.24791348012066977 -0.9729473452121113 0.6795590205880941
P 2.2563748045287406 1.1100724731468743 0.9811125337973704 -0.20516040542385958 -1.06469973262576 -0.3021840685387764
P 4.077156948098078 7.124646121225353 3.1748202521666746 -0.2973519372574556 -0.3146914569771677 0.4230482857167166
P 9.068311266561533 3.6593640127812495 0.18642987644892584 0.25302637586720295 0.8664661362287207 -0.06690936022803962
Ni 7.9951824948134425 7.806523944383018 5.731604363813721 -0.04728695801142179 2.0770325216140293 1.932682305499007
Ni 3.4762678766141306 7.718183535191299 5.341045935799077 0.47846944279949855 0.4616665123095469 -0.43702068873640865
Ni 3.8129978947337295 7.136123235988638 7.71814089001528 -0.9425980434962928 1.1662531652902302 0.6252645209105876
Ni 5.8451888630704065 7.013768663576809 4.930365474186928 -0.8746203899047388 -0.1204744379386893 -0.4226600491393624
Ni 8.104076024708073 8.513126698941074 0.23697553485957715 0.3421040446621657 -1.2915131975430207 0.22383355635333063
Ni 2.2371659339394614 2.9883050853657114 0.04809541492766551 -0.53672909777234 0.6521130085619995 -0.22184712205092114
Ni 6.866114376957381 2.664665282145757 4.707907840554577 -0.3623401692033824 1.0624736715087186 -0.6086140568381002
Ni 5.591969224423891 8.103028436688485 13.556856029952243 -0.21164215649346133 -0.018091824504704326 0.621104218885311
Ni 3.6115087087359496 8.979776172870597 1.920036936614705 -0.1997384630773399 -0.9809627593174202 -2.2838232635524602
Ni 1.0945718787331313 4.274872963087249 11.384184435257714 0.33170341815413196 -2.597942650076242 1.8996179188448703
Ni 1.716996764106507 0.6818147824626817 11.868515897061238 0.02719918612261122 1.1539342387135612 0.1864970246864014
Ni 4.892718127383836 6.347076231357966 11.994893949123526 -1.0509882965769384 -0.24542645203275795 0.014716480274568204
Ni 6.528336770818194 8.32783340913995 11.287454051218843 -0.07011629720111151 -3.960571789729482 0.5958618993787543
Ni 1.647058675435887 6.50348204975166 11.394700179422493 2.5031206225983342 1.0140803678069954 1.0490381148291028
Ni 2.1417334465620277 0.9735986391966893 6.183370671312728 -1.4903006095610012 -0.23810729266352543 -0.3055388439436222
Ni 1.0824087328773713 7.904042337109192 3.7960983531327654 1.0846203828090868 1.149761338282794 -1.0950629182986495
Ni 3.071732028624846 5.275050671772097 10.168927635460788 1.4127545955547218 -0.45774069489257946 -0.17408271018244856
Ni 1.2441730103447155 7.613860455683016 6.14331572620267 -0.3347491469589913 -0.44533049415368464 1.4849349743737135
Ni 0.4383145356722478 0.6305654786477222 2.2353442432682287 -1.0602977469033223 -0.6224576475894118 1.1110019581264095
Ni 3.4635299479511623 2.9452705403486097 6.928177941169249 -0.5922034766905607 1.0783008683489623 -1.4281421337543856
Ni 3.2988917564477775 7.733396738201437 10.321370233691878 1.0755649574750379 1.3724756934300169 -0.6436828755167753
Ni 2.875211932702285 5.45698797163436 5.862880121634848 0.2400577315216769 0.142847920537883 0.11207001592507797
Ni 4.507224277555932 3.7458317425043233 8.979287607484471 0.9950763159006668 -0.07504124530655464 -0.6251367370834718
Ni 2.9980114982551784 2.999420643201882 10.829853698226673 0.5390428335071814 -1.4977208132844724 0.8993988824009994
P 0.3499769076876593 2.02728677309453 10.785768783982851 0.13016055487820163 0.4756103760841486 -0.11925779192276881
P 3.9747621722010735 1.5062461583603244 4.840459245380087 -0.5576558206226784 0.9563508743060112 1.0263918381844968
P 3.015635080779416 3.6133350347524016 2.4113427388353705 -0.5100225350154313 -0.7587482266247514 -0.2964834186095733
P 6.695552214263577 0.8137589570644485 13.194968139188761 -0.20072936623569945 0.618897183931663 -0.07887038924465771
P 3.6914498723900793 0.5855674013956736 10.96667889134449 1.2184648142967789 0.04353726116100244 -0.36570111525581533
P 5.595241778148802 8.368133100477595 6.509084327983851 0.26363731861382983 -0.5175458399756699 0.9330281404196705
P 6.0831396745641495 6.084771316081386 1.122435865916113 0.14306466453437944 -0.1568853724675556 -1.4997332157288106
P 2.10234228288739 8.695091810874654 7.983596912972022 0.9209138736546397 0.29872824877969195 -0.033432825737148876
