# total energy = -381170.72717248497 ev
CRYSTAL
PRIMVEC
9.22911742337159 0.00000000000000 0.00000000000000
0.00000000000000 9.22911742337159 0.00000000000000
0.00000000000000 0.00000000000000 13.50774624258973
PRIMCOORD
 96 1
Ni 2.9626850640568905 2.170771431963482 6.583297282245209 -1.9192871151390234 -0.09189431230815141 -0.8993346048219673
Ni 3.8237340132378193 8.713551043793844 11.697424315162111 -0.8637109420810867 0.2710683209705783 0.40629034953208737
Ni 5.1658322392246205 2.436662299042837 7.195252357685361 1.2588871839778835 0.5195829250103569 1.4438844841903067
Ni 1.282884209909705 6.9410806236506915 8.619981638869024 -0.6110483773112056 0.004715660308114459 -1.803316992828591
Ni 1.0763181083140747 6.492499381221256 4.028820687343244 -0.1187451139524084 -1.0814682103333504 0.007502221914316112
Ni 4.916286138740112 2.5662114174459227 3.166201865323364 0.6927261540976715 2.322009801924511 -1.2400042310304515
Ni 7.390686298091435 6.2269130750101285 11.749024309533533 -0.3396445273780796 0.21825709070681762 -0.6336982535002377
Ni 6.4684759891002015 2.2555316445027667 9.976604649535085 1.352822952196096 0.7558259107716339 -1.3665816965430853
Ni 1.6881347469959413 4.9911804249722875 12.818702068008538 -0.42150613804057724 -0.152893220589027 -1.9830121641018108
Ni 0.49866304701833214 1.683095648994368 7.293156678967944 -0.3018050879328028 -0.37610585552890713 -1.6167297224212285
Ni 0.517109283603945 2.380373913124163 9.331042666653673 -0.2535490811398924 0.7671945576198916 1.5889844339871602
Ni 6.026770438998921 8.3319547341399 5.926820945340608 2.4541717035034574 -0.8215235100797592 0.055056574654511636
Ni 4.222219607402529 8.827041498235872 0.4972445317017721 0.36197815787827337 -1.057205995351876 -0.5797891621866079
Ni 8.235030545105976 0.15912843908997681 2.816580755186365 -0.364708669435559 0.2648475368718471 -0.38208084216541943
Ni 4.442804738053819 2.1766134631631084 11.099152328910847 -2.342012727408999 0.8319624460248963 -1.7180126750331317
Ni 8.081181161065267 8.658868524271275 12.475416746842383 0.06862711425009471 0.12422722011290216 -0.7547740724683517
Ni 3.4201354881337838 4.85815192937764 9.959328665012842 -0.1847792706643463 -0.5136380202808315 -0.23493146603870507
Ni 3.9072667531869767 6.792159588204926 7.713746931783877 0.07687058520580954 0.4846215784438234 0.6307697669995329
Ni 7.6549159240713704 6.341151087946895 2.743112367564525 -0.0010945186157594053 0.24677422430990406 0.031403454011945914
Ni 1.3503675150150243 4.431203737709537 8.018846780456427 -1.7577321051099406 -1.3143253103415298 1.221004292889181
Ni 5.849146849002071 4.250894474601958 11.183738111134693 0.30316957238049724 0.1127737268603219 0.09080442167808232
Ni 8.123930432023668 1.2530280157062443 0.7193856915161848 3.492382645810069 1.3765295517844163 -0.9636360951135146
Ni 5.147014069215082 1.487909048929763 12.967665557393511 1.275917914207925 -0.21163187208081616 2.056374736154362
Ni 4.430483866566456 0.6506989095255084 9.150268256038256 -0.25291890375506115 -0.24305100982204592 0.30185856687855755
P 8.170205225759728 3.7849809500352434 13.195122688726066 -0.31402914080282046 1.3425506237358102 1.79548901214374
Ni 3.8488833576595907 3.948862384493004 12.637157949017057 0.2677922213224678 -0.054943446115415046 0.4693674804982303
P 4.6776673130429 4.520200115052342 1.2599849242659256 -1.9603586883683528 0.4445771609274279 0.6013064674330935
Ni 2.825485007479255 1.6394603827829417 13.069635304811062 2.2532096524316616 -2.012637443167411 -0.783652703175915
P 8.271559391058773 3.768350080806607 8.383879593437433 0.1455630054762009 0.5851298576732309 0.147706534181765
P 2.7535071222882834 0.38724452939196946 5.440055153329287 -0.7661411766547127 -0.39320677687525185 -0.27681705052889743
P 2.691118289887852 5.258760220502719 6.7984353879138455 0.8700314849824758 0.8215016557028885 -2.130941355817343
Ni 7.060265443416841 5.616923801537623 5.664297783134465 0.23007130973292636 -0.6956561832602729 -2.640259408566582
Ni 8.448416964326446 5.865639281472421 9.447439370107963 0.662007384857576 -2.4700675487981076 -0.4218380674586993
Ni 0.46934398743701683 9.204290893679666 9.040518362805088 -0.9080419027879781 -0.07074081815898785 1.0469501219518227
Ni 1.7910024875189017 7.771488903664544 6.169676858753063 1.133509395200306 -1.4684889130025482 -0.9543387289719886
Ni 4.149208061083029 0.6634443204049457 2.4738897891691116 -1.2531086296228933 -1.3285121433648734 0.5621002295472771
Ni 4.46758491778683 0.08485527244664041 6.914007008288758 -1.4772160084629011 0.4857672620124925 0.4096299554282816
Ni 8.63411603188992 3.6545089199102576 11.15198164169584 1.2216444975763412 1.9076906685506758 -1.4543272767901858
Ni 8.006499144529128 3.311684131693329 6.211171892681404 0.4672041542983244 1.3574187990968944 1.441695189848472
Ni 6.289514177106597 0.7238959611011095 1.468467913507942 -3.238789855916435 1.0505643216656422 0.6147466520983994
Ni 8.235492000966925 7.758318953393032 4.611045084574113 -0.09735353565050975 -0.26747314742015227 -0.08884215574538894
Ni 8.33905192528131 4.065444593203397 1.9732923191816776 0.1916132628670442 0.6671807015283994 -1.0312044290817919
Ni 9.063546856089934 8.829090362258489 6.421379803931651 -1.0103034172630665 -0.2615328706763173 2.114645961091429
Ni 7.687485478737217 8.001293922417613 9.6104643424878 -1.1800998413653354 -0.8569792797842078 1.0277686639273655
Ni 5.13662208322649 7.228207689450962 2.2254013455179016 -0.022395079865748527 0.3444468338627294 0.39069480908667553
Ni 7.312026532033909 2.1605363409676124 12.111895663261848 -0.8870784131624335 -1.6356728391826345 0.9669271071599607
Ni 4.450234177415113 6.236612877207295 11.578853231691024 1.202848962136393 0.558636953589025 1.5402304045119086
Ni 0.3644209225093855 7.3880559996840205 10.979433143257717 0.30278442112693665 0.3008087854578045 0.17227753865290976
Ni 7.040339779341022 1.3846444563663858 5.9946697234877995 -0.5039171934486418 -2.1717797299899435 -0.575606491563828
Ni 1.9588801297324892 1.0971851423462309 1.6712454624851736 -0.6419538086408105 -1.2838888482285435 -0.11691191739841154
Ni 5.924336466985253 4.943161328081837 3.043538591277373 -1.0077153448209162 -0.9151726002954884 1.013193337216352
Ni 6.425643656086828 5.628330990420306 0.41220929146936114 -0.9095881642291755 0.28520167504816685 0.06257756562190513
Ni 6.2656199926266085 3.304789981130737 1.0748257600597626 1.4520816752891186 -2.4095910886796053 -0.7364732172766348
Ni 4.027309880854494 8.117903818479663 4.376225886435962 -0.4823047573851888 0.4909873727608512 -0.23530067645266575
Ni 0.9562472932949007 3.1103232522092137 5.577537620893825 1.6060223633060533 0.5959351758188511 -0.586947370497944
Ni 8.681119925886282 6.268637913957222 0.3481527575874564 -0.40080207272400653 -0.2100113057582577 -1.204056866401565
P 6.01064717121733 3.333649430674546 5.2443554143473055 -0.7647355545564378 1.0528880847028126 -0.12340858086634875
Ni 2.693508631247573 3.202199114124347 1.3995513264985127 0.7482614681608145 1.926336308676321 0.4679186638668457
P 6.0815360205764595 6.994074214722183 4.336431778811082 0.13949725889809525 0.13797490871629786 -2.5910343529921827
Ni 7.340359921896235 2.4899235345136783 3.7053364371704496 -0.7067445798639506 0.23748508569849422 -0.03355829557141962
P 0.8859989446707697 0.2434613435020219 0.034950666908348346 -0.5699624059041732 -0.21700496346727144 -0.0644441865169987
P 5.616296221566731 8.064448771547221 8.377409059355191 0.20409956825951298 -0.7130124151505333 0.5705110793187916
P 1.4032042110937923 4.219884640746122 2.9937622704684252 0.28855953577680626 -1.1013636637056967 1.861101250826911
Ni 1.9926586987540247 2.9876313678998443 11.188627697437319 1.012765505650314 0.6481637941062643 -1.5428881538497299
Ni 3.394589291671595 3.829963667360643 4.768639644382292 0.45566401486920877 2.12129046299114 1.0343789701550314
Ni 4.647654223846716 1.5614466549307453 5.120962117129292 0.47322799189490117 -1.4310369388036774 -0.9143467619600832
Ni 3.0395082357878365 7.213671829831039 10.074604030725023 -0.3217195674685427 0.7736745089172805 -0.018148902994884874
Ni 0.9894998026349533 2.6479167921857187 13.113265956463879 -3.707890970127156 1.7337388275191368 2.1103059389551784
Ni 1.486340099002533 7.423200478053968 13.084034573496142 0.2387973767520145 0.5743283961823529 0.5885915909695864
Ni 5.842437280783859 0.18491182386469368 10.93877519026114 2.1425357455231615 -0.41877871180708526 0.47286366657694695
Ni 7.0145167093622645 7.984109306155837 0.9013903434568938 0.2764673804989626 -1.2076445837528234 0.3063209735252853
Ni 6.15822075554912 4.7301071570812505 7.464515544196538 -0.40890696121932807 -1.5022022460945936 1.0419267005953023
Ni 5.990260051280561 6.035547329474189 9.379738257836275 -0.8047971984640139 0.6339049701944051 0.9005767047591845
Ni 6.149323886550006 0.21693778352634133 3.6488200920564666 -0.42771458084413433 -0.6732616176151566 1.5203822594377299
Ni 0.1630425077025542 2.133615006039793 2.7721674743933775 1.8482884153329588 1.3547376527203057 -0.9639821655990237
Ni 6.966654507464536 0.5064284262463977 8.26687561407013 -0.046832901193138696 0.8086798213478718 -1.6102999076354847
Ni 2.3680991872228945 9.116715800388585 7.911689346250076 0.7676481002175424 0.962309148771975 0.20332412354606919
Ni 3.494688297028856 6.1030398636967265 0.4620502160988421 0.31202805121239163 0.6269362521860558 0.22878652948323175
Ni 1.3931906189111787 8.8223438775714 3.804673117445421 1.1006111018103883 0.3865460770256246 0.46909725755597925
Ni 1.2409747886182318 5.540599002136503 1.4371968956348087 1.1807217912200505 0.9377432865071527 1.0485074391366136
Ni 2.4669984073416855 8.010375373761107 1.8940428125338573 0.7262150298837364 -1.068376924367031 -0.1728112996691927
Ni 0.05576048041374678 6.076220049058317 6.333917305870644 1.0583591351197128 -0.47515477660396876 0.025326651690246702
Ni 8.846182687348074 4.472245621982425 4.3544516301811775 0.03969706147930583 0.9346913870547063 -1.2495422524278736
Ni 7.3649001445815525 6.867967557041783 7.460922648863182 0.055391075175794925 1.279206612261526 1.0305246294059476
Ni 0.38756016520085923 1.0726910652470083 11.531427567037756 1.3162153282753912 -0.42759245344397334 -0.8988077857842197
Ni 3.0971440728204835 2.6320611688034785 8.712036545658206 -1.2583117710903877 -0.13231616776862373 1.6468291129097703
Ni 4.621471218296416 6.031052749388536 5.59602908015381 -0.8035345297015064 -0.9511731867598135 -0.17056749794033849
Ni 3.292644462870535 6.074835681475466 3.3055209272144817 -0.0012063616032753418 -1.128932317352585 -0.4185033466585115
P 4.975795486568217 3.445838579588695 9.192466548698684 -0.2084020522896088 1.7300670350945042 -0.7918941172491006
Ni 2.509692303596774 2.05142048808739 3.788706744656553 -0.8209195579471733 -0.9996402811222657 0.03269183380606627
P 1.338692681732991 5.606864063768915 10.35975237379354 0.40041126504349106 -1.067575511511658 0.45713082922272236
Ni 0.14769171703219355 7.650319823696309 2.2005334891713093 0.7565877286383228 -0.2185345127379204 -1.4671779075006086
P 5.907225683661229 7.913681912657658 12.494678837390154 -0.4725075687891089 -1.0377154907274322 0.4039143931007431
P 7.987007248962603 0.8104078600885603 10.210626451945515 0.27169901257604173 -0.46415739705220055 0.4601153657723431
P 2.425688878669447 0.3235830017270378 10.20937036909201 -0.20259907245458658 0.1776979383375327 -0.6173226403556917
Ni 9.200137790931116 1.065621561457255 4.684526392960059 -0.8371619879479647 1.0283790438178548 1.969792322977427
