# total energy = -340872.9432441857 ev
CRYSTAL
PRIMVEC
9.17591286172402 0.00000000000000 0.00000000000000

0.00000000000000 9.17591286172402 0.00000000000000

0.00000000000000 0.00000000000000 13.42987598861720

PRIMCOORD
 96 1
Ni 4.5607589368625225 3.900946583485758 10.292414799738074 -0.29357730070637184 -0.592627965822489 0.7295037279373372
Ni 1.791798821652795 3.25213614941725 7.302964843459172 0.031547178678661796 0.8512300360052565 -0.9428762368583438
Ni 0.06432590068946181 1.723924595528385 1.376696130874928 1.3643090984588246 -1.982285056127799 0.7327834271298734
Ni 6.018994980622315 2.3554476101000184 7.620286255901289 -0.9786518517960564 -0.05008457536121697 -0.05632849938839976
Ni 4.3093481052304154 7.913380506083532 9.381829340660746 -0.03550744887799046 -0.21400345763678627 -0.6165672502469058
Ni 0.7897065733331173 0.10613135887829654 12.724954757844962 -0.8753012180218473 -1.7989116646720438 0.4040897423363427
Ni 2.54144336020706 1.443481176163733 13.274035867314883 1.1668979979630805 1.4107087687692867 -0.02814355231375153
Ni 3.218983576889537 5.738716727685977 12.100654104146999 0.0987046503617655 0.06356949722152924 -0.21806888595541152
Ni 8.61818235935052 7.809151313904653 6.814547527926483 -0.1032966406078221 -1.2422434047736153 0.2522455318371204
Ni 6.912930746134312 0.04689992491105619 1.5819585448448086 -2.1673582038834804 0.0160771080675207 2.3218833036489754
Ni 5.6119606698675915 7.062635761575672 12.344688419572345 -1.9826046442507468 -0.40170401571298564 -0.04382625315633098
Ni 1.8911097246329875 6.427075345423027 10.342952056437111 -0.5612077996399948 -1.5891577263402308 -1.2090244948194855
Ni 1.8573974214315436 4.560456131743947 4.069990752500162 -1.2527527889453716 1.1923601467899272 0.646667669176712
Ni 2.4487299384467467 0.6617759986911653 6.886356385409842 0.09644439357267906 -0.2719072719321059 0.14355857345166242
Ni 5.010525472987177 1.7862015149154837 5.459701080334973 -0.9527585289690624 0.6540644758614155 0.01799669368773675
Ni 5.682156401901083 0.10344648682692405 10.980830308133765 -0.2870531264346089 -1.3670354962510523 0.8930677979766489
Ni 8.154037168049856 4.674264976765044 1.914361487374539 0.3542159974343513 -0.21915029194504837 -0.5777726459772113
Ni 1.0714988518623347 8.13440989081853 2.996581475616995 -0.6686984237245064 -0.4556509022430863 1.496662290112971
Ni 5.247842102736481 0.9345667068772643 0.11195164029383163 -0.9621597676783041 -0.7513511628297319 -0.8941296635822601
Ni 0.14702381375506168 2.6633912397789676 9.152137894351942 0.24243111684985988 1.0127691051947396 -0.519147380134835
Ni 7.53458965457052 2.021352629271337 5.17776749275042 0.7879713851559269 1.9678747942397399 0.13614813992020425
Ni 5.718557247518974 4.806682572709529 8.496598763512171 1.3318394079658933 -0.18573494970939625 -0.34449542771247765
Ni 8.0274371007471 5.940036251975493 7.925358742501378 -0.3617009929574867 -1.2006318998804162 0.799940384592345
Ni 0.9503401007812605 5.476515022737349 6.500059637321222 -0.48076183837810105 -1.7493204840074776 1.2340660111691455
P 0.10059736593850588 3.5088873622315133 5.488938290920374 1.1164087309642772 0.6393551946756989 1.2335106528863078
P 3.497261480860738 7.6885522934973105 7.018197734037765 0.16338974924497668 0.39919436191725444 0.2797375666098021
P 4.759004530402859 6.066278458683567 10.449598184016988 -1.7508546612638167 -0.9189323244482367 0.05846097235037029
P 8.537278337214666 0.4985989082469849 2.977134963865547 -0.175205253822666 -0.6192082874141788 1.1369644436284418
P 3.8063245718871492 8.776567788191054 12.644026878336131 -0.40774893635548487 -0.32210240472925816 -0.40785589424699437
P 4.164130111091588 3.526954734306539 6.519076716359053 -0.5138545071670119 0.6135526317902982 1.534490416704338
P 7.46100801075659 0.42685887010875695 6.625333785241122 -0.9611220704424092 0.38837413137329885 0.7851539703117897
P 1.225195389321286 7.106157115436437 13.083478771012569 -0.4933620436406149 0.07218423547373375 -0.21299764208009123
Ni 3.3527592079112716 4.912600132822285 8.543334439586182 1.1845943868015791 1.2687093122746278 -1.5013424691974595
Ni 6.330480512597334 4.771915039549411 11.730633589977465 0.9346625906992999 -0.3524576199823478 -0.10374581233009875
Ni 7.681532720293961 7.5171187168199625 3.643230064657126 0.3605627655879855 -0.23623501534147703 0.059878421523187196
Ni 1.5670073127173092 5.811555122572494 1.479206674608072 -1.03282036741866 2.789409617173409 0.8419563240128145
Ni 3.5701824589614115 1.7090687928928006 10.956750878068105 0.24942811699298334 -1.0680604215678766 -0.9284981137598008
Ni 1.9939074744331446 3.8963678030563846 10.198983821605863 0.25246561826772645 -1.075934939219947 1.7039903926121107
Ni 2.047898544666486 8.828751203625625 1.232072735878031 1.3259785783097422 0.1361954482183719 -1.1892123451895649
Ni 1.008909951443976 6.96160896292355 4.997458055733727 0.47495217367485953 0.7082448185585609 -0.8132036773601543
Ni 3.8277044484411404 7.091861043474583 1.541816679625604 0.3901582198569152 0.38231044167772227 -1.617304621088092
Ni 3.9578005384765444 3.5182100895185755 4.406153984047844 1.0738119793396732 1.1721859858348973 -1.6418877097440947
Ni 3.739808380839989 0.13558420341177366 3.041531519082677 -0.9715463510995266 1.1275084404218647 0.3612371659471908
Ni 9.027061028554751 0.23732305288818362 8.511358219064572 0.3014952700018679 -0.6272463272273069 1.3955624000461513
Ni 8.76398761190113 7.99810170789598 1.1597298402764566 1.661095135910481 -0.5528535141380285 -0.35310090999330157
Ni 8.593095414072145 3.056322172738204 11.530984999387725 -0.9483051211833992 -0.23584729298475512 -1.5209605005387032
Ni 6.6218340921434 6.641085156954676 1.5770971463047636 -0.6149896213471407 0.24320244779824565 -0.07919100580887008
Ni 0.5553592689283926 4.907443269893812 12.756555683537792 1.5269979649820349 0.4129513064920307 -0.1915279022420895
Ni 5.518806804298442 6.957121941621017 7.402749223533865 0.6085826893795325 -1.1579713848974122 0.6295191824218835
Ni 6.20822982790685 2.200659139031657 11.586988347272694 0.8688523770727101 0.7305146857003548 -0.16676972146080313
Ni 6.438123144294703 2.735871774070804 0.7104055831431774 0.14841153066858956 1.6420774571573977 0.03584066384769311
Ni 9.005855494341757 5.201127531261644 10.402822133927168 -0.9885158890743297 0.24056423884445022 -0.9343584291953199
Ni 5.023050593800996 0.1639139162327149 7.050470336539071 -0.07007387399895028 0.048838618769257824 1.0086949351253662
Ni 4.17485675301932 2.250833029588406 1.9462037395709597 0.32195019542211 0.4461301072368446 -0.04679716285919682
Ni 5.697764629376765 4.260440490624075 2.221274662059062 -0.6265971236790822 0.3769386358428476 1.4699145897054813
Ni 1.1672862043718266 1.550059401989746 11.015210617778612 -0.7046864117833412 0.9836621605264543 2.4967825961954486
P 1.308622787445273 5.11304794540681 8.562902073385061 -2.1581973633198186 0.4823438381532402 0.3120064539458368
P 1.8005067627900215 1.032611333907049 9.237175665151991 1.633290712103703 -0.7441579875154022 -3.0990048905745917
P 7.1492655532264155 6.454924240419321 5.547331046468286 0.2809375004551743 0.7699572079666933 1.1829198273126338
P 8.523211663069915 3.3388026447187302 0.12435930942529394 -0.9419534679337584 0.4891737165908801 1.8524309767464227
P 2.0658191021385655 1.792753116571943 2.4881129556869745 0.7602914027421552 -0.4932473724396214 -0.8607662576304659
P 8.564934538044591 7.525863361607925 9.49670809710081 1.601776957766138 -0.23381612148733924 -0.29903369583525274
P 0.1720924072080679 5.9776391421550015 3.203052357287374 0.060255859467263966 0.13119336701809017 0.032293055705750834
P 5.008350781681042 1.139822697708266 9.232609731000377 1.188663157554314 -0.8698800470062761 0.28940517160655316
Ni 3.4782765175173007 4.820483145386439 0.7809215545293442 0.8948940525521104 -1.9749229593357729 0.272895089766672
Ni 7.973831418846491 6.449207646817118 12.918090285611514 0.40675726186617683 -1.1179529355229456 -0.8359291439821281
Ni 0.16892579974077931 1.6989477612022204 6.873867050655491 0.12127173702900404 -0.12745549724221275 -1.5419954668321314
Ni 5.2538339737192095 7.733183932792853 5.262134504333261 -0.4259585173849761 0.48114364719755204 0.25528174756028293
Ni 2.292565080475768 1.8115453857490134 4.648321918833242 0.07398683590011129 0.9294946733451153 0.7086713645730183
Ni 7.602317066091984 4.5290928621896365 4.345209407182479 0.833921626633796 -0.07642861257238451 -1.0956072208378937
Ni 1.2898396941808865 3.5868734441338193 1.5122977685208014 1.1576893348806192 0.36103122058397175 -1.1505223848185346
Ni 8.234363107686612 8.925180870023004 11.228033983800206 -0.4256399577032928 0.13872592794970945 -1.1278272572138641
Ni 6.65667503260499 8.658336153256213 8.719024722157691 0.45842049456842343 0.2150632663598683 -0.7565568754003874
Ni 3.582212080490288 5.85693001079545 5.86309438893664 0.030856580369540403 -1.0472177737909127 0.5553585399480694
Ni 5.553537633807823 5.936099785434007 3.9970798679034414 -0.17207365017221976 -0.8227992914683893 -1.4120022907697296
Ni 4.395776026802108 3.175581509893666 12.511124794201924 -0.14494516938654392 1.3550040190078148 2.39710452617682
Ni 7.799883642093695 1.1906297262402192 13.277997108820616 -0.22543381096091497 -0.52428804379551 -3.4866884236387694
Ni 0.31429519643889475 2.794882068542357 3.571393679435715 -1.0625176373727765 -0.9972365567767792 -0.6127779584078027
Ni 9.12901459438797 9.15734981275652 5.085195380045443 0.4968461455344733 1.3108746327887681 -1.4409243731207186
Ni 6.330618151287595 0.3383764616870901 4.3719214065972105 0.44048936401129946 -1.4227471879910594 -2.2094096245275754
Ni 2.420798460236296 8.411311407887114 10.894288605244789 0.4002444004483236 2.5034453529276046 1.614293345065594
Ni 3.551472772998498 2.440875357189143 8.458565523027778 0.34608796901057814 -0.31892246433937976 0.23555315878310398
Ni 3.3735059464900585 7.091035211333013 3.8221429277632977 -1.356838244003076 0.8106014638506168 0.9569208878768681
Ni 1.9465781168084717 8.033520730856669 8.529475141068092 -0.625015123903943 -0.17381737233620387 -0.39005177618603787
Ni 6.718786785563775 6.673430249166187 10.011810801901447 -0.0281522940644999 -0.28434498347482645 0.49312704481167324
Ni 7.920124801906358 3.527762214622741 7.188905496021799 0.516320195098685 1.2057424816341042 1.0116267640601804
Ni 7.3246264205325655 1.5886991703025604 9.573862841313936 -0.7527153901671101 0.6689910152642606 0.7789324148821101
Ni 6.118076485785404 4.677449018466432 6.0986942054227455 -1.458302973608482 -0.6240005665964996 0.8355388505222449
P 6.066260106858199 2.4470599223382377 3.5820432436969005 -1.0931551597529754 0.775927052396883 -0.5967772121041722
P 7.358228612781801 3.861490158944058 9.571002709330298 0.037657662451773856 -0.35953381010283886 0.16599401963704316
P 5.351823545272889 7.976400674398045 2.869736411445574 1.2147534268834628 -0.27511703711865526 0.6888355607940136
P 3.5309829599748657 5.18564776656354 2.9287467059171273 0.6042562940900368 -0.787352006404373 -0.3985592994364168
P 7.087695179115994 8.31273457792165 13.03557500125387 0.7456348291712449 2.037953039114065 0.12545363632083556
P 2.242776578251752 3.5115483769099067 12.478772361260265 0.5118014812927251 0.1589006031253715 -0.050138825637920104
P 5.536185982922158 5.2637898389814755 0.3065773362802844 -0.007255138900516537 -0.756246286138504 -0.9188212527916692
P 2.2222500615773835 8.93301709945524 4.853020014173049 -0.1540371043854831 -1.546189193198505 -0.1624212146841203
