# total energy = -340865.40631508414 ev
CRYSTAL
PRIMVEC
9.31159447842101 0.00000000000000 0.00000000000000

0.00000000000000 9.31159447842101 0.00000000000000

0.00000000000000 0.00000000000000 13.62845974956318

PRIMCOORD
 96 1
Ni 6.407727024832875 8.651420840413392 12.014795686961731 -0.6095381113142664 0.7644105671168513 -1.6662818223177434
Ni 0.7995623880608511 9.114784393457784 2.919611268239751 0.5690928588150265 0.11549061157085272 -1.7130941546855916
Ni 1.5242986670514453 5.522557563879677 10.086068409189927 -1.519376443881035 2.4570320557703877 1.0580565162776294
Ni 3.055581029790027 8.697317688469253 8.101600997081098 -0.6717906894965849 0.821112904904902 0.3564865386360828
Ni 6.7517904323524744 5.023884445441122 7.89435284386963 -0.8956710399274511 -0.8926461370581981 0.24627671584819522
Ni 2.728231933948308 4.80672875594817 11.6021803225772 0.9940751283296622 -0.23016129834357138 2.8849610666181738
Ni 1.4257354419203232 2.484705809540728 2.6410996219178915 -0.35050023914566086 -0.383305715711456 -0.3829092516039857
Ni 2.2713492505015784 2.651848926319532 5.622884404961658 -1.6704755486841165 0.9196231798676742 -0.2322850295547935
Ni 0.21253155178864264 5.153064192464651 8.433290227002516 -2.0449991473275686 -3.429346909604823 -1.5928323469783405
Ni 0.9765627585121923 1.1076979403281197 8.375519233959672 0.004911835479320573 0.016367642724746 0.4315570945186761
Ni 3.6972429895241437 7.053514020819526 12.908099756651305 -0.8467781708814901 -0.3393640200231833 -0.9779445413163868
Ni 6.217956734027749 8.796988993316068 0.7301183804668141 1.871375121949093 0.052779605694876844 0.4200372668045346
Ni 4.992960640938482 7.976386126889013 6.795640591992293 -0.5555554864502239 -0.565749139153774 -1.16934003174567
Ni 2.3194622579888255 0.3072267406685159 12.314689547158753 1.0064642460226345 1.2976370510525717 -0.14001379352319757
Ni 3.0476289283009406 0.7233572318822409 3.733353352023765 -0.4292107057736866 0.8912052908466135 0.5250323781607023
Ni 7.527921124643845 7.775497792549965 2.7327238470142743 0.24547401744124175 0.989609893469457 0.23361840365423636
Ni 9.185682872073595 8.570260984934615 12.386238906212606 0.9560760233780696 -0.18523564147547453 -1.0159112503681471
Ni 6.518665358721603 1.2214018177089543 5.766296923795571 0.5790970212155898 -1.7845654232527006 0.2433549142157099
Ni 5.23592806969109 2.8864359202475773 9.847052821036813 -0.20872549706729857 -0.7430246452419075 0.3449284014848382
Ni 8.474463303295598 6.643012388329634 10.755607419788243 0.679690403959636 0.23756710388933924 0.9879487037169502
Ni 7.605682248221549 2.4670789616263953 9.168001085753192 0.001021499285978886 1.0025687676229702 1.2695678036201812
Ni 4.243535600954722 4.615058899916142 0.25108807009761164 0.4442930540281058 0.08445199709749326 -0.5784509029911585
Ni 9.145587147235183 8.444042324882432 7.2808137610879005 -0.17148949553397563 -0.9081244351994553 0.1857390634744543
Ni 2.2965278013522683 7.824821307289648 10.550703926008802 -0.2293675987976824 -1.4212047832046037 0.09834469591918546
P 2.0044975824989617 0.746747025477599 1.0438595124722911 0.6411017450531604 2.3257980653223496 0.9712876981215013
P 1.2193905133510585 6.536832279102408 12.383745261272585 -0.1832918874855424 -0.46968346907675246 -0.5800380449726203
P 5.512128578320221 1.3231496080734104 1.6218003704381225 1.169202220616225 -0.9088358594441832 0.046271372262713856
P 4.9773916553532915 0.4129533752557903 7.882851162652629 0.12252437848918254 1.018339914414298 1.1502699024880965
P 0.9080219755603582 3.2927752701079367 12.15098427097687 -0.866422684585295 0.11855588075973776 0.09123071058222353
P 4.680267994445499 4.440438572954977 7.552565189984613 -0.9590772720982387 0.4699570344531132 0.6440379448633489
P 1.4487443913108762 3.3952866112008535 7.673299321023831 -1.60850707740112 -0.38465991574650527 -0.8992317606955158
P 7.622163770043192 4.611269081056589 10.240301931701202 0.25926310080553416 1.059849346511994 -2.12428965482878
Ni 8.606138557578 6.012934051841914 6.529776884139551 -0.60723003200638 -0.03433862538086989 -1.8047480688481627
Ni 3.862169946871563 6.481176880273054 8.519968133233556 -1.081283862236686 -1.3092360687440807 -0.2404112582063537
Ni 2.753345303639252 2.1914464602464854 10.42785699423437 -0.01363250318177007 -0.5514106110439149 0.9431150923420274
Ni 8.519931818015984 5.0521823803654 12.344427054554005 1.085882537350962 -0.6787591503946181 1.2713670616124493
Ni 7.363971884692624 2.9637035293300573 4.650044421830422 0.796325413547577 0.5177373871611858 -0.6945850616832813
Ni 7.942221887587539 3.1843790014493263 6.940606284747026 1.3158216923813983 -0.13646310005746176 -0.5053906926703748
Ni 5.064157090570276 1.6452842111354007 12.461495210937189 -0.3241610870304998 -1.0887817132756281 -0.4720910500769805
Ni 5.461073107050127 0.3561452010583458 3.7190842649958076 0.7577683792099853 -0.1823251526968989 -0.6207913156305825
Ni 2.689421209116327 2.808302332899893 13.289015660732213 -0.1654342904788312 -1.3033217601421747 -0.9205495483366855
Ni 0.21742386340733807 3.938860237110573 5.065221405792997 0.4027849074819902 -0.4903201714904975 0.12267350247253714
Ni 7.047601158471084 8.096840910100745 5.985414566196897 1.0114419017428837 -0.7336624873007171 -0.26150176032806577
Ni 7.27794206542135 3.1631020085891834 11.631208286490637 -0.8051406978463618 -1.819786451238524 0.31476267653473533
Ni 0.8344845911342342 6.8149602877411875 2.759994713092831 0.6402193424482071 -1.1575659219288774 -0.1570794907562327
Ni 3.061410087790224 2.005168017284927 7.973207148612228 1.1797401440330715 -0.3892989571804134 0.8682096012823888
Ni 7.675174676105684 7.09554655726184 13.084533982172275 0.16262973115050056 0.3643600278468886 1.5089285090748337
Ni 8.171994787288586 1.0553854038343413 2.2139842429680128 -1.13803247988164 0.6124581131745388 0.14811559669472554
Ni 0.5219465171057948 2.942603456760655 9.856087860937116 0.32736571001072656 1.1313272999473225 0.8094673502461737
Ni 0.41151938974136487 1.1475329405275472 4.687631603178017 -1.5337435112359843 1.866593384289734 -0.04595769767703698
Ni 8.753559717736328 3.4182676258086575 0.48272980676453503 0.2914106320723562 1.1931456188057 1.5048013742803374
Ni 2.847615883821347 4.155932122255279 9.017733371232785 2.5770439522503614 0.1476581974423328 -0.1177675805304875
Ni 1.6298362762754544 6.991619853842997 7.039289629443967 -1.1919904221553341 -0.05626293625778697 0.8987057129887167
Ni 4.8165897342584065 6.955788839170861 1.4465384746331658 0.5578496818010393 -0.9796676946550806 0.3945416936365915
Ni 1.8031343568531883 8.1400094610415 0.28370751591308957 -1.6886262514512143 -2.5350730071352143 1.167334057059235
Ni 7.687130763122061 6.882217933005439 8.714732232034699 -0.974413902455309 1.1567400835934722 -1.6739046289703234
P 2.858780485326516 5.795210355099742 1.5963154681366236 0.5428236407058522 0.941946783065539 0.9450411057201465
P 6.782388331056382 1.0516607661345352 10.674818165760597 -0.13309881157091916 0.2640687497242936 0.09096845805977236
P 3.2374830234543137 8.150680548051445 4.984758988723508 0.800362302621112 0.2931456124855919 -0.5152868687381641
P 6.5556696342691785 5.856434087290308 5.463867516484407 0.08695188070121153 0.054527698734235124 0.5576959298319943
P 6.449172930837468 5.953814739951741 2.5744025346274615 -1.1359992515016952 -1.1845164823757923 -0.31521879023554744
P 8.859209066091331 1.1380351143930414 6.773493896229246 -0.461816664734166 1.3633235946171036 -0.8816251033573462
P 4.841041980757635 7.266013913187721 11.012231232667192 -0.8465205463447293 0.33431900140010806 0.8050185704462007
P 8.661402869448873 8.56959055014865 0.9687996823863713 0.08132142188831157 -0.27437733073915327 -0.5684356848470017
Ni 5.594545499022682 7.811943372442568 9.136369600087587 2.091906096291752 -0.03232005228894434 -1.4883198316855464
Ni 4.079204585639271 1.5225294641440372 6.07164179126626 1.3088856273831975 -2.817865301410941 -1.6567949658732304
Ni 8.589787398075849 5.962549015357786 1.257389267164482 -0.9019111072998919 -0.7423052505773796 -0.09148370713329407
Ni 7.0034548901341305 2.0585327639289006 0.1283100441206244 -1.1162678345110388 -1.638549132289165 0.7142992522827569
Ni 5.033680242591613 7.080582825302868 4.205701662359514 0.5914365166175493 -0.31588522017495274 -0.14828708927558332
Ni 3.9934541141954827 9.057620516360009 0.5317283468649108 -0.6073398181113668 1.764854832197651 0.41078823740244097
Ni 8.808349138300478 8.937407834598764 9.879787730620984 -0.4767465465711208 -0.2820014229433143 0.49851299171393504
Ni 5.792286514505395 2.4035925120331982 7.609531661284299 -0.6191486378208368 0.05079265717183511 1.5419872393020155
Ni 3.811542808936947 2.456147149977464 1.67816717506814 -0.9320706616024076 -0.4102259371410677 0.8376517831001896
Ni 8.213450004887429 5.56769086120708 3.760623286942896 -0.298864260136924 -0.9473245024376846 0.46333850069533106
Ni 4.990018177155633 5.317181041112363 10.271592613017274 0.5145654171911073 -1.455734184440041 -0.21043990865524403
Ni 7.388926957281326 0.34436510317328367 8.237122870947973 -2.3835049331155145 -0.15445388020792752 -0.7369889805707888
Ni 0.026453308103448713 1.3602469995634803 13.307795284014636 1.3106414337320396 -0.19502048877638026 0.18289825159154954
Ni 2.145093344072397 4.840576401045159 3.472082122454883 -0.1762468077133029 -0.6211055044368916 0.3117154050679793
Ni 3.479463423216474 6.277532314036148 6.21099352384796 1.2510599746239808 -1.316710265633939 -1.9931862764213353
Ni 6.241300900811283 3.384736574916152 2.564140226605071 2.6883899455252216 -1.34378526747386 -1.426739339869588
Ni 1.39793102149127 4.625180602865366 0.6523004561641877 0.11192114905203951 0.6015779759269252 -0.6935741039202636
Ni 5.371476947181288 3.3534030602665323 5.632805908634516 -0.9110310673232891 2.6791925952966698 -1.1043186325689627
Ni 4.259830890891374 9.121116277547456 10.283231174669744 -0.8614969651489034 3.184791804433425 0.8074608613391062
Ni 9.122215045668899 7.620245581627791 4.751617154222988 0.4212310300023197 0.9064426766216583 0.39084958949698495
Ni 4.433371072919595 4.48938962392468 2.7515863434855183 -1.2750720212678623 2.837128777626243 0.48841344138608794
Ni 2.90484494207887 7.927369894759562 2.555050248298693 0.6735518951620658 -0.2144873392517403 0.7063252329383448
Ni 5.787593471003638 6.082938617409773 12.460936515282219 0.5496656033283501 -1.2911941236407054 1.0611073872888113
Ni 1.7811217480473336 0.029748681308352263 6.043908138953504 0.8504137107515483 -0.3470529040270087 0.7177740982052347
P 4.282411506946449 3.434777082413049 11.673824659892396 0.28395623267684 0.1760066666780388 0.558894835236102
P 1.3282244269393964 0.40516608898492046 10.50954574826652 0.2869510536391058 1.4927369869166356 -0.35614972412195434
P 3.8273073380013765 2.9238778407248796 4.0940305060033495 -0.6512827993512202 -0.5357952731041611 -0.2966258577247085
P 6.6385614462783655 4.166137629552748 0.01363217398129076 0.0831222225424762 0.7141760964413313 -0.1987655576411093
P 7.763876922926569 0.12073226872036866 4.307833090407051 -0.2930036875910889 -0.2278002543105625 -0.22636943540130694
P 0.48983548433634033 7.090732463034841 8.986115852958553 1.5485980597503135 2.33059034450467 -0.049222998691870065
P 1.1789502595254127 5.88616600772901 5.122515645210266 -0.10193344171170832 0.22476558124929677 0.1652928798049605
P 8.671031057902873 3.140931102681087 3.018622381054275 0.8001195904826865 0.5939258586983062 -0.8518298743727846
