# total energy = -340867.8668364417 ev
CRYSTAL
PRIMVEC
9.25197658625328 0.00000000000000 0.00000000000000

0.00000000000000 9.25197658625328 0.00000000000000

0.00000000000000 0.00000000000000 13.54120293810554

PRIMCOORD
 96 1
Ni 9.284821133032189 2.7115970625603834 2.7142801357790365 0.20789657340810003 -1.0979222421243156 1.9291480670935035
Ni 5.288892432562254 2.4939905725509997 -0.4303797474345455 0.28407296076036237 0.2762974305800016 1.7069155366787054
Ni 9.179700174720683 8.826607739145933 5.258455279890789 0.611570825473579 -2.0419827290987476 -0.5569281984280343
Ni 3.48860581470571 7.5449961823614995 0.7644427175054137 0.006615705544304735 -2.146237619854781 0.09382366812038034
Ni 3.673284519938589 0.3983438532038273 1.593731613915027 -0.7877829232942045 0.7865313102752906 0.43261330369733236
Ni 4.992375833994621 1.0066335597789529 6.787447112632702 -0.6639089727556631 -0.1831684745338007 -3.287114254053436
Ni 7.3515928631796905 8.4576111557682 3.448727945095232 0.7825661549799554 0.7277121832545531 0.4656751192483077
Ni 7.103963709051239 7.863985832129507 10.374105375515258 -0.4228521105455104 1.1768774777732958 0.9809840994736589
Ni -0.27976959569493004 5.054900691965855 12.59433458598579 -0.4862022926673821 0.7449200624924074 -0.9489741222259656
Ni 0.9963176058520625 1.7617798911805644 9.310064226031407 -0.03334977910503934 -0.04827760405946525 0.10095513695883905
Ni 5.799499770025175 1.0823887443111313 2.1449403255598 0.8693712256906576 -0.03558792440693871 0.2288178969417995
Ni 3.0994214183517674 8.210222553031768 10.691266834703935 1.049903548153192 -2.135044065131807 -0.5853298894991791
Ni 2.0722669744384263 3.172983884425943 10.82269856411615 1.195796940385618 -0.6594247117320643 2.6280219859601255
Ni 6.120423082905935 3.2438910332113133 8.76275614772796 -0.7329685465574861 0.5094944304261031 -0.32216591097734193
Ni 0.15472265534544757 3.3391308804968833 7.677604763199276 0.21667997602768488 1.708170235021413 -0.18682586878072988
Ni 4.210759597494505 1.7910161372872675 11.266727752652349 -1.4302098149166917 1.0921750552278933 -2.6142956375129685
Ni 0.7800258217198187 1.8709624672265144 12.835219049161141 -0.8600679460118608 0.22536002030018604 -0.767069344895937
Ni 8.164656568197744 6.878705834380386 0.9099281993974018 -1.677389759305447 -1.657484021520455 0.7516010740570088
Ni 6.961390749397983 4.824628245969105 6.791657687190663 1.6055127706594865 -0.3537110327734747 -0.3142785378094652
Ni 1.6607575585099665 7.864531698749853 7.787992871798297 -1.0392118727673008 0.15672056475491716 -0.4008915471140193
Ni 5.063625305914785 3.337622808308468 2.360150553625628 0.21090065034174646 -0.14711389490308857 0.31314596686691876
Ni 4.986408309077272 6.4049213638493265 10.361470876248388 -0.22125731098572216 1.496160667886204 -1.300313312333154
Ni 3.9060364956684386 5.366692303926579 3.157862453844679 0.5609622592880921 3.6744296051449163 -1.9146534730217541
Ni 1.9813385482559338 0.6539963214537123 11.383709744985623 -1.0285826751882285 1.0659112364353578 -0.18169883196680967
P 5.619169493801837 5.895350247767403 1.8461403391633264 0.677741250653065 -1.1101995168297718 -0.27217852331562153
P 9.093212697313893 9.298514058423937 8.781429412132121 0.9933801591451664 -3.082733407108078 -1.304129857865767
P 8.271341110557362 6.668833996822017 5.181297495703618 1.4133642041142627 0.5027103176247342 1.2357711667857105
P 3.197908709429569 6.978886237178925 8.903083652656502 0.291962133700452 -2.1056147041270963 1.0622373871281963
P 1.0718044830623756 3.026367810991474 5.052398957488877 -0.5524233685791454 -0.18038165581728288 1.5057416267064196
P 4.078114008750264 5.565905864423264 5.448492729979681 -0.1255783348241579 -0.9977363792313334 1.6787511584293475
P 3.084285184607918 2.059138419620258 2.8837754221873237 1.7515771412521384 -2.3030867397677626 0.5017425543948262
P 7.158624386898834 2.5931347539685405 3.2232665269388256 -2.718878601032382 0.298400433126628 -1.894720224432937
Ni 3.742729856418624 4.530535665274876 9.44957940741306 -0.7552129597779832 -1.2877087361952662 -0.25731009084422135
Ni 7.503686106770857 4.331090805362789 1.9561213607912407 -0.713221702947862 0.10744562977918913 -0.7234325820425928
Ni 2.4745336657274564 5.123097011602725 7.327429475851565 0.2370441415063337 0.12103031044215928 -0.04187041498154079
Ni 6.223073763460958 4.763259885074877 13.368119024280421 1.8871694086688726 0.7835933106928892 0.29751674497009406
Ni 5.403024816097789 4.255798219661412 11.22316574595336 -0.9371203082111731 -2.3823080845939355 -0.36009328215073466
Ni 7.306757784498335 9.274088840157575 6.785645752785557 -0.6317321309128023 -0.34335694323266025 -0.9159051075861387
Ni 5.100429668893414 8.150852619086605 2.8790356345669235 -0.8653443639194516 -1.3668840582748525 -0.3843758088471832
Ni 6.442456632980622 7.533116644386498 8.331997069252155 -0.272309392466531 -1.0006083014624898 -1.4414059407428272
Ni 5.647378770504159 0.6388582373145391 8.703432473665876 1.0004213822626642 -0.4736080009421392 3.695149354190772
Ni 2.2530413455393337 3.575962977914409 1.9426069985481837 -0.10262069758672003 2.095585087805236 -1.9276843380637834
Ni 5.796899964596066 7.498764055211121 12.625655302424086 -0.27012344055880577 -0.9768325391991305 0.25079954341921323
Ni 8.307081496225145 3.2418370944025514 10.132367880095906 1.0749080406173295 1.4535410334434644 -0.35231132421247063
Ni 4.950769695152266 5.5499462047605865 7.649128104372751 -0.8104361419173461 0.8073569887713903 0.06820648177290833
Ni 5.739010346909471 4.420816474585195 4.668952637032205 -0.11061759974926755 -0.3959424306388601 -0.5735825191552637
Ni 4.786685889866703 3.2858950070481594 6.578844646266053 0.9601743618171592 1.3549009177710472 -0.10733507234325386
Ni 3.702326474536355 1.126548428699515 4.772732058734384 2.0347275901982314 0.6492670544727721 -0.008613966921256133
Ni 1.0657814462853301 4.655280065989014 3.7150562691623716 0.7771796938570615 1.3270430150185146 0.7212936813227191
Ni 8.009510172323283 1.5353562674560897 4.769658552102534 0.17259584122427693 -1.6398382834142338 1.0222662460518976
Ni 2.669343285354905 2.4001107658279888 6.524408791450227 -0.9867721669103457 0.0955913015437644 0.5287735903706894
Ni 4.071424829656864 4.7217000061156025 0.5834509249540291 0.07254753235042345 -0.07867524251471611 1.032412333346964
Ni 2.0331496173057872 5.328583412245089 13.269986083907016 0.4149955906155692 -1.6099139850509758 -0.41513031642122056
Ni 8.862098321445083 5.95515502461352 9.738074542254582 1.0706605781948852 -0.9654458946287438 -1.5516628147185665
Ni 3.9006703492311323 7.580236961292016 4.872747776349156 -0.4156334813098842 0.8620888330966313 0.35522695519736885
Ni 2.9348287543523233 0.5442863827406479 8.67985658685287 0.33879580622453914 -0.7240396194989724 -0.1435786280563205
P 8.036942282989857 3.011166813411312 12.25641354166603 -0.2538920663016079 -0.2826308289971971 1.208245707671932
P 2.729823456493993 7.310116252009959 2.9893154950395364 0.5637591053069387 -0.05762793492611366 -0.735687745260862
P 6.867224131399874 5.336373576555799 8.958142165498586 -0.36768780666854095 0.5636742589026162 0.514004916701947
P 2.276578374050553 9.400193281434271 6.344039656925102 0.6574958701404677 -0.4809898952285071 -0.8488080568273253
P 5.154368692564957 9.08669005379958 10.685661062072274 0.4869790229324065 -0.4415913388262266 0.992973153514735
P 6.444353288186911 8.336724829302954 1.1467399424663722 0.06907191509699717 1.2679523795039453 -0.7334213178241885
P 3.158171469863655 3.203015800521626 12.788867571512416 -0.4715503470821621 -0.25083733863568414 0.20537894919256888
P 8.233158203062944 7.384150568891553 12.074758382391273 0.661017510140481 -0.6503371476084994 0.8011647439177492
Ni 0.5168968311665076 1.3456537389206982 6.709598205792312 -0.4541540059825856 -0.8648062320277945 -0.23112160537431162
Ni 6.105943739501825 7.0575557943451575 5.781809065537634 0.3187687123703349 -0.2989858733164528 0.07435450365217518
Ni 7.920432141463999 1.6688345340957742 8.29645097509331 -1.0156888499446959 0.4477198203214676 1.6457327945217977
Ni 8.254983615900194 0.6849173525021971 10.572660195276883 0.97649186803026 0.19334490084617026 1.2502590759892402
Ni 7.145662367659756 5.92696425186443 3.58441095776252 0.024411596075145054 0.8139773223013853 -0.5989269114573234
Ni 3.1677287617080294 3.7924499787532517 4.263014761421927 -0.22236339956570736 -3.3337561222816907 2.943702032102808
Ni 2.0666232687026387 9.139907423295073 4.006354752918555 -1.9450968771132757 -0.8677475740443055 -1.3563553908293866
Ni 1.880556766977353 5.9002260394440595 10.76957556478214 0.6944781037917717 -0.29039890297839016 -0.1049747996411934
Ni 8.27813206139354 3.8136647611338432 4.637970542938054 -1.1975594316026794 1.7266361550360845 1.4527416774706206
Ni 0.928722664695236 7.906470908750387 1.80542146487845 0.7815803940279186 -0.10045582872491732 1.698844329634797
Ni 7.767469212070924 1.7249385202954723 1.0850616403555067 0.4892408223833897 0.5644155079440151 -1.0227146464432257
Ni 8.640707772999736 7.216504752608814 7.387267559813499 -0.4019117608484175 0.4120763600862451 0.1099218592338236
Ni 7.169652743025161 5.586010409609931 11.165548136379277 -0.45072775390985603 0.27046719705146965 0.6799912230295063
Ni 4.320006937376767 7.965803834789084 7.435487936738665 -0.35586510300199997 0.4697621448334877 -0.9682527679499194
Ni 0.30939349962184526 5.234342778434052 6.417244071504237 -0.3500487534305391 0.36726845974293526 -1.5346925054128149
Ni 8.687661554326166 8.929249167724338 0.05594022621359426 -0.4349733192890767 2.2453952985935652 -0.34406888169802036
Ni 0.20822406052305228 3.5877314921700187 0.6896044038558855 0.18503406698762973 0.9234430678343967 -0.6681695478042299
Ni 6.555747086644096 0.49479478422843715 12.569892714161519 0.16566928930777275 -0.2991673931996396 0.7470612772051263
Ni 1.3932088987271707 1.2676318201175887 1.4439115809784215 0.11687232240972777 -0.3017842619971964 0.2587576219240253
Ni 1.6005641986459764 6.7429608334697715 4.853424097988884 -0.38279380907204397 0.02136920970439546 0.4049993986348058
Ni 3.9412587706457227 9.36096490058224 12.685276890133204 0.6123115602943455 -0.8476160934017531 0.8925211814445597
Ni 0.9228587619159865 7.22523861853436 13.188481721105626 -0.1222544126572475 -1.7913608489079793 -2.8255403014576954
Ni 0.5337280270264172 7.96757096232275 10.485116142140537 0.2632593664491208 0.5772648531028575 0.005058902580146126
Ni 6.469305869120386 2.0228151594256643 10.806421561655542 -0.6268051259248302 0.6891448645043163 0.35202130377587765
P 4.165332392309722 5.7263536428987205 12.207746294270308 -0.6361060916107819 0.9887406034906261 0.8248466609157213
P 7.17517617306494 2.6077436250452757 6.622000491191596 -0.8716014005727569 0.5693006039504582 -1.490060468525737
P 1.9186656586588435 -0.3169246085873061 13.531331293368753 1.2480134744881732 2.4939420414228595 -0.5916177793904198
P 9.274458919222218 0.32792243319079906 2.8109910473465574 -1.1833201480748459 0.31445697236885845 1.766669002588254
P 1.1534809326288227 4.165147352777401 9.36177814932679 -0.521962738096443 2.0607109016358702 -1.4600855194302016
P 5.646509084702251 9.06336582075053 4.94121240330789 0.38473422062786644 0.2555224028161793 0.11841421297555088
P 3.931433171479483 2.3251605032614067 8.401802307622555 0.849759364997001 2.0167661206238043 0.7694995516039844
P 0.14181059678009483 5.451209110314152 2.0762999110453606 -0.4018724229700499 0.3382959837699851 -1.7343957443768454
