# total energy = -340871.4964204839 ev
CRYSTAL
PRIMVEC
9.20655668302043 0.00000000000000 0.00000000000000
0.00000000000000 9.20655668302043 0.00000000000000
0.00000000000000 0.00000000000000 13.47472631861012
PRIMCOORD
 96 1
Ni 4.810039256310808 0.6314749694302344 8.08924170772296 -1.084952312227209 -1.6465277796192674 -0.7967905261094536
Ni 0.6511595085394415 5.32044155913824 4.621884854844616 -1.0777272552336796 0.12197853328804152 1.4731518656958564
Ni 2.225537803201476 6.54655238159088 5.539715963923708 0.6648669657935582 0.782103099300608 1.052265363517149
Ni 1.0414457060163278 6.486608490220013 12.096424098328471 0.009700000896583294 0.5269807601363248 0.488737657494726
Ni 4.631275542787831 0.49519122967078344 11.894734217044517 -1.2960918180526388 -0.8983470440977175 3.0337963150877427
Ni 6.536747398591345 7.2707033138081725 2.0899436345468754 -1.087067815908315 -0.19940216278384368 -0.18226961686861512
Ni 0.37475381548766995 8.903541402883773 3.1953021785735984 -0.988546485201949 0.4255535686370736 -0.8116234773572281
Ni 2.8678792716311015 6.04268673409647 10.264548536985037 -0.31773590023044634 2.7985329196309157 -1.0815000920125504
Ni 6.17960664693129 2.2933256809719698 8.094577828048342 0.4211258718830231 1.3268974905795858 -1.017298360523661
Ni 1.441986166464934 7.135348515630556 7.694001462028188 -0.39161115025335785 0.9677953686975269 1.234070639154836
Ni 7.990987492166496 2.4270601251515416 1.526187493711081 -1.4348956504281352 -0.17936864117173626 0.8998123157893343
Ni 6.1165877655868615 4.590297158439541 8.017745428870578 0.530726343221686 1.9813702576230134 -0.4270903169965742
Ni 2.15385555190159 0.11186979241844944 13.516902827436398 -0.5812320652807216 0.2524910721890232 -1.3050068611540815
Ni 6.114902965691166 5.225908633843194 3.795925055487644 -0.8362250779559921 2.624658983025163 -1.4553102095287453
Ni 8.923271054121335 4.897529165648442 1.167011172340982 -0.025680178374923517 0.8574881010998265 -1.24991840482037
Ni 7.242577282762559 8.355465869601788 8.783742923743072 -0.006235182276434424 1.0745812534055301 1.9679781525868236
Ni 2.4608666017471212 0.32185570204125896 7.379164838896644 -1.0503596618540039 -0.8018072625977546 0.8255457438652749
Ni 3.1821911210246427 5.062547489858455 12.22611778472542 -0.46559155839556593 -1.9913445952269062 0.06577884616802218
Ni 0.6321525720112351 2.6864732763044947 9.033362139764657 -1.0255832262402724 0.2829930974326223 -0.14749030440590083
Ni 6.08130823990215 7.705206762318079 4.798349691132865 3.2069737398471028 -1.6104631726862264 -1.2209940084765358
Ni 5.6136796000003875 3.992533838069773 12.361512171097306 -0.14028401646544872 -0.15809430517399223 -0.5335717830902811
Ni 3.070800990215842 0.5225678469923017 9.912521106975632 0.2563598111158101 0.583146508694615 -0.4610407058000899
Ni 0.28097582785080366 5.050477693884379 7.356837097328126 0.5232236070867375 -0.7380786140905418 0.3063276583935047
Ni 8.488712366270585 6.686031717218066 3.107218446321908 0.5728219868401554 -0.3763187428706616 -0.23554261726014272
P 4.238643514636503 8.55543228345146 0.4914377164605389 -0.5316390848439425 0.2104771896510827 0.3129179100165127
P 6.853894867481465 8.813077775697455 11.104441539413836 -1.0043171177726447 0.6479776462373873 -0.8187608597329578
P 4.1115654110284465 2.5870424627880846 11.23635860927969 -0.5179111937348888 0.6131114304878216 0.19727200381471832
P 9.21475064263333 2.156240050114622 3.451982823666212 -0.5712001349660163 -0.5717400666298863 0.9805999766613629
P 0.055298262806015484 8.753888821984768 7.553837158574555 -0.6907194080802879 -0.22732588577730528 -1.6898333843854383
P 7.757886680368163 5.935190976817061 5.096141294991791 -0.02246758497489679 -0.8802742457564066 0.1317898629515085
P 5.903096919787598 7.004063015561666 7.947326317164623 -1.0020072386925452 -1.5518273653208885 -0.7389836424033144
P 3.671887877592964 7.741167573206515 8.17301493007758 -0.9096128468195239 -0.20511566822885322 -0.26595953898910324
Ni 3.9866968810540877 3.9145358888002337 0.6071899138845318 0.27090042793414637 0.7405761837014149 1.9042818999794429
Ni 2.70260316383049 6.194972390242298 0.708651693832583 -1.196297277060804 -0.014605408618000653 0.5818195623530754
Ni 7.993758665765426 4.4722506870592245 12.18441392370073 0.7774203491129579 0.799304550780559 0.4275127492459734
Ni 6.921351309206904 1.1665351933540562 12.76358460259861 -0.0975013740822837 1.5138184901772833 0.07696674446404164
Ni 3.689177791276651 1.6239721748703864 1.127962482299454 1.7626591100979128 -0.34718505872949884 0.686756566777798
Ni 0.6762657889523351 0.6344496079346004 5.417473143950727 1.3551881099941627 0.937591848530953 -0.31418057877902017
Ni 7.9564721106967715 6.996357127514145 11.397476115370546 -0.2698514178443417 -0.5761536223165497 1.1156633681578205
Ni 5.711978007029527 2.772959670950158 3.2484737267571795 0.4760767741976058 -0.8139863211624496 -2.8738500443066766
Ni 6.561853679004238 4.539366486182802 1.5026610584462816 -0.8957980524236184 0.11314705103934063 -0.6002314892013598
Ni 4.164852961827797 3.6471406528955463 6.96189238210686 -0.422683189067814 -0.8949950969063488 0.628070108680183
Ni 7.131702719134955 9.151556836709567 6.413916279638392 -2.7438113597183196 -3.097733737171652 -0.22492833207940618
Ni 3.9484344309638835 7.101790616068767 4.127767109697537 1.874181738159953 -1.3891130448763818 -1.5874255741404726
Ni 5.034568763721754 6.272077303501551 0.19471499384691413 -0.028603779779621707 -1.4944714531092391 0.30598287345957625
Ni 4.408642586079143 4.414221759504231 9.883429308120954 2.365348573921462 -1.0426275833170688 -0.19411417491202698
Ni 7.918246486833795 6.823135761189028 7.19228370423687 0.07263520696822329 -0.8800675290622392 -0.6186624422130377
Ni 4.420334913224129 8.38952092323116 6.004041291243091 -1.7337545112484207 1.4966800307247838 2.03168597515843
Ni 3.0173845476211927 5.51379766520043 8.07510688105706 0.44972322390474156 -0.48436781056180456 -1.1032698795894742
Ni 2.4517244908376954 2.5704338343081212 12.80380620797736 1.268489225844022 0.12316329762476207 -0.6120868458780492
Ni 1.6277836893885154 3.069806682080678 4.4467678584729216 0.8255166903995526 -1.6628820526075747 0.7800032793487858
Ni 2.6778283194626513 9.063238337259296 2.451106730875941 0.5983435281500276 0.3041144527922698 -0.5318460586484259
Ni 3.436043511866123 1.6245706010628462 5.750811263641769 -0.15762147930263176 0.1153959949745174 -1.8627079331923986
Ni 8.230413208491289 4.108600899736568 3.3113462238483757 -0.7964863646054735 -0.22643268453907453 0.3952623738526999
Ni 6.014063548983273 3.6744196807149097 5.187621326049611 -0.29449981252064117 -1.5078990393690548 4.314817611960504
Ni 1.2601658760820094 1.733134318931875 11.069905903519135 -0.6256663843346967 -0.9098221346168525 0.013236296184615913
P 3.7127281635891487 2.0978796865145735 3.3216548055052577 -1.7408551268489436 -0.1983582949003616 0.49237319736478435
P 2.7418875417262796 2.3268375477497227 8.55484766709421 0.2917860131339039 0.06967278190578968 -0.6865825030937789
P 7.421239724160657 6.155844523812229 0.10800948314924289 0.10511518187379962 0.21468659974673993 -0.17429148375914502
P 1.8449295382401871 8.640924369961958 11.308246166796375 -0.6169421170878213 -0.24418898008123102 1.3206705358332675
P 7.008104693999972 9.113386452187434 3.2963763624800717 0.670251112923607 -0.8463421117853359 0.09562215478169983
P 0.7819782361782128 5.934205875238705 10.014187272484799 -1.0609736899244244 -0.6490009452955791 -0.8770413406414056
P 2.197319706587791 4.456792878180146 6.149636542557219 0.13870972999979336 -0.3490110561946441 0.29794174832265463
P 8.078670739197078 3.4025132319747553 7.907212428500516 -0.22871093905028997 1.2793981594470416 0.8380410481188084
Ni 6.248867573790916 8.043685823330193 13.220620178238152 1.6778926670837941 1.0954984631741713 -1.6680371144459532
Ni 7.401528486036709 1.5554477725553268 4.760513504622829 0.5039115370216871 -0.098607719772585 -1.5170521666232324
Ni 4.687610463890324 5.895354205512848 6.123144675344861 0.7526865938117038 0.11133725152411149 0.5280158862690584
Ni 5.579974395529686 1.349101214838354 10.156345716142846 1.2859138490783724 0.8201860222152584 -0.637044030044019
Ni 8.794452911276741 9.273948802902822 11.962444759737831 1.9332268651485673 -0.3008429811298496 0.1330926409233321
Ni 3.4317624629508328 7.398794138665008 12.157154229650663 0.13403649289384015 1.709453472609211 0.41763225690746786
Ni 2.099500040512619 6.811351368475971 2.902308111466839 -1.9188525987047662 -0.7880246069913655 -0.011976712745901954
Ni 0.11072173478460717 2.386376350621077 13.163730101760192 0.14726301888644316 0.005837689727699623 -0.6160383743266294
Ni 1.3637580532752178 4.455890635613053 2.7350056405129908 1.3322790666064732 0.5442673151309143 -2.6402478386023565
Ni 8.347980938917637 1.4532918182240222 7.072546909026775 1.9430399945842474 2.1170244886259346 0.8769017297397478
Ni 7.941170813283413 1.3619167419138027 9.398136968329137 -0.020813080090609316 -0.09097051494230139 1.27245283847746
Ni 4.824346245589003 8.084277532292587 10.105815529107215 0.9507936919332075 -1.184076052404264 -0.577757990689192
Ni 2.2198113248674756 3.818382609507142 10.271217766736081 -0.2015858006987238 -0.6077033720983728 0.09971406546288634
Ni 1.2565384927000218 2.54576026206516 6.766752045335458 0.9082169949132616 0.8718811365967049 0.3739754394494656
Ni 0.6701461906426723 7.703264178831787 0.9100478859543915 -0.7041657633931808 -0.5731713997597742 0.4053822358955212
Ni 8.95639624551319 7.758963847514591 5.308974792635029 0.5032353368902688 -0.5555616570978109 -0.2345817960087702
Ni 0.6028867692329051 8.962398920551404 9.553177226271643 0.03168498980810672 -0.20736461216403 0.596844832117314
Ni 5.94671758593952 0.5016882968095363 1.4222307368683127 0.24955950036452504 0.5198248658178337 0.5951155081310331
Ni 3.746230823810095 4.202701116861682 4.470159878008338 0.09297134742241407 0.4350221702491412 -0.7586723790814934
Ni 6.855819037854143 3.6195762218151635 10.193252961071048 -0.08717685222782405 0.032137503964493046 -0.7622094457004744
Ni 7.8885645476877855 5.823414170622364 9.438641215001866 0.4128896000161599 -0.815452621295331 -0.6271180291795587
Ni 1.4602703882837853 2.1502557881900235 1.8151803912294855 -0.14933841335823314 -0.43315966311910564 0.012962216587622836
Ni 4.854129456859891 0.06841944756745882 3.5328035032528007 -0.5780325845068174 1.4831992226295296 0.553788367247472
Ni 8.315352901593362 3.5459974198130197 5.752239200602547 0.573983097027792 0.7025112585088933 -0.44498468077849174
P 5.057410231160107 5.998246684388718 11.307869618622966 -0.17030447408693897 0.018255603776078235 -0.2680511314108094
P -0.25900253871935763 0.500644273267614 1.0409264562124088 0.8441031951524882 -0.30141967956892607 -1.2709065770362629
P 2.3328218096743214 8.479174373418456 4.496947275694204 -0.9579099912630148 0.952615575633295 0.8067476373221655
P 5.556433229773995 1.4975109105684037 6.0205615367777074 -0.08423191066688719 0.21129711444921676 0.7589428591340607
P 4.266088260478393 5.79396239539653 2.230013110465395 0.3255399696558974 -0.20831694877497028 1.184739654130192
P 8.32571948455813 2.474722469741769 11.252690120399762 0.6926659902836974 -0.3035102435493676 0.19291578372855162
P 1.6361340364125325 4.189195098025703 0.4356515061437485 -0.004645212081495226 0.39477746379648143 0.38432670077680264
P 5.806538551994995 2.576298410994228 0.6639695116808056 0.06277039835900157 0.3226490212613476 0.26457859948117657
