# total energy = -340864.43315871677 ev
CRYSTAL
PRIMVEC
9.33384531878924 0.00000000000000 0.00000000000000

0.00000000000000 9.33384531878924 0.00000000000000

0.00000000000000 0.00000000000000 13.66102610359204

PRIMCOORD
 96 1
Ni 3.657196518095173 3.648796057511678 4.987913479126641 -0.19471272772797435 0.35669222688898566 -1.0124999106937531
Ni 2.300540801550891 7.563728040153576 6.606266877459529 1.099838742420738 -1.9375386051500436 -0.6005428497941915
Ni 3.7438706036266574 3.548391885848725 8.917343723351141 -0.7047092946014766 -0.5963550369650891 -0.1530487723302848
Ni 9.051692289462979 1.5004436001984411 2.0099194005888017 1.1932194094664288 0.9458880271014741 -1.986903785846733
Ni 2.546664962802206 4.541541005254987 7.042012768693062 -0.528108960203497 0.3148151270392256 -1.3075717936677802
Ni 3.0503472455434832 4.598262781883765 12.882784875328067 -0.7523994015885881 1.4483324926593315 -2.2909231078220356
Ni 5.167888680205478 4.375501234899658 6.74228993538101 0.96722201269256 -1.2903870543583777 -0.5675226861144291
Ni 6.061940366261775 9.086386191672814 6.715227384919026 -0.6258401909083996 -0.3835700251164362 -0.9432487897064141
Ni 4.503188235768785 9.074112185375819 11.195415159610201 -2.7629408814589187 -0.392439302581608 -1.9421244247485132
Ni 6.352157611731347 8.948375958131082 12.169761248077073 2.4729299579475668 -0.453420984471303 1.8123749892658014
Ni 4.205849266493427 1.3588305024508982 4.506212401578843 0.0063899626867438344 1.8206405717087033 0.29098537160947946
Ni 4.578960390231911 4.025780726963663 11.160033353017027 0.7525924914360006 1.0451907160585547 -1.4240507372938314
Ni 7.939247295925994 1.342925630412814 10.741842557633982 -1.2317167942106786 -0.868906370239097 0.27749427910158014
Ni 7.967295500429775 4.734322241801108 5.523959002958087 -0.821330934452979 -0.40984541387319734 -0.3380447869911275
Ni 7.112035274579041 3.8443494460503524 11.469073230500687 -0.12744572705019985 -0.6201030313143063 0.2626811253481476
Ni 2.401374330088111 6.989612562342238 4.352225425391811 -1.116971802556599 -0.1403495795960615 -0.8464557545450649
Ni 1.8244773664391276 1.8572018273343875 3.402100664940685 -0.5376703786396869 0.28256552297690046 0.9022116692594463
Ni 8.960976649006325 5.680727464982765 7.236600104264635 -0.09128830329303633 2.03132602071585 0.32800462914630607
Ni 5.485948785586791 1.9328899771916788 7.135973787088474 -2.4733914709650175 0.07279255848169398 1.2796979500756478
Ni 0.3761203553963936 6.664916093099964 9.836280373809277 0.08145769035585972 1.2787978068588814 -0.4445041415976473
Ni 7.549484592542004 5.15143311130692 9.487062960123783 -0.8353650439485418 1.3418155453419987 -0.4598489994848338
Ni 0.8916659552505841 6.601389943398556 12.222902561728263 -0.2742104661439858 -0.9107387328938509 -0.345611800705108
Ni 5.530937918933953 5.079581171782759 1.8073534942319274 -1.422556412136492 -0.5099520867888121 -0.3404875921046652
Ni 7.0856391606566795 6.336066062791407 12.213886067368644 -0.36385454896537983 0.7931927814558661 -0.4256774958094475
P 8.549204738893577 3.502964061782202 7.7155010282846 -0.20303590288168905 0.4590732976610739 -0.0343854194584053
P 3.2361000967347464 2.441967222396578 6.742372073217827 0.4402402241149709 -0.5198318077963692 1.0561932378166456
P 5.005293098689383 1.8475599653535537 1.1873154985641496 0.22688057070977055 -0.892089750334096 -0.11704664320406294
P 1.8023281520339784 3.712686227171705 10.596775937202114 0.49487282385818643 -1.013769521434796 -0.4869646247547033
P 0.19150810007546692 0.9438010804007736 5.4784807761280625 -1.3141887847636657 -1.1646516251310652 -0.6631021605836515
P 6.003370488304627 0.24306919375245092 4.039906568127064 0.7866755491626387 -0.6722915403924035 0.7544477994771845
P 5.43403393918079 1.9338046940107707 11.016825101143132 0.142292048034413 -0.834621223803982 0.11235129461092264
P 1.5728182350477982 1.4570692220523276 13.072331001165033 1.5180016750206955 -2.195542636737496 0.6487530909508311
Ni 7.909696342362277 8.306067408071948 4.33715686587404 -2.9409684352217287 -0.39961345173254403 1.598033431563306
Ni 8.460430538216219 8.03490987428182 11.066400885968882 -0.05037511001844227 1.1354716611329994 1.0577042751445334
Ni 5.0577119727303925 6.376714958170431 10.690503609470206 0.32543969663260724 0.4543895190321594 -0.3013967967507906
Ni 6.284104547159943 6.293793078366241 5.241175231720399 -0.836642625109385 0.5487256080125841 -0.20439781622622216
Ni 9.364553443127617 6.5475336572132585 3.8131744034404926 0.6934365499011348 -0.873223252446896 0.3545741521047184
Ni 7.32032936166935 2.3660923956374313 6.077845238299859 1.2528276080473648 1.2452294839851328 -1.8260504298703648
Ni 0.9090045058949181 5.241775397959864 0.5607634124061264 -0.8757809858717434 -1.2697873758301552 0.3511584415549501
Ni 4.677077769847134 9.316306797843078 2.337073471244002 -0.6892525937267743 0.4985754695207542 -0.8100689883859146
Ni 7.6920964117144734 8.659988146299693 8.364564482037373 2.5859301989963983 -3.0894565847645246 0.7095743360032618
Ni 6.4771004621431985 2.7494614151328722 9.272530130973465 -0.6121130711302942 1.620915735478118 -0.25023261517214973
Ni -0.025289119894357528 8.202760410585144 6.300929736324175 0.4754216571121103 0.4963265255855775 -0.3093358490922092
Ni 1.4496208136682953 2.246553841534295 8.506597602814091 -0.35832847694082803 0.8460155816838527 0.2230588829708352
Ni 1.9688159469537598 8.391668101417766 12.958835178374958 -0.24997859017981466 2.1544193843346253 0.9298841954740502
Ni 0.4545750569391827 9.131608671147296 3.4688488579681187 1.2166349601768918 -0.5362344175241087 -0.769288978255075
Ni 8.876505350916734 8.392844165899454 -0.17271533636567896 -0.607452175319515 0.39668290834931036 0.3658381550543119
Ni 2.801777616877861 5.6516618713638715 10.131085204141948 0.1651884930166123 -0.6725653628790803 1.014662722673027
Ni 1.6544147088488144 0.005293223552111225 7.533481715130446 -0.3527653810307538 2.4669518859872612 2.6225352518139413
Ni 4.93084635022943 2.82853775075884 13.032468015542822 1.1370878565801839 0.04749444603653755 0.42448861770766894
Ni 6.800704871509617 2.5240397222973256 2.1923764710778073 -0.3834360706417332 1.6425690520818355 -0.24842975763545602
Ni 0.0778722696090001 2.839150332629322 12.979040152847283 -0.6659365447086532 3.1108005976579394 0.6397362321642015
Ni 6.003883849784731 0.3841082600267882 9.376518499152041 -1.9591623540674068 0.6839185831083705 -0.12956611582731234
Ni 9.004164350250582 3.5840751756383944 3.8658928939089803 0.9390982578731504 -0.9588846964714581 -0.6030517322589743
Ni 2.2245259671153526 3.202526255936044 0.660621554131152 -1.016162961367637 -2.568313000135267 1.7075634546753498
Ni 4.268255354783704 8.496076492625518 4.876535505788116 0.6643231774749462 -2.4897192615907637 0.4819368325228087
P 6.417475859690568 3.8157412108410047 4.1390450703954365 0.24378994487059952 -0.33651266661731727 0.4593257799915122
P 8.278551232738456 7.8757678154500494 2.260298861817912 0.9990106179580667 0.4258901260408859 -0.06609714873938939
P 8.868384905686023 3.6784963525968797 1.7688299153805278 0.16677820610123537 0.513717210258199 -1.3855510385567362
P 3.257362595856082 5.004621061842704 1.3367904940333348 0.7011771130785021 0.34895886280047 0.09688199533072991
P 4.180302532474509 8.744692790516602 7.843805929698869 -0.6266524023970498 0.23857883298330526 0.3522730147753675
P 3.0974831632619835 7.066019418271673 11.866349679184356 1.54165685254579 -0.832733519862966 -1.2078960376419972
P 5.408235191344367 7.943251515470793 0.4130721147341702 0.13764555040133714 0.21557697277149326 0.16563432230477926
P 8.745850187308106 5.071768743440108 12.394402631462864 0.046470632757713515 -0.6762242997879063 0.19383315333649845
Ni 2.6091737233885026 8.004229525461875 9.568797574832173 0.09228229177518946 0.8841473555585676 -0.09725351973753574
Ni 0.7787450973182237 2.7927331209829647 6.243307243643945 0.41333568641464297 0.9329306956098579 -0.44848215240878886
Ni 7.796868822880844 6.379701788600118 0.9321944440279112 -0.16127964488050936 0.028058705909429098 -1.4301532506471433
Ni 3.1637907988010388 2.1107743969697355 11.600246422511963 -0.46460991120858686 0.5392654910409487 -0.8239449750370584
Ni 2.299028718645862 0.5743973599331391 1.3863345437857708 -1.0339729929658645 0.8192876787707051 -0.7526480272642844
Ni 7.024110453805125 0.2335104029929427 1.3707199543300717 -0.758579819367687 -1.8047131018451692 0.8978837313080537
Ni 7.276133605155072 4.141268392296535 0.17343777597585955 0.10346221965140892 -0.44809443005206695 0.6535160595571131
Ni 8.885605849882188 3.3670632772314355 9.837263227697546 -0.5934185800445845 -1.878037107350301 1.7548884650135583
Ni 1.2288193741536715 7.352456456478672 1.397072199180496 -0.42553171426020264 0.9252253565458002 0.7305499098136644
Ni 0.8000972013524499 1.6724570314131435 11.074433593055721 1.4728155654023602 -0.5607853673905955 -1.3078584716702637
Ni 5.9470687347050255 7.349310950682408 3.0449336153896747 0.1336312870356215 0.34705393246827326 -0.7512123232590223
Ni 7.394496094776519 5.460206040820924 3.0013818941867987 0.9835423471191385 -0.8268099552896793 1.4055999867878115
Ni 7.782308024536119 1.4850800911757376 13.356753795601012 -1.3076679529260125 -0.4221607409054407 -0.9821328683661215
Ni 3.385180270556507 1.2102823577994255 9.233350382812043 0.99293098742289 -1.8173639578399603 -0.25901653201236685
Ni 4.344279523064334 6.436554239060195 7.015332905879881 -0.23282418988771514 1.610587871189549 0.5851360283208181
Ni 7.978449445315638 1.3953818398341948 8.017942810672176 0.98059817688915 1.3758998886202174 0.42985682399811775
Ni 2.164920032352908 0.15429405969058338 5.246994884135742 -0.11152879870962729 0.4571223445822901 -0.6882534630382985
Ni 3.776445723000433 0.5295127656510151 13.258489874617831 1.5480956661925984 0.2010471545864344 0.9705248518135479
Ni 2.199249914604125 4.577625650383645 3.180778396869884 -1.1625592613784106 0.4244549362562561 0.39170936639411896
Ni 7.853543930284157 1.3668576092306823 3.8880234406239436 -0.4606357570521873 -0.379922658171836 1.7400138618945709
Ni 4.980838424546319 5.795599096539514 13.243326109880114 0.29590106374354197 0.9619936744140851 0.2427010826817949
Ni 3.7099047413340585 2.791333044219049 2.5467704352517546 1.2364825910304382 0.8511145934733149 0.07340525236502841
Ni 3.6499067850777176 7.113640695934997 1.8796067890950785 0.4566952843472006 -0.4328089646479062 -0.29339012439623025
Ni 0.8760737670231078 4.777509943045366 8.846388766340395 0.7578632529166367 -3.693416944880697 0.21086311223559168
P 4.132046553344876 5.914568286091992 4.845360463178256 0.7112607225667492 -0.8645925733550915 0.4799462844553412
P 7.4326435196706795 7.338558361135534 6.705992478584237 0.30491046633100394 -1.0470599080568097 -0.6025650224305429
P 6.663450679420399 7.763369652842885 10.021154910177312 -1.1083634920622976 -0.8108894274046807 1.239090975187563
P 2.6049548254065695 8.757592164434815 3.049345723965028 0.2297013279880173 -0.5559046422595266 1.4737884708385907
P 0.5126735757191444 9.173106946429762 9.827537361110878 0.2763437104369047 0.2882803139734906 -1.1165452565421417
P 5.426473524655645 4.825672583724071 8.809585415139594 0.6056940549778278 0.8714401924045444 0.8692467842976515
P 0.90949266599327 4.867068186710516 5.269617324487095 0.31741039857022757 0.7956762099993522 -0.6403715517553552
P 1.9516416719830587 6.299552060788482 8.222243878831797 1.040230543839802 2.4563154893193375 -0.586855582115086
