# total energy = -340871.69723396614 ev
CRYSTAL
PRIMVEC
9.18386668686124 0.00000000000000 0.00000000000000

0.00000000000000 9.18386668686124 0.00000000000000

0.00000000000000 0.00000000000000 13.44151721569286

PRIMCOORD
 96 1
Ni 3.9879931122355687 1.6416069971121794 5.762459436026068 0.4608365602090837 0.5339129684797836 -0.6279042725262799
Ni 1.474497357788585 8.345315425691096 7.651449496535031 -0.2483855346610819 -0.45294995837215535 -0.49691839353330547
Ni 5.703227169056325 6.68020691357402 0.029019182146334047 0.4570485539215613 -0.18762008254725107 2.1502449412419615
Ni 6.764294397507129 1.314679708661898 8.697320180680013 -0.1867137686828978 -0.3689553605270549 -1.39970264746677
Ni 5.742506567132112 5.515316071551375 7.500460298511981 -1.6956168238364344 -0.6219238865731289 1.212596271331144
Ni 4.451815118412686 8.521113002957101 4.862132835309998 0.07137408086761257 0.4987011964653411 -0.9641300040307977
Ni 8.266866835940483 3.1322679603750183 13.162565785823125 -1.1465903967539801 0.7394562111643588 -0.18336362126374228
Ni 2.544261708048547 0.7851746875121304 3.8326204546143017 -0.07077835626514262 -0.3203136882599516 0.002333533229183078
Ni 4.859725743835679 4.761403266445132 2.902171689355615 1.4829297710182268 -0.5607827962874342 -0.538456364876092
Ni 5.5462197831541395 3.7984748380499402 9.468446307229662 -1.459268422845545 -0.7136757597661451 0.3981931743462497
Ni 7.682433107778492 5.355149435488312 13.446759623914172 -0.02313941423094079 2.1718676617180597 0.7916856007827204
Ni 3.503975783082381 4.014736532202062 6.402960670676879 0.7005261097580645 1.2244269454174848 1.1434459375877275
Ni 0.011906883237142252 5.2493604744326685 2.4246482723790432 -0.10671003716474524 0.19050074652915577 -0.15830179319910803
Ni 3.5965399760227252 6.714729068674999 3.247510793859751 -0.38893128942834954 0.3514895996421237 0.21232992658910527
Ni 0.926991957815216 3.363839160393948 11.521302265327273 0.6268619473046946 0.45183384248984115 0.06448352439536637
Ni 7.996732579452012 8.220176057400082 0.5906016130690985 -0.9398546764232008 0.3931075322932262 -0.08231412481888403
Ni 7.088843064470006 0.6586797804892978 11.01832116972875 -1.6050749117911196 -1.0271526276099214 -1.0362306786517896
Ni 7.757869389236176 3.7105301300832036 8.920919784362775 -0.24762680211818644 -1.2432795593476136 -1.402970005364132
Ni 3.082592425141927 3.1659360158685494 3.930043831450344 0.6209635795423887 1.2456529446757967 -1.7775586529175644
Ni 5.796627093870622 3.1844047718962347 7.020827347343684 0.4768293360929143 -0.5385399257288337 -0.8084962445821561
Ni 1.464404288233923 8.006788913539689 2.8572368661371885 0.25355679444937623 0.1949523545426062 -1.8416678246926474
Ni 1.4267045152385744 4.638045568302984 9.605523783904758 -0.736435422060164 0.2697848262724644 0.28879376327479944
Ni 0.65694311128749 7.80801330167335 9.911506345852436 0.6346349063818941 0.8361417742135664 -0.01839418623647155
Ni 1.6925315382228265 5.767872407086594 6.620552188733927 -0.9818341061787801 -0.009880749448821695 -0.609163501583667
P 0.9997006308491191 9.238786269880729 0.9997024676224684 -0.18541639002771293 -0.5876608516252009 0.874962603735506
P 7.485852440064624 6.549970499238568 4.8690951246906975 -0.018545109992039028 0.20573144743598118 0.6093239384209312
P 4.947560245401455 3.729072357044862 4.846769144629385 0.2224158500701976 -0.14568127622162005 0.5823381538607066
P 1.8139330727479197 5.370385470421146 3.857486692217762 -0.2587681634469866 -0.4185699382303888 -0.5456582819411699
P 0.46330679125262525 4.82717812008525 0.20445399667584419 2.889470267342437 -1.5042493584316092 -0.6601929573566566
P 4.696050870675363 3.026387160651908 11.603806450633243 -0.028595552249505593 0.6037405307958827 0.258047226120562
P 8.744235045569035 0.2962733780230286 9.027444373144833 -1.429562668250996 -0.25757208625635636 -0.4159705529343288
P 6.940395042375778 5.459358771463516 2.0282174803894693 -0.8813625937245788 -0.7156984466231288 0.23288126837789572
Ni 1.0217051755742967 3.1615828630305973 2.5095981213996694 1.2061695418691936 -0.16962338885951433 0.8341766800673955
Ni 3.445603126040132 7.6667286956415746 1.2534940332351237 -0.07990937203213336 0.729781407078756 -1.2332995653167662
Ni 3.651679911970124 9.064219330758783 7.183873125631848 0.4139224121560484 -1.1173734088703917 -0.10065740321276213
Ni 2.6308012844030335 3.8142802727210716 13.304884495250581 0.48723330503505763 0.5223067516994231 -1.2019184799023237
Ni 1.7824232259398711 2.7693031788105475 5.685855885104875 -2.680760454004422 -0.6681227537266945 0.5160553714730726
Ni 7.080467377996984 8.841106472013598 4.760716313212476 -0.5786923295780034 -0.33918095747809973 0.06683711222920746
Ni 6.122994166449352 2.1706069055908768 12.831339529348696 0.5666855349251144 -0.0642086734674249 0.26935262383105224
Ni 3.4536665610437653 4.783784349706925 11.180950000466614 -0.147062729950179 1.0713794586387806 -0.05089575840860267
Ni 7.8846802212750955 7.270371374585975 10.874980295932382 -1.2385124769762734 -0.016569474322906945 2.0141083712859826
Ni 1.509598096494607 1.1696021656637212 8.970317966820115 -0.6949200764251968 1.7391157755603337 -0.46667219305425434
Ni 4.680254619870978 7.350408773283773 8.641202162924086 -0.06594236832907999 -0.7981105304724577 0.25546069634030844
Ni 6.027206436280904 7.669263442863675 6.555898685223586 0.37703993730740226 0.5726183554697816 0.2108363727627143
Ni 8.707775094584497 7.478551266000969 6.658081141807786 -0.1311468300508709 1.095037721487669 -2.5203668112732918
Ni 9.087941258565602 1.2356433514394944 11.793224620671333 1.3545893000678992 0.4522850710946469 -0.48125754706759694
Ni 8.021979029138787 3.103807157326886 6.381212355833934 -0.9925363230876325 -0.5670462606986427 -0.1524923856061825
Ni 3.1343894335935145 2.5010975343388915 10.307277736209594 -0.05342263859551444 0.5674013300452163 -0.21621074970075022
Ni 0.8250510369264548 6.850778870661135 0.722154993896033 0.3808873360779505 0.025866840464432873 0.3841711490355448
Ni 6.86893537521943 0.2510556917088029 2.513845659770035 -0.4701614371544354 0.6881331354103504 -0.09167808253228728
Ni 5.349749321841232 2.1842173961095384 1.8938024066842523 -1.1844432059356957 0.41546301717029094 0.28199782339888857
Ni 2.892624141485709 0.6873049747521968 0.051797926838261496 -0.6556845279633419 1.0559469261337942 1.5641658322815835
Ni 0.549679221232321 3.852595364788451 7.579267977452391 0.8930685693075975 -0.07960495341783709 0.036616365671453065
Ni 0.979027746802218 2.2591118294291643 0.3002380532975942 1.5556580519208885 -1.926664638550017 1.3975699173944833
Ni 0.6250879510897642 8.458736180013275 12.481510432392081 -1.1892884498431389 -0.5368373412154303 -0.29054597007921573
Ni 6.363087994809253 4.560901087630407 11.844006811847406 -1.2278855933900465 -0.5961236376805733 -1.7408504988632534
P 6.503151146563712 8.159580904605122 12.338506606505318 0.5232446901326602 1.8916163886966326 -0.3394010439087058
P 1.7114411198543542 0.6140011871531054 5.9072109517547355 1.8746746186359715 -0.8338082409843833 -0.1445888144883897
P 2.135598005552322 1.0907494857762523 11.444685856992633 -1.363388386416768 -0.8172297678004119 0.7425081106168051
P 6.080151428075833 0.765354984686001 6.335793542837956 -1.1273379762822713 0.48985788714209827 0.820578886778303
P 3.0739779581334896 2.6784012657513623 1.7024886865496367 0.18779131801779272 0.34878865577119283 -0.5155228960083702
P 6.266078810363489 5.7621324903698845 9.795868606097592 0.536170911276025 1.0189891179625226 -0.3365913423740526
P 2.491739174123968 3.087854780787807 8.27431587025876 -1.0025973068680605 1.4578028940436119 -0.5522109954580232
P 0.30727748715896674 6.37015957220424 8.315957358861807 0.07290285880731315 -1.676346919863229 -0.27001468289508335
Ni 6.959322991740799 4.315379594023187 4.4532018822914425 -0.8215271096241851 1.0433989142654547 -0.18590412829740888
Ni 0.8944296398779916 6.164367486143395 11.62141467834676 0.7907980559714445 -0.8199908754853168 1.3662330549544148
Ni 4.5969569484780894 0.5372185508303506 12.050225947711972 0.36496552264137144 -0.26003314620233925 -3.8101938793631414
Ni 5.342365492976857 0.15313730445511164 0.630067443639844 0.6737645253935042 -1.2200568413742472 1.0089404754772688
Ni 2.9391128749576825 8.842456500425369 9.748837106100886 1.4705072289841579 0.20635622550417365 -0.42949301290079583
Ni 8.34015409257943 7.462837669997305 2.8355555935214958 0.1933014492027445 -0.08548352368580116 0.7948843102256762
Ni 9.020476573444085 1.0410372150761744 6.725274902860275 -0.5301943819776159 -0.7197733880234507 1.3862475504031286
Ni 6.048209939530688 7.357232386276597 2.6105444295197593 -2.0222736807055948 -1.3396589040103124 0.262370021865632
Ni 7.482472777101826 7.374617446028166 8.587045819105263 -0.7782099348937888 -0.04499584798439993 0.3635012793910191
Ni 4.235314643725149 1.9615178113679552 8.243602264697653 0.6415005231534758 -1.3069398165107362 0.5683053299167244
Ni -0.018949072258538844 4.624150377915172 4.938252396453638 1.880880233226051 0.36002977590265095 -0.29476103660182784
Ni 3.080002574719348 5.529036768470997 8.378124789643808 1.9710454786582374 -0.32518027232363356 0.8267163671346084
Ni 2.125293707062485 7.251893434691543 4.89162314982044 -0.1043767610458783 1.0224824758277617 1.825069039793702
Ni 2.7803421866401234 5.0738292293023175 1.765624096886743 -0.8436285695089148 0.3768417052536671 0.5792420314338863
Ni 7.808591885278394 3.2049674495421745 2.5040473923379425 -0.6022824581931175 0.8771534407392377 0.6711533130229022
Ni 2.700782349013156 8.06014717933822 11.929938416223258 1.5827533654757837 -1.0163570796563142 1.2006247007915647
Ni 0.11969517208354988 8.79049418237234 4.63697381105364 1.6459186852803591 0.4083544311499677 0.8415320919912023
Ni 8.419557804471703 4.913965660841898 10.612212418961468 -0.4564749408062784 0.8602260688562798 0.7805020733620752
Ni 5.158633054841672 4.325096125041233 0.5418260967771876 -0.4731261762097142 -0.01983014735204972 -0.21322878425429084
Ni 5.999480342572511 1.8771456275656984 4.204425626309179 0.46043881055003283 0.038862481393152425 1.130634387645356
Ni 5.058225839699614 6.141444554743544 4.8575758006302685 1.398126818339218 -0.8642863549685825 1.2228233483757909
Ni -0.08438963314907555 1.0621233731266786 2.779047261428834 0.5769730328940516 -0.2839271792111175 -0.8194159768184534
Ni 7.838898645542621 5.330628511274529 6.902649350046695 1.037235208656904 0.3234221519819462 -0.1159148435924649
Ni 4.919182097154043 7.008787298038715 11.159591081573732 -0.0007728736102825399 -0.14788831117526788 -0.3525494083652057
P 5.092187778929042 -0.0906805818705892 9.659504715868717 1.3573442371052171 2.3191823597780448 0.3280879328887317
P 3.7393950232681923 6.161805187321057 13.050383016738405 -1.4077957088875495 -1.1058607802451021 0.08547735303821408
P 7.411417200082336 1.7304241724198561 1.1256031784667873 -0.08375959901615898 -0.9532280124063132 -0.7827438182084004
P 2.5856166600090957 6.765791367786847 10.22826893058743 0.6377389992285145 -1.8012089453466527 -0.729755438936827
P 8.420613949147578 1.9655678966032655 4.668440493687978 -0.30669455481462016 -0.19743166932103418 -1.0349950064724758
P 7.803614229501664 2.7912709880687383 11.012715337466544 -0.4804651330732887 0.503681423288752 -0.5783532010710298
P 3.819065067296121 6.670343440688027 6.611156174665342 0.15137446995165543 0.5581196476329744 -0.009797959927028288
P 4.486217883245956 9.277634026219419 2.7165308437104576 0.27233227528466647 -0.558315051473232 0.1712354705416406
