# total energy = -381173.30770461704 ev
CRYSTAL
PRIMVEC
9.23103811839371 0.00000000000000 0.00000000000000

0.00000000000000 9.23103811839371 0.00000000000000

0.00000000000000 0.00000000000000 13.51055737389764

PRIMCOORD
 96 1
Ni 1.1875453626015076 9.09450184725076 5.867365071051973 0.5957487708396579 -0.11176225487667205 0.06902229280598435
Ni 4.649507748535546 2.9650371411979446 13.011842421495194 -0.4308538978040644 0.9365389817864064 -0.21239600394035033
Ni 5.715821887346016 8.700825764024051 9.331701679993632 -0.7371144504050596 0.5543444968612583 -0.0921287969164607
Ni 7.668075679862496 0.5951176435566248 11.33450648353002 0.055995798639329374 -0.27850600819554616 -0.34768976628005926
Ni 0.06654747699931228 4.878437494215721 9.475845263532765 0.8330631352882426 0.05466473853273166 0.8958728715256119
Ni 5.938668378897028 3.7463983639035234 8.143556299913525 -0.5594620205934816 -1.1722443498766586 0.35047632788626093
Ni 7.62696986705952 5.381085982593819 3.434680975837943 0.8816361591009396 -1.258531600410678 -0.37200931686203026
Ni 1.78141496980265 1.6620576467524621 2.82332778241429 0.3815054292779236 2.097952045375516 -0.43678466146620254
Ni 5.393160180470823 0.7284322962627973 13.34643155274109 0.4377513962548461 -0.9351932663917893 0.18521867219461005
Ni 7.6345300872898445 4.906869091663097 7.169755625264617 0.15093018332538521 0.3020290310181508 0.32594157596969026
Ni 0.9720283153275143 8.085706307042434 9.807380767364503 -0.05803545477717747 -0.4042434943053877 -0.9008885795726485
Ni 3.4471927249224152 5.356614500505185 12.56826334612546 0.9089376751293702 -0.525953604423391 0.6196122077208167
Ni 2.8151527750443566 9.286978223346619 12.798226968076449 1.3963625273499436 -0.7252107569889381 0.2968436301624694
Ni 2.462480963201169 1.905655512024806 6.562172387814182 -0.0883814140588865 0.01139564343145134 -2.1418518320822595
Ni 6.2194950209567965 3.7974921599656106 2.5156120493790466 0.6606159038266881 -0.23895215716232396 -0.3272554096851074
Ni 1.0448150510004246 5.1266970337448585 12.221231698581088 -0.24402005860353457 -0.7471990883345713 0.8911291861930396
Ni 8.611838556429015 4.847393512976914 0.6203497631873581 1.2835031827543508 0.8740601465258948 0.5047959965091693
Ni 4.250366890734536 5.276876793118679 5.014470687651846 -1.922169064672509 0.43609663426024253 1.3753036497971154
Ni 0.4422765758892719 1.2231679387539185 9.323014350007355 2.1352050161897034 -0.6371733565330316 0.02726114970879821
Ni -0.14908218893989447 2.5929432251244706 12.576653436683877 0.34807183220982635 -0.3643104055558758 -0.683779486427345
Ni 3.677119422720874 0.007379291882932715 6.909244651926337 0.04968425459900476 -0.633003027205426 -0.44276581875030196
Ni 1.2086290536956008 3.320579805900267 0.9117542518428894 1.027164197574147 0.5215739872984566 -0.536418765620773
Ni 0.03524041117373522 6.948553181604962 5.031696727910465 1.0394293880947454 -1.1308735002393557 -0.33955788120154423
Ni 8.716693918573414 4.256837848465254 5.339723546930767 0.4184418972929568 0.787943874352101 -0.9044708976072681
P 7.659906211115441 7.496664532784466 3.268717064361762 -0.39964276230858264 -0.9274305917272351 0.07351195314622179
Ni 2.266561409881974 2.7629697164826617 8.462121272065621 -1.5751490707659646 2.094501367822754 2.9893239437069807
P 7.499895396130759 1.468058149364779 0.19603401819203442 0.8260998165965321 -3.8936336331460364 0.4254468678558802
Ni 8.006430151562542 7.963773524353344 9.258041688113408 0.023337389174359808 -0.05918705188311743 0.462194616898875
P 1.9431519889180666 8.662332335012506 7.9462613219126235 -0.5393436525770517 -0.2711433971828879 0.05676687247739901
P 2.7845426525977652 1.9827439114673517 0.42613518261119315 -0.2827074478714034 -1.1337731903846537 -1.123498290821207
P 4.009067553957126 8.062481015101655 3.110373374863766 1.2560057486650305 0.3017351539268158 2.8430680259288135
Ni 3.5885937670324517 0.3674599349310766 1.7210827507777917 0.2159022173213959 0.7524014584711172 -0.5820545611820169
Ni 0.3790753502129057 4.270370550367155 2.818978117246367 0.8073963266497579 -0.7359132310081068 1.753483871356548
Ni 3.2582149122786843 7.247934210310583 1.4021928460834412 -1.5946112932556344 -1.2012433082121698 -0.800290568842912
Ni 8.713730755332957 2.212089053863478 2.0655749397319796 -1.1931816142499578 0.14020714048092628 0.38253644164559925
Ni 4.657594137939411 1.125438938047628 11.19121307860287 1.0455781813049605 -1.0581187369741325 0.1999410660064492
Ni 8.49493668952201 9.150663483247461 4.32597278545304 0.565147243903717 0.2578093990781431 1.6915475388630676
Ni 0.009712898322769331 3.146639354373996 7.550226708443121 -0.01338799127113178 -0.9061709110175103 -0.866492618591282
Ni 6.5186360426709795 2.6998109535817036 11.59389588573523 -0.029119800184091785 0.9744552972162057 0.05387412431063625
Ni 3.3309924169134617 0.7496489143059953 4.4203979976117935 -0.0788991856000641 -1.1224893899407182 0.13873826924488364
Ni 0.8640731705783005 0.8610712369776878 0.5979248022526465 -0.18903161818279704 -0.5586716634817024 -0.09199175711796416
Ni 7.073735289716608 3.3664396033413597 0.05374587331748705 -2.1767437588634384 3.0056522485533588 2.712680185531154
Ni 4.297140560950723 1.8697098495377655 8.483724670606561 2.1271698045900527 -0.8784629035792807 -1.5948573478281696
Ni 3.031002139691111 5.119635289573675 2.686831190863926 -0.8166417565074259 -0.30625052529866614 0.27735646797213526
Ni 1.9076309541851106 4.663021988361183 6.671405108240901 0.13913756156583135 -0.8228720536878538 0.541941495211215
Ni 8.389758241042982 8.157597632016515 7.018315829185742 -0.26165525518679456 0.6270352396577652 -1.3136668508219247
Ni 6.971686163164418 6.627793068585015 5.1615737420161825 -1.4990675571203538 0.7432581014089522 1.8739004594741084
Ni 2.5682317360443974 2.353563944278573 11.793217076606163 -1.2664236015642447 0.41116773222904673 -0.009408180687777344
Ni 5.927517284833251 8.972845995705638 6.764681979255999 1.4011131546610516 -0.2776973962513217 0.37531498419649556
Ni 3.9948979104240996 2.8440551554364784 1.7972415846804184 0.41622200682350247 1.3065518370436981 1.94897178668765
Ni 2.2550133811785105 6.832528263320521 11.267250985905964 0.750747724917778 2.2814586199750257 -0.061974641930583586
Ni 4.739242670219296 7.634622397671168 5.2090498942342345 -1.4333691864812796 -0.5362346746344249 -0.18647722719205947
Ni 6.165151899472153 4.12404936493262 5.19840281485248 1.0251579657773957 0.5787337243389001 -0.7320730313264102
Ni 0.8751476470255789 7.512985008202311 0.1335251203755881 -0.27598452732527307 -0.00890038781342338 -1.0264743705959742
Ni 3.764075801926811 4.783505498063507 8.357671152495227 0.5253609651447145 -1.6888139419819883 -1.355820601371839
Ni 5.965586086090712 1.5418418371559741 1.9758381718406042 1.0656983490936032 -0.6003207064810564 -0.07032558499844017
P 8.753904233284576 7.807168962439467 11.665960754226198 0.7145627903567886 0.18768256035407033 0.4041139107060589
Ni 4.632956497164396 7.5227514465462475 13.165632439882545 1.219456488786087 0.01085828287074259 -1.7221256687602404
P 6.847528700285452 6.642193488071348 8.012638947810302 -0.8941576886067182 1.0523355546334523 0.05545663830640772
Ni 2.650895682518831 4.713663463554789 10.45715815701371 -1.3431646031707256 -0.6568543799017267 -1.0393944210917518
P 1.6073360527043947 5.024010965561541 4.6304327313390345 -0.3658808353667892 0.8787364689556414 -1.3345449798225146
P 1.9368748829881264 5.440109240411522 0.8243963224781986 -0.5448643252849649 0.5612337677819238 -0.7210697382373711
P 5.545721547682768 5.249866775543671 11.68376834988715 0.4371122200089504 -0.29014796330984866 0.508944214349588
Ni 2.2660906269372285 7.352632644806734 4.120841579181659 0.2842619368427169 -0.7265289615797295 -0.4412784355714981
Ni 4.635310411888123 6.328615122718302 9.88563412381934 -0.41186681517860035 0.6382249377259976 1.7427721413659985
Ni 2.7122913171365264 0.7644979622455569 9.799802085057914 -0.14454613417591233 -0.7431030638883267 -0.3606545539708434
Ni 6.304457495926164 2.188614523893128 6.3752807897883415 -0.1502467841051154 -1.1935842490050155 0.4928046284752481
Ni 8.03800953301302 4.7178728169431015 11.802620735151503 -1.1310095115965875 0.31651796866294524 -0.504371507377241
Ni 2.6439631728815 6.964716729374557 6.377860864946311 -0.7701001613024608 0.2061623643258127 0.09489093304263012
Ni 6.019172262448512 0.02809004903648268 4.2789424923767765 0.27447528976959823 0.28144452199857983 -0.8662614764170823
Ni 0.5802501335407986 6.510383494580735 2.2923224679976864 -0.23407477446536462 0.45724909996814156 0.5179345907736564
Ni 4.653403246627362 6.91484143034593 7.668430151726775 0.9338105271116499 0.5848604060619282 -0.9084355386819709
Ni 0.9631203635298784 8.90152699509576 2.7592883784755147 0.5771566096597673 -1.373003798019345 -0.3901317374943539
Ni 7.437290495517737 2.0336161626142646 4.250461970427299 0.8766358776728709 1.0507761805661324 -0.17551892840834288
Ni 5.124647743279496 2.268472234775353 4.005150824477607 0.4550459216692357 -0.4916239779035856 0.5076401508261839
Ni 0.9829486334379839 0.29309284552992254 11.492620320178524 -1.2991946253476785 0.7238426729968179 1.3323253464633764
Ni 0.8065121092007483 2.4714719943419947 4.868164271878324 -0.05849491091209926 -1.268581785557828 0.05649896352799302
Ni 4.2832201554472675 3.143399259989571 10.395428358815627 0.9010482450789643 2.324506085983803 -0.45659501132391034
Ni 7.93523115444838 9.226311840741374 2.1586764210225655 -0.8309885121474011 0.5421520685601243 -2.2784488866144246
Ni 6.8579320802605155 5.1929112702675955 9.760121544542558 -0.03183925599778388 -0.12351502453722599 -0.6077882185026952
Ni 5.243469666118012 5.843579455096566 3.0327551138324282 0.6946444541663068 1.7107570219119828 0.5422150605875758
Ni 4.9873360510620515 5.1174106093838 0.8881071014594658 0.20572219146460052 -0.14307546316765685 -0.9406977411497863
Ni 3.1794926190867274 3.2563502425759663 4.227724077299904 -1.9768320034330273 0.046323565656887965 0.5720743100408535
Ni 2.2967376735363487 6.496620016725527 8.66637368350681 1.6598851747627799 0.19143919918302513 1.4159869864490904
Ni 7.146226632169286 6.465483725105397 1.3296738105163666 0.04348892442157026 -0.6343914229125203 0.1397217162040755
Ni 0.3550921900414678 6.274659704835213 7.79276761984932 -1.4195947584050066 0.5914599136563169 -1.8109518836660294
Ni 6.798318036002347 7.213557824306028 11.040989933349827 -1.0712940980138261 -0.43256008186189376 1.8260208621840102
Ni 5.722486696877511 8.186887716010192 1.785988026093374 -0.6714245644064178 0.6321111115187759 0.3383571760252237
P 6.212479431976275 1.9983074417583506 9.746961776581204 -1.2105123922189218 -1.2491419316656616 -2.6569672082395663
Ni 7.358226653914886 8.303494189696965 13.408782599805473 0.32706926181623025 0.640165092171504 -0.9038990842641981
P 0.8245966360056688 3.1856681835972127 10.703563180982075 0.9448912104058436 0.6445187411545094 -0.15992133108040202
Ni 7.696156497860847 1.0000075919064098 8.424319247810182 -1.952448689492657 -0.565928859264748 -2.0392956691848876
P 8.48145014281077 1.0310331110689528 6.17712178661826 -0.44571950206198724 1.4908870781920904 0.733204316717376
P 3.92158500557765 8.439375071003907 10.770994991434458 -0.1942527573724203 -1.891135592405472 0.6429601384181378
P 4.101017924792619 3.2916589634318805 6.284098441325455 1.1593993755931904 0.5161412463186595 0.7425158239262889
Ni 8.20672521695643 2.846861391028687 9.690541671516797 -1.6852843315621748 1.6017088235323642 0.8632396588716231
