# total energy = -381162.047161992 ev
CRYSTAL
PRIMVEC
9.29473238596316 0.00000000000000 0.00000000000000

0.00000000000000 9.29473238596316 0.00000000000000

0.00000000000000 0.00000000000000 13.60378037281419

PRIMCOORD
 96 1
Ni 7.772562081932442 6.395593928764747 2.3298920180785037 0.184426772420934 -0.31605517009391376 -0.05583561891238126
Ni 3.589672183294272 7.734388615362124 2.611395076415152 0.9898297227897469 2.125299327040217 -1.9321989381046851
Ni 7.331211001673136 4.668985821378487 0.8998342115491472 2.4655958861799987 -0.5246477411277739 1.6911973546125
Ni 4.834413471249078 2.965094040336969 5.090738958062551 0.5803578902058845 -1.4753959245350268 -0.5930467985274624
Ni 8.341725029444838 3.543886330768003 2.825436965926048 0.05767909987902324 0.07380634445818902 0.12557036440435793
Ni 7.598034888898388 0.05271786405978289 8.549010577867357 0.5852064765474373 -0.08025389985574564 1.095961518853519
Ni 1.2429381098406973 3.769079110915473 7.4371867537536795 -0.47267494760490847 -0.19356113062203437 -0.7073022521396335
Ni 4.235888463620871 5.265410219451082 12.659079964893202 -2.0702558650118283 -0.7459140509745605 -0.34391332995676255
Ni 3.2805200840502153 8.68503527079893 4.811425738713964 0.8428376981765032 0.7142352318140409 0.5767416336095358
Ni 5.871315244721565 3.239744092366752 2.8369457037656796 1.5844574926510842 -1.901818526040615 0.41489146093753704
Ni 7.221719052270082 6.226401912212641 5.944049315321202 0.08506443387051156 -0.6574220794797387 1.6951632812387838
Ni 6.386894059100802 4.920203852657412 12.637177857119575 0.35525780843530425 0.8209100448654766 -1.6047347548428812
Ni 8.39468641549735 8.741184750115046 1.9966405362867192 0.09907154678288098 -3.01535173522931 -1.793759945267775
Ni 5.915669708435604 8.013472254816802 2.251126595529152 1.3326518765648596 2.622015888975362 -0.2828781691213128
Ni 7.028881236118539 7.681194860995937 4.157451145130427 1.2158327759905707 1.0734003457235513 1.1059592534961793
Ni 3.3519222194758744 7.363789039250191 13.023484601762595 0.42300431985265863 -0.24751650179256723 1.0894183184183626
Ni 3.9820493177637055 5.076894453933871 5.821765025513782 0.9314003750082605 0.757831885458069 1.0478806041858921
Ni 4.761394052360249 0.780735226585567 2.718470395356 -1.4838458550745928 0.3667300707409619 -0.5725592200970719
Ni 7.203287597629482 2.840916413509736 12.859858271059604 -0.31585770937112695 -0.9101550924762389 -0.6805722923439569
Ni 0.6213965560064825 5.862066985837352 3.2771507435019465 -1.7154454285265877 -1.5167498048914654 -1.234068582272307
Ni 7.215370749940516 0.9610288716917472 3.0315885569778387 -0.48997487233593684 1.3084590813687402 0.18246476359855673
Ni 9.21586674128771 9.243750938928555 5.316574933702269 -0.9449842843402823 -2.822532367869307 0.9842298601044662
Ni 8.125074108508013 1.4483609938608075 0.8559007992194854 0.9947888665672351 0.21629713876696943 -0.17787868688977107
Ni 1.2189484051370232 8.665079480020632 10.068702137713212 0.5331917740430431 -1.4742674673575384 -1.1280563425055348
P 2.8377283202461325 6.987677686737918 5.992070551025011 -1.3376583286405155 -0.7772516847455776 1.4047597502747033
Ni 0.503336722141651 3.329233777328773 0.7721004200494519 -0.09083270381285646 0.49559196141239814 0.16713224700654442
P 0.6457403900201955 5.640155246278955 0.9447008150265227 -0.4625167761249841 0.6578787074011831 2.7108683291333957
Ni 2.0772333032548005 1.3723672605569561 7.512728763055749 -0.4401481786217968 -0.08812121841896436 0.9484005091106829
P 7.050063931593035 1.0093150072731452 10.383452454370294 0.011901636533592405 0.6561519545180635 -0.6078941479529402
P 8.695529023844434 4.3125793018657435 5.232313535797908 2.071843521213922 1.521815649450147 -2.2040468175537655
P 5.372253170078255 5.8575032721568 3.0020963706063712 0.4378429275273879 -0.7546776560998035 3.543690552055426
Ni 2.8267977147709207 6.928498124611496 10.630416286562482 0.7352462868480691 -0.30607671872496317 0.29235731225634165
Ni 5.491839199027297 8.341362534875508 9.506253704992732 0.5990212709433426 0.49529705587979866 -1.2491010511253973
Ni 6.920569717748949 1.090467317140553 6.633529787234083 1.0991975092923134 0.09468035969372082 0.01926681864941198
Ni 3.701143910729826 3.8345976806389133 8.619328018004786 -0.5191448090316736 0.4360081883114943 -0.7598908248696268
Ni 1.3631004122076484 3.1111607623122652 3.1613011970367797 0.6106483136593096 -0.4232519170870905 -0.38886701184931743
Ni 4.344683308082904 1.2621782062128808 8.817385755954694 0.8921488857068054 0.5096785214124513 0.16388340105194357
Ni 4.921384283690874 6.394590097649676 1.247236923643661 -1.1841346735563414 -1.1642744442973048 -5.878959790093004
Ni 3.890291718060229 4.087618890031948 3.422901444570647 -1.6202012259095968 1.1459226812629941 -1.0670823739253237
Ni 7.3187839442578655 7.506611899566603 0.02615909528013205 0.46267335630750644 -0.7568538378155159 -0.010743354559433111
Ni 2.1924136289765874 -0.03661009255592102 12.29258029530773 -0.43576316218022376 1.5824769718859457 -0.6963552662098266
Ni 7.180868702726243 6.437634004074594 9.411517143507957 0.3832545507585464 0.24301064350241372 0.22691116683738988
Ni 6.451947892196895 4.869036349986461 4.47743997305097 -0.6991577686556282 -0.2389197612624918 -1.0807719555972741
Ni 1.245531340221296 8.31323667418844 7.5183474288803795 -0.7691138861297916 -0.41434175908165416 -0.4131405396847014
Ni 4.493008650067109 0.7829585266107971 6.66518578734248 0.29267895726181853 0.44769539484143545 -1.792557440319242
Ni 5.923718946821261 7.017411536155605 11.443677500222842 0.01470850985476822 -0.069221553300984 0.7021896135034166
Ni 0.4661326961759801 6.2595841074052485 5.769418021282623 0.34197343262157237 0.8599116229396545 -0.3219262841627101
Ni 5.221650618620048 3.8805229541533866 0.8931048251851564 -1.9759282606718356 -0.17068396891354476 -1.7539849793626825
Ni 2.8760412078046547 4.915324118070264 1.17328245466061 -1.0729509168909586 0.6735148712765433 0.058314419470176994
Ni 2.7201127745970455 1.507001461499506 5.259344476990944 -0.06781053188607032 0.8430624125927996 -1.6822038928646383
Ni 4.578473715836301 8.944785866555955 11.444411784094049 -0.7755115621260193 1.8944016647512534 0.22183323809385022
Ni 1.2608955331214018 4.206043077412619 9.702868900451353 0.4486634151816596 0.17362633937132033 1.1997227578025855
Ni 1.879850362887801 4.495666943575537 5.024977795819635 -1.421446981122397 -1.583187110579093 0.2873482890775245
Ni 3.1675426099420556 2.56167476360176 1.4573462118139429 0.1152610120585499 0.26730525438372027 1.3525285608841286
Ni 0.3703960214691551 6.490372316545981 10.20548806924038 0.20266309292330256 -2.2252265369551747 -1.2379118672777971
Ni 8.281188436366563 7.724973051292065 7.107186569406817 0.06469641173712085 1.3229835002371602 0.4377727364110848
P 3.0571397767494006 4.7016939852111985 10.831642598837645 -0.03868121862028177 -0.29004846161750697 -0.10269268847523606
Ni 5.60550448334393 7.9545622399342415 7.088386113884105 2.6049141962980684 -0.3335291585089611 -0.5634508300379005
P 3.2452093951043577 -0.19266958149244218 9.792640215809547 -0.6441119926343939 -0.3600256621375928 -0.12513430530820385
Ni 6.376902221612833 3.337115710528585 9.77645250960578 1.8593207618877203 -4.4097088021134505 -1.5293417826238629
P 3.105137775621843 3.226935950917057 6.431595216338843 0.06994763283373115 -0.2667149290978891 1.4430735582532372
P 4.7479724585624545 2.43033089798083 12.646876910532315 -0.21201625200342838 0.6461776169141711 0.13392953500233062
P 0.06366241163381482 9.022071567683831 13.383698243726569 -0.43584055238537844 0.6100875560598331 -0.0016447346922745867
Ni 9.08089792997347 5.6645353297496 7.9356697665593146 -0.4643689988423744 -0.26898701296151734 0.8318686007595093
Ni 8.44467348713484 8.155133273564845 11.061737420930376 -1.9668746351099997 1.4442349255511902 0.5830017555866347
Ni 1.2463306872203335 1.1248671222968096 1.187680924849088 0.9851701125305484 -0.48287682783857483 -1.272550283287273
Ni 1.5068062721160203 7.997940756730851 3.519392851560284 -2.4835558130925293 1.3624568757414341 0.1137700293353202
Ni 1.0758002291814681 7.3625435450889 12.226370197482796 -1.0656402421621585 -1.0912044637845077 1.0623273757388414
Ni 0.6855534474117949 1.849121977087589 12.254612242326697 -1.0254896380852017 0.3274608408276941 2.2439940473706645
Ni 0.4684954171894144 2.0012302752184024 5.342721945830091 -0.6454888183772626 2.862376239339122 0.4456716795431873
Ni 3.723860237074568 0.8098602710214304 0.15536981978153755 -1.2297105624139273 -1.6301105146035086 -0.32774366217543555
Ni 4.374928367790675 6.323141488561283 8.775703527847904 2.1483886047595124 -0.22728397679577628 -0.02481165972704114
Ni 2.548532011780375 3.1667804418732057 12.694313507558922 0.8255110339725976 0.2989285377159562 -0.00842653350079839
Ni 2.7007425519692045 6.2391078116043195 3.8232878500757868 2.0654203912963975 -2.158182965142115 1.631452887564016
Ni 6.85942896705512 0.2577438630001385 12.353742423886414 0.7744083017595115 0.5921466553106963 0.24623840641109204
Ni 8.585525864151299 3.93208083559131 11.25126538282195 -0.4414231886794785 0.07853151784800023 -0.014511820462929847
Ni 1.5252098425589782 7.799600458911516 1.0784733942619704 -0.36007888397303145 -0.5745695656588814 -0.20637756566041235
Ni 8.548151744580018 3.1460624830260575 9.06747726564893 0.776832852040604 -0.9641109778674041 -0.26099011079896983
Ni 4.8593419439399925 7.087177798653001 4.92931640844644 1.415772299335123 -0.591408234482775 -0.9270032743818294
Ni 7.878178127863419 3.5761855263686493 6.920012033796131 -0.7495192518273156 -0.27716594922788396 1.5799454637133434
Ni 2.227910212573384 6.085642482521653 8.358597757437312 -1.4321869932477207 -0.049596065760572655 -1.0087628122488241
Ni 5.804448938778818 0.6682513027756503 4.715805248163976 -0.4967731262046928 -0.8274187925182717 0.6253568235140778
Ni 5.301566729058712 4.835036218329722 10.44001740823126 -2.7059714060524107 3.444083187373733 1.059835205444607
Ni 5.77848875077519 1.3988944272459474 0.6040265598227449 1.4504227995294567 0.14727638862288184 1.5569526023625961
Ni 3.943457588228775 2.609050015393557 10.562560091603483 0.14299293075617953 0.2768759287912909 2.1629505617340876
Ni 5.476428532464455 2.9104038340307237 7.233361634258389 0.464897874762651 1.1294881898560547 1.4723576519293353
Ni 3.54761351851933 8.344476270278735 7.703086744563765 -1.5691560864073233 -0.45804948438224985 0.6448380721671411
Ni 0.36064584702740604 0.655037910986908 3.2120160462326948 0.004636213220430725 2.4894431251112414 1.435646926771863
P 5.294251774544263 8.32465990048864 13.295927154812478 0.008157338999811758 -0.3695294878629701 2.3221455561714266
Ni 7.27761757380743 2.7679062893534545 4.813956694386498 -0.18745964570998683 -2.1974395966498927 -0.39408635126672775
P 2.5365696909924518 0.7167986203416172 3.148540458723074 0.36173107486447376 0.6623519126811883 -0.8860075486957579
Ni 0.8347915321321105 4.9473537664270495 12.671132444586831 0.6410256403995864 0.24288028857213653 -2.0751602442919808
P 9.07608325851415 1.4911539425069587 7.4637827014635185 0.1785780269496408 -0.06647278691125326 0.14064911311435133
P 6.204057375169777 5.387143331618467 7.850687097409308 -0.24541925294390635 -0.8260507085261515 -0.8130003031000966
P 7.883178693973678 6.005707782617894 11.63754424326733 1.3035181924236972 0.7023567352089001 -0.8188925002148155
Ni 0.5533516779767813 1.3600517399322494 10.193544337917551 -1.3615981272855648 1.8570569055542083 -1.8696319140057414
