# total energy = -340859.70140736754 ev
CRYSTAL
PRIMVEC
9.33142337799338 0.00000000000000 0.00000000000000
0.00000000000000 9.33142337799338 0.00000000000000
0.00000000000000 0.00000000000000 13.65748134842188
PRIMCOORD
 96 1
Ni 0.44659819986728205 5.390679418121547 9.56697017124656 1.2441028265798573 0.255963604118656 1.0617313940260555
Ni 8.792151277878459 4.956338976266151 7.054266950736515 0.21889806672492623 -0.45058171525029495 -0.8153068397460862
Ni 2.950792095216671 6.882279482772849 12.791692737588022 -0.2608124475705251 1.6524462019862316 -0.6464645520269705
Ni 8.043603141309127 8.60718379971798 10.296635239063722 0.9371426768086762 0.40829169623283235 -0.1349554051636837
Ni 0.1856953291995527 2.196449144605483 7.152682675785205 -0.7648126876512763 0.298320471818312 -0.38563462095494877
Ni 6.614607597441735 3.886015360461232 0.4230195587707277 0.6210278571214207 0.5926711603555987 -1.0435449529250158
Ni 8.602378116575379 5.725070982034411 2.072591293171739 -0.08139701232125336 0.36624696045695637 1.070632553170427
Ni 9.117360720990701 8.174252402822843 0.6034780930583814 0.3857822022764066 -0.459771352169363 -2.1374966404373574
Ni 2.903323143476062 1.2375240634731395 13.35759038847126 0.6102323091678136 -0.18162684107829366 -1.4349820394943547
Ni 4.612737297281934 8.682208445284031 0.3878494233057471 -0.919172979704133 0.05170874122820127 -0.3610286494808105
Ni 4.918752002094503 5.8814376469287275 13.458506001896458 -0.6925559470683944 -0.10847535659528416 1.0528405192943286
Ni 4.817403410615291 5.164942950349367 8.711137724660134 0.31339099299818934 -2.7449146200848276 2.1832645907010915
Ni 3.879959266559197 8.253933428754248 5.55934583243385 -5.846901733216195 1.2084128293774155 2.1266100754318407
Ni 0.928439320303452 6.575424949838271 6.11752732916055 -0.08406684584393263 -0.0013999656713201698 -1.0439645569609377
Ni 7.1589375290094495 3.8739871554693615 2.7644379675125212 1.7234667561691674 0.9143251646935284 1.7336778923742144
Ni 1.5090778210126463 3.026535260398217 12.424716775683605 -1.16172648106447 -1.04406534420486 -1.091474943837075
Ni 1.091179347501452 1.5670072985840444 9.185011675645521 1.0431826844895904 0.19917693414691504 -0.22943753280366938
Ni 9.091232734972674 8.101317996138233 4.435499037271002 -0.566998695290159 -1.7159113124194125 1.5799536912434595
Ni 8.27177511063513 1.2688963095419283 4.665204159490848 0.9619944457450335 -1.0173364128504478 -0.6823453250839796
Ni 7.658943198582294 0.4586357362827304 12.97796754819176 0.19871670668104485 0.48462389243666865 -0.6435764318458981
Ni 3.3485906823411398 3.0585513746938786 4.993530298078098 1.989483373648451 1.7709144081281696 -0.48539908003979626
Ni 1.5299148898620232 7.065725938890136 1.302802037112108 1.8353079439128905 -1.5955669723006844 1.077618497569957
Ni 5.279598151850619 7.040521763806318 7.757804965678006 0.025583504896059164 2.3832737909413146 -2.2012893094132866
Ni 2.651048107048428 7.185252143499033 3.842846328705304 -1.4146181311260217 -0.6867030878320431 -0.37060060943996176
P 8.331122964590364 3.218762586102277 5.685527208338484 -0.6906589871559975 0.3524324231713672 -0.7310944694632248
P 6.901399569683898 7.75836018538089 3.3703384981317166 -0.04546173187722493 1.1501901982900966 -1.3125553629253008
P 2.940546192128173 1.4156142824567308 10.798915909704851 -0.8079974505688665 0.9846906017909686 -0.06417319224379917
P 5.668298600986668 2.6357725666514598 2.0559832254878514 -0.21593281344901522 -1.8830975525923441 1.6073153710858643
P 7.03219813397486 6.133694020509205 0.1398332485990521 0.9577318138139377 0.05747495428801715 0.781123766106474
P 7.6421093104478235 1.4247497461394627 9.538371224265115 -0.8527328458030281 0.4271191133519805 -0.2601010233257972
P 3.5963866354513976 5.187720955302941 5.379600218907545 -1.7066537983768868 1.1059302000304565 -1.7032260036422602
P 8.624717544620793 2.577273872241812 13.0652387540614 -0.2496268632673507 0.021613207394401486 0.940568928881406
Ni 4.092491769968695 0.47727618802187743 2.405793100578424 1.803566904055868 -0.48268913730780094 0.9280276018812856
Ni 2.6673221097682283 6.468878755426186 9.994367100817666 -0.5221249747059201 -0.5257679707751461 0.48563613575126685
Ni 6.6721451552228626 2.5261656653058346 11.914186193457283 1.2672247573093014 0.8083350364139433 1.1315432726128705
Ni 6.80584579224654 1.9854843203570665 7.41998690302735 0.04169583707688948 0.8057870731811091 0.6207334658094537
Ni 2.8987787401936407 2.2087759551518453 2.87317891275012 -2.0288839869332604 1.7103937250352932 -0.6587580246823429
Ni 8.036921842027374 7.064447533859967 12.191091522418697 -0.3253656488615622 0.9426934314235764 -1.3608681910980756
Ni 9.032911337611006 1.7848493820093487 11.102112524596905 -1.035045657204753 0.19497909401548355 -0.1542358506598505
Ni 0.13621358939319753 9.120262793723418 7.4708879523599 -2.9532709067381657 1.1356603801050376 1.466370838218281
Ni 1.4723306749630063 4.166695250259893 6.009224027688753 0.4478756291730415 1.0356339256080551 0.7980778774623094
Ni 5.100360167766951 1.1464960264710473 11.268474077285475 0.08611858616663878 -2.6016347542158487 -0.28448253749395525
Ni 5.217441539398448 4.243082283668311 6.261914312465601 2.235425588975363 0.7287275118929449 -0.5331017854323981
Ni 6.33106296060467 5.109962202628576 11.837499621352013 0.6128869731818412 0.1406740528150158 -0.6606853236120428
Ni 6.135485653836155 9.202864555234695 8.802806830462025 0.8375741357847187 -0.086608895539496 -0.004623871925256553
Ni 6.010248617997602 6.0228647026748785 2.1338175626931974 2.3617971091247774 -0.045121060708354546 0.07062383296514933
Ni 4.218643285317878 3.571910311406652 0.9459786640604108 -1.3918970353794222 1.0368906808332916 -0.05928886756830434
Ni 4.2512752735696795 7.206415812173636 1.8941016892590152 -2.7787552227833565 -0.6867010309495141 1.3430429899911966
Ni 4.194689520993494 1.2943244387916157 8.98945023229709 -0.03699766027027177 1.7706639826802602 0.5316961633341231
Ni 0.6416445486342152 3.769101954454137 0.8989762834986947 -0.3002374863353668 -1.4798899557506384 1.4710150218585119
Ni 4.829151672899824 7.373784225466258 10.10153756746711 1.3752581412711606 -0.38982397644594796 0.24338576745364535
Ni 1.6194219048209233 4.622339332143559 3.2573097637600874 -1.7753089376514393 -0.6202822372046479 2.1856202354174616
Ni 8.403198880305808 4.372733082859195 11.59454667707867 1.654674577096118 -0.7592560194991053 -0.22225798433609462
Ni 6.964722610083303 6.434464465271014 9.670452859298033 0.8762882645254649 0.3857392648536131 1.4542665987555794
Ni 7.706916047196109 7.206537120680148 6.914482225540068 0.8689948161878452 2.260114092860978 0.2934204634135334
Ni 1.4731984973557477 9.307945716145056 3.5706533686507136 0.8213515032782693 1.2145269126949536 -0.437399412232066
P 4.463835771249911 4.963925423634958 10.98364730284881 -1.2476923437033287 1.151094969492553 -1.2750550519869974
P 4.67264503665184 3.060072396737071 7.800401981168611 -0.0944474177473083 -1.0481318009647496 1.3178356374876337
P 0.583199043338961 7.495064737707795 9.566246052776918 -0.7099882836122289 1.683146716393882 0.5924508168146765
P 1.1192109439293643 5.3202924900736965 11.844287298862556 0.43172087379005003 -0.7834673266379862 -1.9883816559438399
P 3.1249911105682915 0.9984156657138764 4.771719560205127 0.8694419310275929 -1.4976647632355562 0.17709912841126918
P 7.444236473479154 0.18133755438868882 6.394500777514081 0.3188700138348895 -0.6166770363518927 0.5513041673730377
P 5.20605720263345 8.342675266979763 12.173978624719247 1.8449328685971647 -0.33714901464973546 -1.7521972913346404
P 6.85344538391724 5.568321728773402 7.803570932615655 -0.32857361427589865 -1.8969059192303457 -0.7388646003269469
Ni 2.798344628225058 2.075523226459905 6.981458518270207 -0.9054749133917502 -0.048642186487735585 1.4218074497856095
Ni 2.4777355769367047 3.7475650288364197 10.098423671419177 -0.3928180260772654 0.5392292384863746 -0.4582711134747527
Ni 0.9563402768012742 0.8779385890423937 0.6080980808717834 -2.2252087963433613 0.7655428809490816 0.9613881796196025
Ni 5.904831525838439 8.475741367200147 5.293134314892673 4.069027863051057 0.9278062298990989 -0.3217347369771943
Ni 3.194444896258356 5.79708157778481 7.339120786301556 -1.866502367237824 0.466237676619997 -0.3613261261165712
Ni 4.791788652894046 6.7783180926918325 4.4312924315221 1.3470770508512542 -2.7597665974959957 -2.1242919688216255
Ni 9.297055944829685 5.710877886772475 13.549506044627819 0.053921946829436164 0.28207367094214647 0.03541051828880998
Ni 2.698059819033722 4.775365347396999 13.266891750721467 -0.1777115651842875 -1.0116370484728254 -0.06946400832909327
Ni 5.026781892855469 1.5504626845804863 0.18691494626117988 2.908688235031784 0.5433879978497546 -0.24396580832683148
Ni 8.022448804058103 4.190051803475294 9.066423279106198 -0.6580671692629054 -1.7057960783622816 0.41620915130769615
Ni 5.141689042793324 4.569616788928611 3.660273293834906 -1.3783092693926586 -1.5445233754603078 0.7584306953843325
Ni 8.550980635508488 9.184752262070056 2.5074860215876607 0.0673068527767744 0.914668149855244 0.44934604307098097
Ni 1.9439781482827143 7.868368337940363 7.988602797598822 2.092315673025345 -0.6850318707772073 0.5040426632829125
Ni 3.934697397266964 3.042678623187927 11.722585006275297 0.8837457492447747 0.7668659706358794 2.5561341986808883
Ni 7.166066736622939 6.348876648214817 4.889637960531559 -0.14913786731165285 -1.4422448917043549 -0.5778621203672242
Ni 6.298692252213049 0.6305354888647645 3.224121622663046 0.31404585297336884 0.04386044882837607 -0.4152658135578203
Ni 6.096228354844069 3.293516620384569 9.806891335999456 -1.4068063483910866 -0.9401562668240196 -0.2373752995935073
Ni 3.355673232836741 8.611812185812603 11.231803448909174 -0.25634464160715853 0.46849433386465766 0.3826392857720507
Ni 4.76665912919885 0.7484576217606272 6.5247665175187475 0.6351087606945192 1.5335092837379911 0.5419445805350086
Ni 6.373922189097812 2.4670884226343586 4.808717721549012 -1.0952966315760104 1.2933404805597466 0.5130417814577293
Ni 1.1916507851643456 2.2235382672520307 4.873726950188938 -0.7105387567990602 -0.8745121464616488 -0.9977664611383203
Ni 7.706729418724551 1.9168610313654328 1.5342409378327224 0.9804889050047954 -0.5501304587799106 -1.1648660551347163
Ni 6.953403593283351 8.359070578206076 0.9823404223162849 -2.184814451686715 -1.1119326974707948 0.7790586560473293
Ni 1.2988501792268814 0.09206662444630888 10.972229372958934 -2.465457046609289 -0.36244275621951777 -0.4462442642172056
P 3.9852737130590032 8.745596805648482 8.229206089415259 -0.12047392371805704 -1.6006914380114432 -0.7424669729662245
P 1.43587280304428 8.674528683679446 6.041400642469954 1.2183519428679985 -0.3461705014220554 -3.0360910246591906
P 2.723012045680938 5.050101120376559 1.684445130596216 1.4464504451452702 1.1495548786989427 -1.1775768178331654
P 9.04964258008612 5.517549453086227 4.298514672290272 1.5156406309876864 0.0014827551931135754 0.6657216004843697
P 2.455993360000275 8.984079998028028 1.5529513752487034 -0.5332560516220752 -0.5447100590952877 -0.5195641559572793
P 1.3031053083783886 8.205242060524938 12.608792169750041 -0.8855390936997717 -0.10934541790506329 1.6799780888579132
P 0.3234877954621253 2.109545596824808 2.798117874632116 0.1988231503519221 -0.45818986661485606 -0.5010249595025114
P 1.1945901835913737 3.6617345947671995 8.384341939539656 -0.2502621828585045 0.45620394653307883 -1.2386302335010602
