# total energy = -340888.68443695194 ev
CRYSTAL
PRIMVEC
9.10548960874950 0.00000000000000 0.00000000000000
0.00000000000000 9.10548960874950 0.00000000000000
0.00000000000000 0.00000000000000 13.32680443939594
PRIMCOORD
 96 1
Ni 6.639805097880071 1.8094884567746932 10.911881460928896 0.5260780458163972 -0.6271360269016877 2.416445392597277
Ni 4.418912401809899 0.5592846777344603 6.0537411746990175 0.8204727002177418 -1.0635501924023492 0.3621385947155376
Ni 2.6784981905156076 1.4373744058852158 4.702749639819341 0.6281420995686988 -0.34967722902373327 0.30200537686906703
Ni 3.668665571285552 4.248220890370984 4.743689742973702 -0.6483666541456897 0.9445171148958765 0.1552288107007391
Ni 5.3367821937168864 4.542273577365987 2.6719039948160415 -1.534154630631474 -0.04987425912262378 0.5606418998341957
Ni 7.118735649393145 6.153927057663922 2.624274088319412 1.3245179346038156 0.1991746201540699 0.581946831959559
Ni 5.087792575649185 4.830116320330191 11.708864038853358 0.011522913037934995 -0.7814556955245962 -0.6642766405077271
Ni 5.700673987333914 8.213934854789564 12.551304863961624 -0.32206075285804536 -1.2047433509456282 -0.5208679623703674
Ni 1.8384439142790008 6.368215654175359 0.5303592683464308 0.6005765312456044 0.42094923709584275 0.04643155198966197
Ni 2.866836141150544 1.7612111499546181 0.35314003128335275 -1.395659587745648 0.07425243085667213 -1.0582591192067388
Ni 0.7949174528420773 8.76508104575756 4.612434107777289 0.06071891514661156 0.1612001977928256 0.15645239869519506
Ni 8.66052270659971 2.4170431569374036 1.6494986274756562 -0.22781336693668508 -0.6020829405878018 -0.1608512990938391
Ni 6.891708472677767 1.0171833689508505 4.647123292196836 -0.43552842046159834 -2.065643305940481 1.551643531444857
Ni 0.8660841398742053 7.428477095281204 2.5295077928722947 0.41287314495592764 -0.9873120985742158 0.08443657047852555
Ni 7.6605760298047265 3.712326394786544 3.9821029354758126 0.449014113652859 0.24839916150783672 -0.6970486927324253
Ni 7.5563545937687815 3.888308195788353 12.68610526632987 -0.5058738029543803 -0.5405921802721722 0.044649263278258584
Ni 8.305417710621569 9.233968242041938 6.362363555892964 -0.36306342052265217 -1.2400505108873547 0.5729479708950583
Ni 6.740921561900618 0.8500757782898269 0.2870669552348441 2.1435613585741984 -0.3254474099420911 0.1929669486814612
Ni 1.9353536420206188 6.65594913126219 9.36397278294241 -0.6621503381933436 0.054802549662176576 -0.20892681444482727
Ni 9.17869791906988 4.726869171700838 1.5422314051078903 0.6791761833273787 1.6225900378567473 0.40982047417253287
Ni 6.448207381903455 1.650934563214156 7.2606428865356385 0.00841779175005002 0.7733238104460811 -0.9277530080636603
Ni 3.5466884301762107 4.250815954958634 0.3422179962907688 -0.057822567435423 0.3507640343300088 0.13520377372906392
Ni 6.178548302032365 5.402924471487732 4.888312237168959 -0.3944193091261143 -0.5049070681657369 -0.08330939885261782
Ni 5.088147689750652 2.7513330032756564 9.436416970190844 -0.1862039189260148 1.3015075897515713 -0.33492269642237804
P 9.261011546692187 5.527778947367942 12.523451170720843 0.2502380144887884 0.19949163717385646 0.47476474025440174
P 4.038958524218784 6.33620075210456 12.852676543642778 -0.6867719933967656 0.021558957117698355 -0.25512079650238645
P 2.549118286214127 8.553378408343992 1.3382110694227436 -1.8921822885024315 -0.22990058848301698 -0.8916405786118192
P 6.401796700488532 8.216375126050933 6.039267998691754 -0.3293146062069813 0.22114906754263206 0.6031476344068902
P 4.766359680882028 1.3413661216319392 12.479379689630719 -0.15406461518930883 -0.20159737066294958 -0.45389252479108283
P 3.847397230201292 6.330300394726324 8.259807401758415 -0.34839064900182576 0.9376211591069916 -0.038846283443236325
P 4.639829794882072 1.0188132516216903 3.607432973604744 0.09211028497369943 -0.9228679120572171 1.1123376462186971
P 0.19170607130501302 5.704543820490937 4.052215206791274 0.06979002420994433 -0.06472829341632079 -1.742005438403303
Ni 1.374974484414455 1.043307019133196 2.6345359753028568 0.37383737120970456 -0.8027207755509594 -1.3345804610461403
Ni 2.110006041514368 6.570885645725951 4.827994741211165 0.31898571347714744 -0.656142698546683 0.48044764957179187
Ni 5.705936960427464 5.530710915077498 9.208901739223192 1.2720293777867964 0.13701460168555757 1.6051353327154096
Ni 8.797879019949546 2.647712529565273 10.143483747074649 -0.6166019601395832 -0.6352095479384415 0.3455680919513661
Ni 2.4133736445555685 5.094020730659546 7.039911245455002 -0.9488445386266369 0.8515475672456754 -0.07085317536713603
Ni 0.5154572237704718 -0.06909609865587663 9.307719977622957 0.3854204480616137 0.021283077748492377 -0.06817639986592129
Ni 1.4347702358077843 1.2201265251948779 11.645081904033805 0.14862544645160855 0.2648117985379052 -0.5914799682609748
Ni 4.159141883841222 6.750172739518346 1.7401073562886642 0.39133912753889377 0.9200481832202347 -0.9062015071451296
Ni 5.564046113166576 7.701159197759663 8.223717793010515 -0.13049891205422687 1.1243727230063603 -0.6048769583931711
Ni 5.364198823448167 2.6351196371978336 4.8802493259676805 -0.582416572507126 1.5237072100459048 0.7106197465486407
Ni 0.7599378032985087 7.379444032809287 6.933496296930759 0.39678626669639405 1.603365899519813 -0.7040613766048326
Ni 4.749969799275815 4.716916871369955 7.215705473367318 1.724479513704398 -0.4828829984861619 -1.415386119640298
Ni 8.089298910664104 7.1861344847538 9.110629830210303 -0.18666491772283336 -0.7071055627477951 0.08308802687043111
Ni 4.726049677620527 0.32789688196285216 10.513622817230576 -0.2836867810655373 0.5190725610328415 -1.0634149523760654
Ni 7.967959153839447 7.202961429869511 4.9122997394486285 0.8183232579749069 0.12176847415976448 -0.620900073294305
Ni 7.1492026182011355 6.117705419314193 6.934962280785538 -0.35770498442421617 0.44360914058720374 1.0810761171012544
Ni 2.6472299386068676 5.04240170908976 2.5851468881804935 -0.45777951855031485 0.6008837780733781 0.3560646206073158
Ni 2.296513788703278 5.325910238918099 11.653890554848166 0.2076327782237521 -0.33107632609309434 -0.37855277440750285
Ni 1.536114337072861 3.1628647194280735 3.6669637552454404 -1.502077290480955 0.9757758157998421 0.584702026107193
Ni 3.90666486318731 2.672224508056341 2.438351824123435 -1.1625525765101914 0.9193043630756749 0.8169304913924382
Ni 0.821828727890499 3.3247694332281026 7.985301469676776 0.07503558887959981 0.2765974783189237 0.49050349114589714
Ni 3.544302791853529 2.7793414898427162 6.910414790884322 -0.13247891859873315 -0.7254552688995765 0.03659296863268537
Ni 4.6089621845237065 6.984329514732425 5.858356485522388 -1.1520233948440932 0.4002145756516527 1.181381022070604
Ni 1.0744842161441233 7.677858249409498 11.916802466791367 0.057210644883036954 -1.1087383589032132 -0.6151181765052052
P 0.20405675764427178 5.72235415850302 7.9350191340068745 -0.3976614702124958 -0.9311306662866415 3.387946749391481
P 8.599352026249415 1.3956257352382817 8.031332452167822 0.30996139849135007 1.3821715805615422 0.7449290613534719
P 1.6289721218618323 3.4665692255911784 10.10198456684772 1.5150932431246489 0.32782285215280316 1.1318782873547863
P 4.339712851692771 6.300352438835862 3.8358678590403 -0.6684443987321713 -1.258387875743962 0.06894464549051353
P 6.7301679784689865 3.8903933529482546 10.443883870996146 0.6813891318182974 0.9707439098028895 0.1859447517273572
P 6.264267382832852 7.6156222267548 10.435594233099314 0.3568439219755016 0.3593543471021811 -0.6380002233097013
P 2.49689830231878 8.525743246857962 6.026554003310224 -0.06411559953298636 0.017974067979917432 -0.7914896827218304
P 7.1038390681110535 4.175741191712403 1.6813632889650665 0.32389600629457127 -1.3482096217938007 -1.0319472207850875
Ni 5.556124337056907 2.710130662015596 0.5806124664490325 -0.6816989497492324 2.544137174220012 -0.0745787038478393
Ni 1.4236706437644664 1.2538987867934555 6.888771952223321 0.4724083242070832 -0.9972159879514889 0.12227883813727973
Ni 7.078234430846239 0.3013744113280889 9.147852161886988 -0.2977897961258226 -0.09724349243520672 0.38447171099509914
Ni 2.580841812611929 1.5833809345272196 9.12602266068547 -0.09560775660399663 0.556689600054667 0.9530696324515779
Ni 6.452924025610132 1.8208612135114481 2.6028852928233053 -0.07355669034122815 0.7143208495493117 -0.802879669726327
Ni 4.047162570511671 7.129789713987555 10.66381605007399 0.17820418854998987 -1.0459741311917987 -0.6134649571724984
Ni 8.376404108956027 7.127349442726187 0.5721862462054834 0.6813029998623944 -1.541706474836803 -0.7753917487187033
Ni 7.573044956537774 4.016012689970087 8.323242617417302 0.484486595527856 0.20495985937727929 1.3663690663116468
Ni 3.28651727065716 8.542442715116735 12.471930488440696 -0.25886663669806387 0.4326868372477452 1.452250339656499
Ni 0.20962294354753694 5.311186661941853 10.293664232232366 -0.4582834547699268 -1.0020699736096808 -0.5222095639999265
Ni 8.63087523187203 2.3913201483054323 5.801930675897092 0.11379239793282336 1.3663286999920146 1.0450660175552322
Ni 3.5159574021645636 3.0284130573184487 11.39751001072504 -0.7131502262799783 -0.958110280199279 0.10388053813575013
Ni 0.7855797730714271 3.3295133934041226 12.839337001113277 0.90612643093282 -0.030072908125980465 -0.5245423258981612
Ni 3.0373455427938345 8.446498169291928 8.249479044699568 0.7419129002349674 0.5181551914248947 -0.5640133874095898
Ni 5.925224470828797 7.967959153839447 3.782560679665074 -1.824760764524664 0.25659095329000975 -0.10324033344858993
Ni 3.0160933296444465 8.201278223993656 3.381757051572901 1.4393071492322695 1.152306730412467 0.8414251340996929
Ni 3.4304568531188253 4.575526826047034 9.42009173756208 -0.6761016581671131 -0.7143876982315052 0.39022121188436665
Ni 7.233546770044658 6.022889954222258 11.570918600314675 0.5341351117929188 0.24158008170347428 -0.5105300707794691
Ni 0.27547202454742736 9.12579502344094 0.3679346310798933 1.125475726262552 1.2247030818970068 0.8639125165689315
Ni 4.392479164974992 0.5832120837815733 1.4922286079742726 1.995747866500924 -2.399355526994526 -0.09572088514309321
Ni 6.0684811415568705 5.889676638722881 0.3967708066680668 -0.014132325636324047 -0.3248696830617502 0.1590831514498228
Ni 8.172650564121472 8.586740922902413 11.3188021570561 -1.2428668972902273 0.5799668254150527 0.2662747562366769
Ni -0.01670311045468611 4.876854799377239 6.081647679780527 -0.4064479581558742 -0.722483330755446 -1.5562540336336748
Ni 7.980524729737544 8.598314000414355 2.7116713108865804 0.779104164573284 1.6583805651927956 0.27587885498534426
P 8.730653188894735 1.5283291433099102 3.859602228704051 0.7621253706271003 -0.16541397876385708 -1.9158539210877588
P 1.8089330218980382 3.2716024783955078 1.5067017839815358 0.21763514085210262 -0.05921481979725931 -0.2769443201353811
P 4.553473329796898 1.1536382388123452 8.238124498942375 -0.3484047900692129 -1.1866551259853497 -0.4894781352051764
P 8.508160546090409 1.4846683198089181 12.337875825685533 -0.6653757871091767 0.8647980044976783 0.07675025757786137
P 6.585381585457667 7.9394225488650765 1.2951366394636625 -1.9602846405973078 -0.06451489185393404 0.1627027504802811
P 1.6796168560250266 3.4130289456775533 5.8802797732686525 0.8864850025528088 -1.3128420409277841 -0.49692019330551834
P 6.733919440258853 3.839275133316436 6.453944751014607 -0.7141344445701185 0.03634074341256322 -2.479116546374253
P 2.3519571159811803 8.727265946696118 10.464607055189244 0.4665068711209837 -0.27393458677477983 -0.8446984055343258
