# total energy = -340885.64913892094 ev
CRYSTAL
PRIMVEC
9.09201994910460 0.00000000000000 0.00000000000000
0.00000000000000 9.09201994910460 0.00000000000000
0.00000000000000 0.00000000000000 13.30709023097625
PRIMCOORD
 96 1
Ni 5.217364816804939 3.143893263877932 9.990430796361997 -0.07762134732890504 0.9962585091342261 -1.095537801052539
Ni 4.534190426147747 0.747360415787396 6.810608596636844 0.14966082969465835 -1.274336171543102 -0.07263212164442975
Ni 3.5633899794825665 3.3269792727236056 3.27937254625408 1.167397049086686 -1.051125336375435 0.6754673670172238
Ni 5.189515959224649 5.166567700480722 3.0164776941325253 -1.6230266111735339 -1.4572585915043677 0.47315137302069477
Ni 5.09567721972541 4.567030802765444 11.871455196543666 -1.0396756997775964 0.34599875173088157 0.44236318399524455
Ni 5.7858706499033286 5.7792789353275165 5.269727578991164 0.853746374669207 1.1457645584185752 -0.681036376464569
Ni 3.8627902015259696 2.9484693837503615 7.555433248017077 -0.0876944152941909 1.033374183039601 0.5415131494245448
Ni 5.457394147565518 7.970255756085952 12.656280190373943 0.5534631226975694 0.659088154328252 1.8557006486366299
Ni 2.361015780754055 5.343216559092362 12.037593679914426 -0.4111685035599951 -0.1208027678123855 0.0878669363163132
Ni 7.845340491869301 7.531902190784446 9.217062657065483 1.0710709262594262 0.0535499082019981 2.3707291215070847
Ni 7.823183238874471 -0.09318320484970051 7.324728693075742 1.509762574940355 0.831791981885303 0.10394867236952421
Ni 8.583257935576093 2.2586032662962077 1.825799470066529 -0.14949242243759417 0.8649221887803686 0.7187873699610976
Ni 1.6045142479535266 1.4074901722875517 3.4750000876319938 -0.8453980027045118 0.6927732052855231 -0.6758728299857586
Ni 1.6132971393745386 6.754279895281007 0.7260132617838823 -0.06925677741429363 0.14049638958657093 0.507430605918539
Ni 7.66747330256365 4.145606578898643 4.358285294780662 -1.0225418683107874 0.09645802041943388 -0.008047038674192594
Ni 7.337878481752978 3.742420947361602 13.151557075146124 0.9266865144723587 0.21263074565897574 0.4598471997126209
Ni 4.532453850307775 0.5805327572927101 11.075957080312637 -0.8316256315107678 0.0020733375892609453 -0.5908621321713178
Ni -0.029715449307757536 0.16626395324820256 1.036853972724863 1.0478502651685888 -0.7479827605781312 -1.3338543815133932
Ni 3.325442721325934 4.5114785599265375 9.719219473450794 -0.08038939699234542 0.5494825407832665 0.5502189047286589
Ni -0.22839518183477417 4.725304688745753 1.824654784735364 -0.0670757106025748 0.22682734887433195 1.6606454499675722
Ni 6.435040885369438 2.074753527761751 7.506875496244613 -0.3840333379060999 -0.120515832699586 -0.13558352566598586
Ni 3.08363135462486 4.8528839148530425 1.2387622815910115 1.9541636153012345 -0.42288399222471046 -1.4565366257366787
Ni 0.6038565164669569 0.18897400106539095 5.544080194848495 0.7622037892735195 -0.34460495670714847 0.17387830748112634
Ni 6.649439811455242 0.7493679338264845 0.4619000789683152 -0.5317920654820391 0.001159824636056067 1.1055861864274765
P 9.071863095995544 5.509618711046152 13.111396713142241 0.7340926328596002 -0.9384742511359062 -2.0496189054877667
P 3.705843750480928 6.682480212515239 13.272092713278406 -0.44645200935263757 -1.7548491271351907 -1.1781388609842225
P 1.939827949409971 8.625981338047454 1.8216607825149298 0.5900314087399064 1.3173874942066215 0.25025806909344644
P 6.123511908506542 8.230242070976056 6.415122087724352 -0.8757570746123434 -1.1350926805270258 -1.036735643312666
P 4.653423177799044 1.598977207709845 13.206635623737585 0.0013542000350492808 -0.9872776457918545 -1.1201975085827482
P 3.9006130051609698 6.422812118328795 8.96239153712851 0.2617969229709814 0.8724740329856974 -1.3663029889604017
P 4.538500043677312 1.1280651184138828 4.2527596726390104 1.4347663239391224 0.5790674535292349 -1.0632447453467881
P 8.953184957570626 6.001378802441888 4.370580433568068 1.178721730070886 -1.3176047524237502 -0.517752042449205
Ni 3.143756883576364 2.092992120091513 5.454482882728035 -1.3882463260007123 -0.23301522285259874 -0.5743111697911722
Ni 1.7680160454939615 6.924837100422587 5.229633588734043 0.35065373400438965 -0.41202468091270333 -0.04088054026444572
Ni 6.987490210963161 0.7857360142447538 9.753578217425954 -0.9631838380674445 0.8417866312041695 -1.4018688018801535
Ni 8.538161515857439 2.692138060942294 10.731224046027863 0.8095527108711283 0.10842856251774875 -0.28993096220303616
Ni 3.4928631795314375 4.655468882322571 5.463638546973335 -0.4876935325009279 -0.020318142732061784 -0.913598313829833
Ni 2.011873116718563 6.85110990939465 9.952386147436442 -0.5186092482431779 -0.4483931922394084 -1.2657088348854073
Ni 1.471879858668098 1.5290868491660357 11.801392998819882 -2.016800316295849 -1.2000590580960815 0.6848585784241366
Ni 4.286532890519437 7.083210998624046 1.8897263726237525 -0.9384194866385708 -0.40052336514132314 0.8543251299908126
Ni 5.569898804339434 8.187400472243334 8.513303932891551 -1.3519953140884782 -0.03009399117190301 0.5946282840819695
Ni 6.618390562798143 0.9853204027721749 5.270978640957552 -0.5444838020170946 -0.2967125039012438 -0.39881306731843574
Ni 7.794234246861528 7.586627059793837 5.113249366981507 -0.2604056990504096 1.1744848091714033 0.18720510649701955
Ni 4.999474554998982 5.1068785884942365 7.478292003439875 0.28168800546795353 -0.5601729306175772 0.6114178448354824
Ni 0.9711095753487362 7.732244853788587 7.497107939046276 -0.5599975813819775 -0.5154802156958929 -0.018034231793891523
Ni 6.380079623837328 2.1062846534843906 11.699195056036503 -0.7893057876966342 -0.29570386013107136 0.8928070881160945
Ni 0.4153898501234008 7.609857171161006 3.0529794272463318 0.7841720660144946 -0.11440560603679006 -0.05839335233722847
Ni 7.307438398442886 6.462389681843977 7.410639191043799 -0.9645858606212936 -1.4671159439144217 -1.7152184001174462
Ni 2.082208984247496 5.54319554129232 3.1750188855039085 -0.5313089551980335 1.5121310751725314 1.2652473218679565
Ni 1.7572601857102583 1.5613544285171452 7.691006178200301 -1.816587484685252 -1.369934672175718 -1.1984035247705298
Ni 0.7904911407594427 3.7666966410407974 4.486112733036806 2.0608764806794575 -0.47805780918337665 -0.17883128061102752
Ni 0.6700800633025942 7.469112699942303 11.808272930433006 0.42433563706957245 0.24862567569634597 0.9712694432890563
Ni 2.547793149762182 5.521856570106901 7.405954982285926 -1.310732450783949 0.11908090002527234 1.0111241133921491
Ni 6.085680012851437 1.712945679720597 2.796325337724552 0.592489897582728 0.956068824289218 1.3033469569531555
Ni 4.129304586851153 7.060717340885347 6.324048231538911 0.2827604125965259 0.8798101616357945 0.420737635305669
Ni 8.236715589290508 6.920436562691976 0.9265459480082097 -1.608744390222907 2.3643162760022056 1.1222405071547061
P 9.269405416807478 5.948508705533828 8.621877200172253 0.36633540640570456 0.30048714045232766 -0.4450780118232464
P 8.609797542261326 1.7502047781091141 8.342627622286603 -0.11853582615507972 -0.0036483953858646844 1.1269088591646526
P 1.5750470107946237 3.5336590737406306 10.966652814615529 -0.08151451173572413 0.9993710866212788 0.23025411516769378
P 3.884311013113481 6.5717848677421316 4.11259618150499 -0.2690145237653432 -0.7517196019127441 0.7490955340263357
P 6.9101080278531875 4.219606530529717 10.857707683712551 1.1191749808555047 0.3208032263018604 0.144277453895558
P 6.2994879576304434 7.881599468046316 10.655918480309774 -0.5764161319493171 0.17575906944360697 0.5893120140753786
P 2.740316675476396 8.675551031657557 6.225762585006527 -2.289362705313451 1.3065346106525175 0.482607119116956
P 6.868066526889669 3.9954700509119214 2.3378956828301503 -0.25268081960232613 -0.9437303573285231 -1.2416566790322099
Ni 2.501578411570666 1.5112573977409791 0.986729665888383 -1.0057065419210036 1.4126198697490704 0.8579714684941482
Ni 1.1302290191987698 3.9545741444815774 8.731340576221193 -1.149527367895117 0.02470084518078972 0.01921359681397336
Ni 0.4010017283079229 0.06245672290631509 9.596008963003747 1.1412990664480538 0.9546421191450203 -0.20163208055562695
Ni 2.6120009957406367 2.2260538343218563 9.651087511595208 1.4805504721527727 -1.7911057954743796 1.0519030950817239
Ni 5.041934288887312 3.1552855650689553 1.2860880646393054 -0.446186928616709 0.19368402935314386 -0.476226926622225
Ni 4.140224102996739 6.861020211308628 11.186139635151848 -0.15578494031452525 0.06117117219268175 -1.264782466416396
Ni 7.152501283840954 6.278849071993076 12.064421503636975 -0.08840506820797032 -0.4894490817394539 -0.504443498265757
Ni 7.5289745603107745 3.7323742651460554 8.682118197779086 0.5544954206168257 1.3569845397729532 -0.05667071321916691
Ni 2.7923957666353583 8.704990992756146 12.938776528638934 0.6695939389555823 -0.3781899917514454 -0.3682081979483852
Ni 9.114113713421467 5.413543334601189 10.872797709480102 -0.03676857497860119 -1.6277191315531967 -1.019225916563677
Ni 8.639792116586294 2.4312425440417327 6.209820636955178 -0.15553142954282245 0.4617179343727726 0.5194397145642731
Ni 3.1730604643733846 2.920111373044216 12.436779731807468 1.5348912516871822 1.3848159601629246 -0.5102773313387148
Ni 1.1466401154875139 3.6738216556726417 13.519071984206915 -0.397613904804012 -0.8054525726598257 -0.5752812470139254
Ni 2.8834796240429137 8.769026090352613 8.526744666212133 1.344416987520588 -0.3393902452754284 1.1212398338043335
Ni 5.593656252872669 8.245907621616226 3.5744977004443164 -0.7356514927062879 -0.1947003864328002 1.635583621902938
Ni 3.1011425853462566 8.606879003807759 3.767290349953625 -0.47551087439180684 -0.1792917651872138 0.2408560590532562
Ni 5.530884946070736 3.2834557724830415 5.339336994113743 -1.6560501172874058 -1.5266261834649129 -1.1612881079754709
Ni 5.929942800480302 5.868144339829558 9.648399001250286 0.44229093599641245 -0.21707644013515517 0.2934132643246818
Ni 7.672937606646495 9.05702491918489 2.9601626308068454 0.30861491176578465 -0.12745498302158048 -0.3897327022837223
Ni 4.486830093423056 0.3453822045202425 1.6462202533751875 -0.5516857190821725 0.17789385639842267 0.1693058576190955
Ni 5.669301860142669 5.320741085393871 0.6800731025995242 0.33274291516223986 1.738370669864193 0.3220738654841679
Ni 8.038245882427907 -0.1814658108630392 11.579577711934782 -0.40177420682928866 -0.7652849993020046 0.6050389378923322
Ni 0.049538780741745767 5.200726420013582 6.437278431517172 0.33591514224263436 -0.7319362486382297 0.35727175354153956
Ni 7.106395649890692 6.351921637573483 3.0088794929311384 1.2887726586834063 0.3703486413301557 0.05110324643371844
P 8.484591333401328 1.445185687641088 4.2531860883819155 1.073113667721068 0.8598658573033837 -0.9984915122298028
P 1.7533233410049809 3.604331346013433 2.40364644462035 -2.235341513901989 -2.2410748168413406 -1.062102404212229
P 4.764718595899053 1.471707110286111 8.96103500772891 -0.2943051800113318 -2.3212834652814474 -1.1499480003723033
P 8.225832441225341 1.5617453853816416 12.699421825770115 2.5523474779449464 1.9105535919207677 0.8606592997389565
P 6.218823555262722 7.955253922913417 1.4687703877923357 1.4348575981013483 -0.6969623036662062 0.3096515805604151
P 1.7332936207146188 3.32384252578753 6.63609999955782 0.10300147796490648 2.6403290854622528 -1.3345845748111984
P 6.848445947504012 4.312163295194212 6.479341753328943 1.811262987148545 0.2797799898119633 1.96197205560206
P 2.263322024730478 8.86138283057481 10.807060585720059 0.29049480512630615 -0.109826728416856 -0.4001775517661302
