# total energy = -340863.1826988917 ev
CRYSTAL
PRIMVEC
9.33293449017883 0.00000000000000 0.00000000000000

0.00000000000000 9.33293449017883 0.00000000000000

0.00000000000000 0.00000000000000 13.65969301385329

PRIMCOORD
 96 1
Ni 7.153190222891307 6.643574674071485 5.760661349261986 -0.3906192186537337 0.4734902444173522 -0.5539991977066975
Ni 0.01659022415174923 9.05903142064789 4.102962344181978 1.448171541601435 0.5225638620155516 2.508881436341511
Ni 1.4000614849664474 1.0005745618164281 2.530567292617609 -0.7654204964386044 0.17674020240995367 0.7474253454127645
Ni 2.372263926271333 7.412841790243813 11.964539085705846 0.1534172114132971 -1.1093117149081797 -0.17435036202153842
Ni 8.231732118508205 0.7869315610710765 10.52075000329442 1.1211246483827078 -1.0520740734419494 0.24255761512539514
Ni 5.0645448394572306 3.5840707918830694 9.989975758944428 1.4764148527178445 0.36973260501271166 -0.9539602625866473
Ni 9.3889319850696 1.0906000468343025 0.6800255976422727 -0.8993682862733802 0.13788492010565284 -1.2139134474806705
Ni 4.06158104643983 7.922830656438786 5.057378079147752 1.348254101878491 -0.6640074460067402 1.346398536726991
Ni 7.471377954667627 2.891520396304452 10.993361400595752 -0.5145949848774621 1.0447559425139814 0.3933165629802387
Ni 3.7526609185016557 7.346204638779204 2.5638289374502032 -1.723731836905096 -1.5063170395939154 -0.9699676937584972
Ni 7.732364131636301 1.3057055183968114 3.174430569422358 -1.1496081005343812 -1.723221987148213 0.4376161562285625
Ni 6.599196571100307 4.84386760607058 7.956511350024989 0.9830828909842165 -0.1556910950491383 0.7614260305672306
Ni 5.63366717787626 2.8469183029081817 7.466592959211618 -0.19978705692708817 0.023890176354036275 -0.9895769833489925
Ni 4.139623043715329 5.126086208751017 8.22772455648595 -0.5756861957618279 -0.20555506975911694 -0.6712620706866246
Ni 8.941119127706171 5.52903565055557 6.511521118959013 -1.7695496665701589 -0.7326738981352028 -1.0614256898601784
Ni 4.227641947841763 2.8031935053435184 5.025237319734052 1.0693619139881196 0.8171500636024119 -2.0798265394193987
Ni 8.308262180414339 3.410543542978101 6.139417025276384 0.31905436193155373 -0.22705874815884766 2.6453869596011343
Ni 6.58815570973019 3.8669426999700227 0.35580879025724993 -0.343412479060944 -0.05178484588177533 -0.1584815133100819
Ni 4.114181464598729 3.8429570586165145 0.5721910072427784 0.6161471319903518 0.8141899525328236 -0.20680668277803094
Ni 0.9824966679246988 7.04565615297881 5.187432519716286 0.020532829846029152 1.8925527844679728 0.30815442718959835
Ni 5.854419074737942 6.443513892727597 3.7212695937185725 0.35276692369265056 0.585381568672721 -0.4631011878735444
Ni 8.665657569515982 7.433402244680303 10.25418086498035 -0.4950990809363795 -0.36887308522589374 1.7770146074886362
Ni 1.9494166683711858 4.2228074878335455 12.444116585227508 -0.2349965149486856 -0.22726597907364732 0.23431208728715128
Ni 7.569149775219903 4.887200420391333 2.6244370133061095 -0.18979677848359572 -1.0551303437697699 -1.9987421732425577
P 1.006510308081343 6.303398548898721 7.57394410361029 2.2638074825521657 1.0176773411296345 2.153683020389233
P 5.619107800245337 6.546045509813059 7.1980023073111 -1.318933755647819 0.676159507988242 0.6860973359272442
P 0.6596630014146138 4.813824890305233 2.1450769711554716 -0.34569433311658526 -0.10994654182417193 0.01437220956127202
P 3.573505910166272 2.628462307903685 2.6592413921915186 0.05979126112601961 -0.26284696150205056 -0.45678835828163905
P 0.31894556604787827 6.83164263473862 12.495026808970406 0.12232588932513128 -0.27887136195476486 -1.527880624697304
P 1.646460285501062 3.443218146238268 10.103131988526714 -1.188444870895921 0.8926595067946369 1.1913188500096064
P 2.92101246894145 9.40778451251477 12.845096777878135 -0.22844020188740657 0.15794980917632798 0.8662460497981145
P 6.7915856803848245 8.566588471085055 11.219033620461934 -0.6146674621210316 0.04752401372289235 1.4878873721338184
Ni 6.395019965695369 6.6935712035387 12.654789846253527 0.8886074482124503 -0.14642818168997362 1.0256775857262916
Ni 5.182839782708481 8.86146253278314 3.2231550199337424 1.4586115059878364 1.4829539393879427 -0.12623576590249871
Ni 0.3870694539590299 1.332239050835731 7.204094846873579 0.6354879984108087 0.05641411712367059 -1.0976039395529484
Ni 7.067243230196968 1.0662597539744003 12.721080745852683 0.3645356341928045 -0.12023095446931552 -0.43809900940225194
Ni 1.0171125215356562 1.2116855374648123 9.442481562654823 -0.2427224228380336 0.6643992821285203 0.5622370122354575
Ni 7.7859911725768685 7.190699286159691 8.0091145680642 -1.0928759379496598 -0.8109269655108355 -0.07736860788815063
Ni 3.471916919453068 0.5542045761079613 1.875940342593794 1.1433384654755858 -0.17765911467979728 -1.9509265964211757
Ni 7.034129979020997 8.891066600632684 4.677529516517597 0.14038686059190017 -0.9045973958828033 -0.5278081411336264
Ni 3.270801516524376 0.37034576884566384 9.818122838467017 -0.5787612351427258 -0.5869905650310536 -0.33193713143149284
Ni 8.150059609759353 8.211880967084504 13.417328850032181 -0.12370528617116112 0.11169180665005281 -0.43184094430768205
Ni 2.1553945301112316 4.194584694272064 3.6085902770830445 2.1496746705607883 -0.19986701823540418 -1.5842006394452717
Ni 7.231250886035563 1.5545588806730497 6.099626992845822 -1.3781598882989876 -2.3716904569790898 -0.0742010087934464
Ni 5.34426221572415 4.913612624683328 5.750580846839449 -0.5089375294813686 -0.42574717270511836 -0.11358722390055277
Ni 9.22495232803414 2.930681388957883 2.6902901982829 0.8179491624649398 -0.23810420733973184 -0.8654880885861674
Ni 6.511802973577253 9.264253314703254 9.164247189660694 -0.4591059506712223 0.4198223225802512 -0.35945384879452286
Ni 4.6242636601374905 7.790153661309811 8.651680566990297 1.805320139301549 0.7631337572869568 1.1896381198730739
Ni 9.11698894314022 6.110990773745446 0.6996546252277581 -0.9763589419968216 -0.4814773763878869 0.9634219222201794
Ni 4.8760382308742924 4.811379661497988 12.024586252205587 0.6320602036761824 0.9202523288112409 1.6425451408224356
Ni 4.5006302784215695 4.701307033434458 2.866008820180011 -1.4276880769361024 1.5090899743533621 -0.3011229742641136
Ni 0.9494487472893792 5.49435446640396 10.660338036330895 -0.45741210790856707 0.6230544006331463 0.1694549816024501
Ni 2.2486958750960633 2.5660529757126707 0.6284956670566219 -1.1820291971775643 -0.5200701490594204 1.116001725333846
Ni 8.064933915290348 5.166852466117601 11.770188193614905 0.36024651989914735 0.2924290460345415 0.2603879584385967
Ni 6.4325756936356475 9.06345523154344 1.2472580168495964 0.28762442555704654 0.1884070972249207 0.5107447578934365
Ni 3.012969871375735 2.125650468246006 12.05189255161107 0.48714665885852226 -0.14613713281211607 -0.6007608793422686
P 8.995464804593905 8.733022689862139 8.641217414258229 0.9470128847345369 3.235039130624751 0.10331103878552529
P 2.826815162256253 7.4540186967230655 9.67341195775002 -0.28375980039531773 -0.37509746886905077 0.7931832683741694
P 5.198929761577526 0.7664625693914995 5.085421680369161 1.312611670084533 0.060091051754625535 -0.2750918403076746
P 7.2125476855404544 4.407216938224192 4.71965651571661 -1.2246586018123167 1.3325042952434019 -1.3546571771913571
P 3.690718233029581 5.945723171765711 4.537913484677986 -0.09180792324193221 -1.2923007264413229 -0.780781809386023
P 2.9707383433116794 3.499038426757852 6.674344425424941 1.416999743984321 0.17730841620859786 2.459621927984751
P 7.2837673077850535 1.8040375495526677 1.2186740387276553 -0.13485590347134196 1.4745181499157638 -1.0832738960835215
P 0.3001677020777391 1.7388190041136355 12.016103548148699 -0.9056595185987305 1.5156663420192995 0.6103189553443489
Ni 8.71773534334967 5.220656832811365 8.898552547297916 0.5856391932094818 -0.991001631610661 1.0260488530227814
Ni 3.1929461779364523 2.732944508274315 8.975265534717876 -1.3443845916207555 0.6254105595701487 -1.8214692382575857
Ni 4.746030454977653 8.320861641825713 13.519175429734238 -0.89746027061739 -0.5132999202151224 1.445848292784897
Ni 8.14520648388238 2.371778613683636 8.57111587755221 -0.8522399653270097 0.48180802025442826 0.11706464092619194
Ni 3.0684261674545454 0.3922314999639424 4.171984060380369 -0.9825547863948885 1.347740395466866 0.44566576600591634
Ni 3.6113229602691566 1.2207198179434875 6.509158019974302 0.6666178870463939 0.542613324467259 2.279599712389416
Ni 5.180637210195084 1.8201741930936073 0.3395760174922086 -0.4118943259824261 -0.8876106315168197 -0.029743292700703614
Ni 2.0224095481477558 5.195504574660507 5.849285027536165 1.1031230695989647 -0.6079759090334691 0.5119110102873958
Ni 0.7860411991313394 9.01343070327309 12.25647327307461 -0.48382119402971513 0.9094007308087177 -0.7604053026122001
Ni 1.6846039883072046 8.174250575669195 0.7155094141504581 0.2426458039638273 -0.02512764830556317 0.7985177932132054
Ni 4.559549093154914 7.148337097014333 11.483061400744658 0.7261414963333236 0.5348899876810723 -2.0892162081644146
Ni 8.398427659447893 6.518046706676668 3.844944040345761 1.0958476189834738 2.2669162033844765 -0.3774970794494789
Ni 8.852418919370086 3.425233581690327 -0.01346555772172805 1.1217805367991518 -0.37638816265601627 -0.31298450158839003
Ni 8.889554665263319 8.536573754122845 2.100915392261881 -0.45677910231025853 -1.5428619285974847 -1.8173752706938702
Ni 1.809161330526627 2.5236907865673115 5.2669043225386165 -1.836635404475063 -1.2323120045925164 -0.8878931957542452
Ni 3.2426347205691672 5.447857787328795 10.620506938989067 -0.39202612630358935 -0.9566591495750492 -1.5688436973732272
Ni 2.4418969496715364 5.439766133222378 0.8622492748014049 -1.4495054299215102 0.696108183196027 0.47368719091950673
Ni 3.0469604183833128 7.290552351078438 7.21928419757507 -1.2890973890126767 -3.037869713826168 0.3716197947330955
Ni 4.714914451758744 0.29344425615125386 11.589989763215971 1.7639019813660781 1.0673937345181552 -0.11039519932581633
Ni 0.16437257357280746 4.45539354548754 4.498546234174784 -0.7664558796816542 0.3735301243819309 -0.6746376720270768
Ni 8.838344854326861 8.792538812395726 6.433865505166796 -0.6962938168442718 -1.5205295836488717 -0.5411303121638293
Ni 0.8933550117924968 3.5639769841655204 7.653880686564686 0.9555502327815868 0.9206158827982468 0.7863798722990909
Ni 6.205001421743066 8.636249493288394 6.852166690731033 -1.007647467697458 1.018934353465187 -0.21090476410680448
Ni 5.924640073004009 3.0662702596130433 2.9343884304931414 0.9961525796839812 -1.7149278654602207 -0.1335389844321313
P 4.753748791708918 1.4270709970586852 8.656871545091784 1.8631936145795653 -2.8351891374013687 0.69133955816279
P 1.5287533171156766 7.553881094576191 3.1554987120349685 -0.37406928471485257 1.5251526842431797 -1.405339019816941
P 2.455429704520792 8.905504650116683 6.256508019992769 -3.1438901811230564 0.7964053748558929 -1.375627094574805
P 6.6051416502996005 5.467363620180479 10.149137755253554 0.09976317353326689 -0.8816724116555138 0.26439373716388015
P 9.018787807606518 1.8587938755530686 4.791300786475445 1.0899621067369745 -0.2533325942537121 0.23264884065211547
P 4.42592947165368 6.096515392523931 0.468453575035576 0.7547977266174356 0.15454284037730803 -0.27411970620239245
P 7.174329319259282 6.999850111047675 1.7471981125989193 0.42556848103540906 0.17177745908803965 0.3492375703831534
P 5.330038823730864 2.779702509512087 11.923928688343386 0.708552836717283 -2.0056039333593976 1.2430401896432979
