# total energy = -340857.1345446021 ev
CRYSTAL
PRIMVEC
9.32769414478157 0.00000000000000 0.00000000000000

0.00000000000000 9.32769414478157 0.00000000000000

0.00000000000000 0.00000000000000 13.65202323865626

PRIMCOORD
 96 1
Ni 8.046842988568853 5.805454101694806 9.973977202861688 -1.1115562879679823 -0.8343036925635631 -1.018150167000995
Ni 6.4780274730151595 8.21175661737329 1.7031035268550976 -0.8482745529213586 -0.015924384539740318 -0.28509985936298
Ni 8.688718919142863 1.1686294625787659 9.538354307851074 1.6018258087262027 0.1789816901459627 1.1954637254159153
Ni 2.6439628294968225 6.852898164645334 5.896267597095095 0.65989188117647 0.9149093193317727 0.3714619289989925
Ni 2.3939713042938986 8.96658159382925 3.6029738245397596 -0.17713126720078526 0.541505436115061 0.6728394424760735
Ni 1.1808953801057924 7.35252676268158 10.787269097683549 1.3824405179522126 3.6866508298014575 1.7684716030146317
Ni 8.437831935321995 8.50379738684377 10.644974193906705 -0.47322182124731405 -0.7963614089918348 1.6278032066265706
Ni 8.915587091076205 7.2808900732461685 3.3757353431571224 2.1881322032060377 0.3002673111320377 -1.4596278630674926
Ni 7.399174560060029 4.038098620694143 12.4578124433131 -0.7179391630281894 0.9883847628131042 -0.5967905818406108
Ni 2.678717817105721 9.03674450762263 8.514684671206922 -0.33923237954132546 0.07970085556575306 1.670224609015575
Ni 0.3807937772801074 8.20486345155392 5.516004565599998 3.835124066945918 0.9431654859639885 0.06417036403032175
Ni 4.310187452833589 5.315386389943885 7.146396852678152 -1.9927697577092067 -0.19853827212165162 -0.26597907937312903
Ni 1.9347969148619997 2.221642158809625 9.378011249075719 -0.1889493428816359 -0.4137882005710293 0.1767653992209343
Ni 2.4059667186967553 4.809247061539684 9.183005546861443 0.29068095299518326 -0.8370079788686037 -2.316444906242223
Ni 0.2636192860447383 3.0204099014023336 5.715856004814495 0.1365867701195196 1.1959103260350308 -1.4460038445261547
Ni 5.019875718328878 8.260027433496761 12.43422177257728 1.2730413639910783 1.5984710333213568 -1.147418034861598
Ni 5.884898070955404 5.603882635718342 0.24622220408302142 1.012195492079457 2.3514368489363764 -1.3381450384689468
Ni 1.3207548229957085 5.15275804615399 6.862039304703498 1.2898406949366044 -0.23483582100110525 -1.67346188500595
Ni 5.518944654728909 2.452763759178195 6.6876888479430985 0.22183915163112117 1.0444664362980205 -0.8058546931942507
Ni 3.456171779052607 7.052053757892139 2.425336607926127 -0.07695748849266101 -0.5621393103153287 -1.2369124794790052
Ni 1.496833701442617 5.100989344804183 0.3086860393008826 1.2063052961161094 0.28198085411802404 -4.797066319296777
Ni 7.686523499480247 4.400759360960912 3.8402461062903233 0.4197909551216835 0.7190511651454455 -0.5844803970146901
Ni 7.313163894267851 4.150935734248852 6.148202080945076 0.22160132458870224 -0.3929802626867425 0.613386281415763
Ni 3.080181764150004 0.49091559912978455 1.371127168563163 -0.6995681167201694 -0.6190403943777468 1.5477189995794698
P 4.648959968927951 5.629225980144907 3.5818540599278252 0.22236674199981707 -0.17031167317579055 -0.07653711312579077
P 1.8753142106263725 6.937677574837841 3.952069299514091 -2.0822351488608914 -1.4394866122329275 -1.1481731678600677
P 1.3135724986642936 0.40394977747846783 10.736537635899522 -0.3368289123061554 0.8131427422152318 -0.18999295365480182
P 0.7124529939781872 5.70049888951678 9.915327461694625 0.6419154992037073 -3.2169177384336916 -0.453330995860658
P 8.237006684860486 5.6064197684691806 7.539043330643882 0.08823871783343512 0.10443795330111691 0.1979867704935558
P 4.537979066466685 8.20241959574245 0.7736967668291016 -0.9249366216607877 -0.3102082243948335 1.0101275538068346
P 3.8060442509318824 2.4730514934909578 1.837412059083163 0.22329799556483482 -0.45248047493490456 1.0159387611719728
P 6.142995362189497 0.7216510329693668 2.665489281564406 0.13176903701590212 0.46341486245922126 -0.6833729950175456
Ni 9.098866949242401 3.7963714323193147 10.87565179604388 1.7642452236381099 0.5937967893196097 -0.9478942588982255
Ni 4.098700648202199 6.182955203015187 12.558141119298423 -0.7918303538907009 -1.0622754394549834 -0.01217057392426291
Ni 5.5869155604471175 3.8772798495280067 1.5267466831288694 0.9900786055757594 -2.372059410282734 2.070315771715486
Ni 4.318097337292082 0.5935444844399479 7.185414596416217 1.0662470225082217 -0.17490160653931813 1.117484223416643
Ni 1.349325549524441 8.186665120683022 1.5674023699222528 0.3165537069968871 -4.691782473055597 1.0783726021271622
Ni 3.491924829912754 4.488449011661732 1.4636746822663222 -1.7916282436367532 2.034782354695567 0.5043265130719186
Ni 1.3704341209036512 1.7607794567751467 2.9275265907174455 -0.5821849161122941 1.0350065764367014 -0.5356122105590775
Ni 6.114182115618405 5.331168848085125 8.3768810520607 3.1452104425963765 -0.45133402003528716 -0.1731781960903082
Ni 8.635644340641887 1.788221532337514 11.84824951007531 -0.24784611721784414 -1.2688304112335247 1.1508116339241792
Ni 5.693829588351894 2.9567204072011632 10.59440689953597 1.0568082456928252 1.1961201280529916 0.5057452477963161
Ni 2.4151544972246044 0.3851647346589399 12.749911044485987 -0.006114854648486242 -1.0114077060708386 -0.7751665200817747
Ni 5.325385677844245 8.945874113289326 9.887177414162448 0.1891717433050871 0.3701321544439754 -0.9815245453581612
Ni 7.289770037874099 0.047084333454696405 13.370026397874597 -0.33751462551927036 1.0092652058065392 -0.4993378016080755
Ni 8.693830495420285 3.082578981491788 1.973290442200809 0.6909119837070682 0.9263026487703789 -0.5319175353163097
Ni 0.33378219983811885 8.634935435902682 13.184045239544272 -0.8885377713167794 -0.6101225230628265 -1.6903854002341663
Ni 2.062194558652214 2.6887823988636392 0.4757497015577748 -0.5375911886623194 -0.42919425071345435 0.22099711534580005
Ni 6.66747293687365 1.4591125071617834 8.637785046400406 -1.0990435002129522 -0.027335197479843247 -1.0668550884058658
Ni 1.2328599630282764 7.077760882382242 8.192646970804757 -0.3277053527383324 0.5194001195755894 -0.3026111287738659
Ni 4.449188747881309 2.528691187824581 8.807889536880728 -1.8076259046165901 0.32847308414229237 -0.8444587787196941
Ni 5.761725872518607 8.694231586259571 5.842696785276677 2.248646972761643 1.5344521072672348 -0.9594143437226832
Ni 6.6456274776734245 6.689159825276948 3.430821905240287 1.2368623429673602 -2.462208971985637 -1.151920550717642
Ni 4.951447755607761 3.6239116991199247 4.338544575171166 0.8199929323678459 -0.04653233923358437 0.2630382515772502
Ni 9.29512162967483 1.8872536588656077 7.519779777125391 -1.1752191162342662 -2.4978848281206916 0.2680156501871836
Ni 2.2940530468417992 1.757123000751881 7.01812240565787 -0.40452400166028396 0.4681585477917937 -0.25772249579129164
P 7.725140152379024 7.843331362253515 4.942606034524971 -3.231348054926409 0.8385089888941624 0.048233123974775
P 7.440328345709643 5.020873781580126 1.5701736277909064 1.697702759831186 0.3733835715017376 1.6234063631104556
P 7.460821289289018 1.8487116275183266 6.25851045667349 1.5085047912738536 -0.023211662229772927 -1.0721209647904955
P 0.9281363281117899 9.267548966397346 7.242875989375715 -0.3900947136088314 -0.040746071569110476 0.71414164365897
P 7.066110592655052 8.482362346176767 8.98685347106232 1.2645572377794674 -0.03723574442300684 -0.6251642478872975
P 3.3732672353414177 9.251010965047218 5.4686730482559724 0.7313878323339276 -0.5404875363735079 -0.07773961807432418
P 5.11966338806586 4.0755306564629326 12.464611399423708 -0.5932645709652234 0.6300483154524762 -0.08944739342955564
P 0.09452032097081403 3.3985639412982973 13.277438775087507 -0.08104245719531204 0.3352119455280227 -0.6323764493650206
Ni 5.9147093807777456 6.001886008312035 5.580483182708229 -0.08337213376975319 0.0816104138836401 -0.4985330463185931
Ni 3.941566316141139 2.105577663152747 12.35501286120389 0.4118986968578003 4.180871364787625 1.9978960231921785
Ni 7.064384969276725 2.514895528491903 0.38244477910693914 0.3086866455439845 -1.7021510254105265 0.2627891116809216
Ni 8.972803165685164 5.9430655703459285 12.241522809073597 0.6459773279779069 0.5775232489705666 0.49288227579071886
Ni 7.886695811366175 8.206570419544372 7.031461007987639 0.4547651572040233 0.04748544717547305 1.3955847686436547
Ni 4.47833779143413 5.286004154042643 9.82598867470576 -0.004131762780186433 -0.33876495298660364 1.618544149922148
Ni 9.305941754641637 0.772879660840229 4.544990693999054 -0.10437650393556218 1.2700581129930384 -0.12256988701513728
Ni 8.961218169815531 6.235330204470895 5.601152419703012 -1.0442098402025242 -3.7840401037859093 0.22617685977452662
Ni 4.950197844620217 1.167276946957915 0.3987971593477229 3.0859277456756593 -0.9685684994181254 1.1339356841044472
Ni 3.6733578046794446 7.447893105492471 10.540781054323324 -0.6813788474056524 -0.19679326440608688 -0.26742635334261683
Ni 5.026265188675657 8.011491028547994 3.941107393599444 -2.091807365930359 0.7101083541298608 -0.9631159609439865
Ni 0.37737611022162637 3.8900681179155003 8.269699319339935 -1.843760188445302 -0.06675766514152374 2.0273739780466373
Ni 7.447193528447203 2.003915126934447 3.870512607576784 -1.1299558735210926 0.41489917424702094 1.0135008411544417
Ni 6.201573280113244 6.926969382198277 10.496958615438363 -0.5505960855624196 0.26571656974036173 1.1571465750032717
Ni 3.902912352466615 0.9389349993825419 10.621847109559548 -2.8976119226129646 -0.04345755696300258 -1.7043608885776518
Ni 2.486082281920811 4.765574798527105 11.442429529962492 -0.3053115584241645 0.5295022410065977 0.6619744747371116
Ni 8.41240464165 7.117627446268564 1.0791750121850836 -0.012148976657708109 -1.3810019857334732 -0.9310244797260805
Ni 1.8824685518759767 2.501930033919608 11.74841240356046 -2.446003308760052 0.021386178985259945 -0.6598191189570055
Ni 2.6486919703228318 4.288174095142499 4.550574251589684 -0.499384595685611 1.1353675314549674 0.4215189935563837
Ni 8.253880483192342 0.5952421247364641 2.0509434942255225 0.6969211660156255 -0.32649076360494095 -0.2686910789876534
Ni 5.105849073345309 7.512944443008428 7.438113951169022 2.1747820071513773 -0.22175713344027617 1.7561997276258143
Ni 2.874077038920207 1.8959097588390532 4.621932975745776 -0.30081675587760454 0.6966427155432582 0.590682412060344
Ni 4.988795842131119 1.1079155027434675 4.348360107500969 0.6481576234586773 0.4888273889950549 0.34669680623917065
Ni 0.8060582681737911 5.285201972364069 2.1571560795462434 -1.4559447577889508 0.9837719466314413 4.647716335974318
P 0.6030167576328723 3.7597695613109092 3.7857061470718607 -0.034834076960049684 -0.21807094283794057 -1.0471982334068868
P 2.1212668443546177 7.080857676769294 12.775385909397063 -0.9739917273162257 -0.5820617602708685 0.6443804158044322
P 3.456647491443389 6.962265376055516 8.352267133300002 -2.3854062639032856 -1.0546264075501581 1.9390856379221892
P 0.9158825365868811 0.6984437304543534 1.1434754703391208 -0.9439895245271807 2.908783622959068 -1.723068235179168
P 7.591464970569274 3.3120122692577794 9.44180707898777 -0.20774539254221644 -0.017424623234350636 -0.03981790332788627
P 3.628314370658143 3.4465642542975976 6.660917433574795 -1.5137441852959221 -0.7998791923371062 -1.1015706375101801
P 7.365529568029622 7.4407294365489305 12.533130773545405 0.08897225356534999 -0.7197402207926702 -0.5261443802779584
P 5.819912027297005 1.2465623454215862 11.871293577946426 1.4833835707261935 -2.048013765784176 0.7718690802774256
