# total energy = -340897.79814629065 ev
CRYSTAL
PRIMVEC
9.03064146069958 0.00000000000000 0.00000000000000

0.00000000000000 9.03064146069958 0.00000000000000

0.00000000000000 0.00000000000000 13.21725660896963

PRIMCOORD
 96 1
Ni 6.418266464664132 2.037980960386162 11.394834381790483 0.044689115377258525 -0.4413936209931236 0.0825583796192062
Ni 4.485600843927302 0.36463472189083473 6.0167198992402255 0.4867926179532132 -0.7793551042418255 -0.23949748814283273
Ni 2.7956788631985376 1.504152657119914 4.739575892606425 -0.4327955949114675 -0.09964773100132515 0.2339271931439068
Ni 3.4668812829753017 4.4327806225579875 5.046216738687446 0.15633001418471787 0.6548543187525626 -1.13147822370289
Ni 5.151998962495573 4.4661217504936195 2.6436227299497355 0.2873516315116342 0.10555792583817306 0.00874380763090107
Ni 7.228459485756525 6.041535198659056 2.741034452272615 -0.00505273193255904 -0.5956994056589611 -1.4964404039101518
Ni 5.242675632485193 4.52992323176806 11.588864033059878 -0.31497145011143174 -0.564823284905395 -0.5154694170626155
Ni 5.63558980782414 7.903508958756631 12.565487259268663 -0.7214080954133962 -0.2717293515933449 -0.7223864001662657
Ni 2.0249858674556704 6.230113051733773 0.3399693311187355 -0.005670825132532169 0.4536467273288639 -0.3120463060448368
Ni 2.7587074174324284 1.7121915423455758 0.5869230561331903 -0.032915519781098156 -1.0070622846179496 -0.4226325383355367
Ni 0.47558518175464 0.19959523554532177 4.972477036586037 0.0950472561148363 -0.8453226693818862 0.1320675420929274
Ni 8.730282237403149 2.235047616348066 1.2838176506057484 -0.2410689463950106 0.23114757351624063 0.8458592586116466
Ni 7.013593435655636 0.596642735439019 4.9544618101183255 -1.446332431510167 0.0407319305017234 -1.1010088514694394
Ni 0.5678855610624685 7.038806986358855 2.238884735865902 0.14998170336918687 0.7644329357143546 -0.16674041088476446
Ni 7.63788167351864 3.8188505303456264 3.8231446003167515 0.25629579064709407 -0.1311116059375613 -0.07138925037626415
Ni 7.639434943834167 3.8431971394773874 12.61480088259426 0.38656098942396006 0.2063405417748898 -0.15208846529954453
Ni 7.8481782190866385 8.75060118048418 7.026518089583447 -0.33318694467819393 0.20794876680227412 0.5729860232218454
Ni 6.7592815440534375 0.7366258042411401 0.4424228605181216 0.5692332410476326 -0.09387200485981252 -0.015651333384011756
Ni 1.8173352998088905 6.513937079331001 9.25781618363496 -0.25376633935702103 0.36352570487105135 -0.5392855456456067
Ni 0.11387277541092614 4.90812649231634 1.2223018246618893 -0.6691882188767314 -0.660311742322708 0.32932231951646507
Ni 6.318920378959938 1.9383549247995184 6.74247913272163 0.1308984614854907 0.19100134031465815 1.5272381060172988
Ni 3.5941139892280405 4.227026489598771 0.6474527360395167 -0.5171205795127932 0.36172696109941577 -0.21832008273426917
Ni 5.869492449931613 5.616390664272907 4.816064521940662 0.28812501934254897 -0.2857781163769272 0.06403563822467036
Ni 5.401750380206251 2.8466387724457665 9.185319097785975 -0.40095993845810945 0.7997107850800421 0.435399865303534
P 0.13912877012858071 5.650869653021076 12.383696836247145 0.5071403283716297 -0.07918972025728943 -0.5482314419849849
P 4.131897713414062 6.038690546627711 12.70541795035084 -0.8284143236623218 0.8612581096652199 -0.9127791603626473
P 2.1991327556221707 8.348891160451489 1.5717695843729045 1.066783611737982 -0.21472208097036571 -0.8112619802527513
P 6.264926174212609 7.749392033147345 5.772213478036864 -0.6485566586693088 -0.7085199265968185 0.5792386889997767
P 4.731595514828332 1.1589383294938613 12.66046612680664 0.07592647612498536 -1.1417065862991176 0.2553437111464699
P 3.8199071153858397 6.113915789234377 8.299802400095988 0.12618408672895687 0.35582602223394844 -1.1366782798465909
P 4.736444969243672 1.0059953872625895 3.6699957594622585 -0.18133759197264898 -0.1414338137991758 0.5735673496466123
P 0.19770692843499119 5.481165840408296 3.6516771034445363 -0.3741613302080266 -0.2940650389760677 0.0729941329695388
Ni 1.404508560250532 0.9596230438309893 2.7627368896114315 -0.006034893340170252 0.6864333791104243 -0.5498095851053822
Ni 1.7733560763401675 6.526074261331404 4.688015445708134 0.2096402955720841 0.4797485666222382 -0.10888596177014151
Ni 5.749168184326425 5.431063842091155 9.216750245071989 0.24984643547732455 0.29723135251919136 0.18801808931661815
Ni 8.73341586995831 2.2276063678597238 10.11755852779269 -0.2673476775858815 0.5882835728108642 0.06806147155461181
Ni 2.1294884493817614 5.4233607050031 6.819126701343968 0.07648106307687473 -0.5170709572217805 1.402650160130868
Ni 0.7687974641194412 0.11551996439669514 9.039242152187818 -0.8896551727506743 -0.6269383090685848 0.1391121076445346
Ni 1.4297130803123812 1.1164672231338193 11.43563662562547 0.3011000914459782 0.6296063428190511 -0.12028031965001221
Ni 4.0679878644431895 6.863522237379817 1.6344061129106997 0.3970711449266645 -0.03726582632999389 -0.9105538705765543
Ni 5.526057158655322 7.771733839895111 7.9724904159205305 -0.2947060149941763 0.575644543890615 0.6533689924562877
Ni 5.108624791998596 2.8035445518312394 4.772817683486993 0.8796687509619238 0.16767886353863382 -0.11769327564912634
Ni 0.7241581007666187 7.4644211140962105 6.913114004459589 0.13343871140884117 -0.11561119630911704 0.25937314402083717
Ni 5.076656321551106 4.516648188955119 6.961780130799005 -0.09376556118893528 0.4806093719606368 0.38817101422355726
Ni 8.065708308391484 7.222481201170017 9.106332593048975 -0.15179175999473213 0.5514980285513985 0.19088924021682607
Ni 4.579185380437852 0.4921031278833138 10.480227279057418 0.17839753550771859 -0.7683723799780767 0.1955290529816826
Ni 8.017574989892863 7.292568008837525 4.5280999452755895 0.7273108340510764 -0.04319350466833852 1.0811049134566608
Ni 6.953873804280141 6.09048127488092 7.068007565226641 1.153386079519575 -0.3501454269094034 -0.336642250216646
Ni 2.17865126099649 5.0697207889794464 2.630643892173709 0.7381578040679093 0.6176360578310525 0.1967197308556741
Ni 2.5541182372098574 5.258443132316073 11.201347472067388 -0.482425342123453 -0.9575281824435637 0.9007661950621713
Ni 1.1241793908632423 3.2922106176093795 3.946685580377701 -0.31016760096488516 -0.3230915081154048 -0.015593226452566692
Ni 3.5267995884609236 2.750805606234249 2.734729258468536 -0.05824577101577065 -0.2247434697621097 0.09843802696394015
Ni 1.1431527683802416 3.2697514125238114 8.137375478298628 -0.8417089838886987 0.6031201236030644 -0.11479718504825391
Ni 3.7723246660107472 2.6175855847536327 6.942113200024839 -0.0203713645675004 -0.5474274580264508 0.34046908016190397
Ni 4.006723993393535 6.928262905356671 5.845265948330064 0.27643858414355615 -0.0007949850974695986 0.4316774221466243
Ni 1.058580811956301 7.508463552054518 11.565337406164451 -0.9291293195858965 -0.6616188911699057 -0.030924714603314488
P 0.027186745842421103 5.650147201711528 8.037717835467191 0.6947431845277002 -0.4507346958883915 -0.8844970255885025
P 8.482047967442519 1.6365508902359198 7.897548735452862 0.33418633247698576 -0.10254767825693953 0.4949700115576831
P 1.853584294265452 3.2273164287292473 10.411008316025507 -0.19304022512155788 0.009721855273454226 0.03992229011623447
P 3.9394366845505258 6.120508157434001 3.650923044890196 0.11144935162194355 -0.6828124945283853 0.9895096204461669
P 7.081133602456988 3.8928114831605836 10.39200152513544 -0.7835478021669345 0.3476134045161691 -0.8486224231790803
P 6.209279362094689 7.760282986638778 10.2751748269326 0.17739351972323644 0.07614244879053339 -0.2440372849947152
P 2.3326959414748223 8.450386538801586 5.787003862471581 0.8786796475757771 0.2733419474961034 -0.012239479488985374
P 7.136816537140385 4.005297152057178 1.6226166106030164 -1.0558764779071752 -0.21328457719289073 0.16583024036566923
Ni 5.530139008554268 2.9151813404391147 0.4924986699752912 -0.17065671522003512 0.09618188393991177 0.18340475891432284
Ni 1.5912622237686413 1.1505849862272148 7.030602648674804 -0.07547627596144421 0.14520227970267252 -0.6928860767143035
Ni 6.804579241162085 0.8794183055732652 9.118796684266947 0.022524920575393462 -1.0781034076261755 0.10862036681358067
Ni 2.8563105893523377 1.6550366131189744 9.185557506718125 -0.14057635089488693 -0.4056928251574046 0.26718364120419147
Ni 6.507904610896277 1.921512778645685 2.7029820387345946 -0.1704530838496613 0.15479352293553342 -0.4871371457768256
Ni 4.1107750432511585 6.947480110190642 10.3978172581773 0.4092021238622437 0.5699181829297992 0.2999726627097543
Ni 7.960645826700494 7.346535121660746 0.09851707282648739 0.9571756842001514 -0.12597248493878305 -0.011203324914987158
Ni 7.528827648342398 3.8302652610364816 8.134230105909683 0.7347014700881928 -0.11805554408455152 -0.12227241037937653
Ni 3.1820006703378607 8.416386174045993 12.545886252176494 -0.024027216152532817 0.110408569062255 0.4130153269607468
Ni 0.13184375173592797 4.792877447160725 10.049080077353063 0.19175390220996652 -0.26235870901172237 0.9426312107270732
Ni 8.56096674236925 2.39584721657067 5.832933704476083 1.13497286711971 0.5453600339744609 0.08408741466922293
Ni 3.608337249384763 2.745712324501937 11.730632459660717 -0.2992026173129492 0.3053838064229967 -0.8543395281685157
Ni 1.0582105556601578 3.312981092758879 12.687033370651124 0.31745076488985974 0.5075113385578034 -1.3878539756583002
Ni 3.1056465975600265 8.35383995192189 8.036924945154963 0.038080351811489256 -0.08038811144076478 0.11440534892647394
Ni 5.594690033062365 7.79263977466515 3.5842028603251816 0.2448338127540816 0.6025647653202267 0.13957310644135318
Ni 3.2191436982899875 8.237118912223073 3.5043178067719323 -0.628552190522924 0.788551683139429 0.9426417522500347
Ni 3.3134958393169316 4.107930391219814 8.971741720208492 0.217745955398354 0.7048352786563797 0.17319567959180493
Ni 7.263796385434783 5.978248463942667 11.226869870705437 0.11798098209287423 0.567460722528242 0.3945915730379204
Ni 0.733428957196391 0.060436664300222216 0.21805296344013145 -0.6691162279882154 -0.20126235592103406 0.6251166824788137
Ni 4.566298655203793 0.32335024180672506 1.617210868679325 -0.003334206579555548 -0.25568386809470806 -0.4266519439075749
Ni 6.054277433631205 5.627678965984591 0.4148107714672042 0.43716904138881485 0.23863591147348578 0.6309199194241522
Ni 7.986139327286162 8.78881885475926 11.086529188505091 0.1159608663390519 0.39700378202383885 0.6820167380999673
Ni -0.14459230815703603 5.075924839600188 5.7698483530622315 -0.07837982276148436 -0.6361662554247559 0.5033129842057397
Ni 8.11478081359252 8.815856595019085 2.5929743778297496 -0.5448720385944487 0.10602226706910127 -0.6341499963256756
P 8.451695981800142 1.5910274270930385 3.6893854495463843 0.8046053941681821 1.3302584366320187 -0.591900086517529
P 1.6922880087675336 3.2878217259038767 1.5468820398231193 0.32715873620624303 -0.5182937738852881 0.6348776185203194
P 4.791965352382421 1.0380451334824043 8.174331571974408 -0.28061662678064575 -0.7625974251675124 -0.24097175869551402
P 8.364812181185648 1.599434954207901 12.394931857174752 0.5913989785113944 -0.23215236063167116 -0.27725645205916116
P 6.4039438674523455 7.7691962296703245 1.5211347782149722 -0.2561394675748879 -0.11149383170663378 -0.23362611696372024
P 1.97390855987064 3.2691192676279575 6.015979386647938 -1.4734174606524173 -0.38060631450242194 0.23294477462597946
P 6.9315410281737435 3.8776580669428182 5.916162804528402 -1.2617884167850786 1.1122959943474844 0.08429490269433869
P 2.426018589385661 8.56275480936038 10.31026609316561 1.0538859298397074 -0.11665429286165072 -0.6264577698877405
