# total energy = -340864.45288901095 ev
CRYSTAL
PRIMVEC
9.31257148267769 0.00000000000000 0.00000000000000

0.00000000000000 9.31257148267769 0.00000000000000

0.00000000000000 0.00000000000000 13.62988969405274

PRIMCOORD
 96 1
Ni 4.4445272533918345 4.0330605880580555 4.156298504853605 0.6070287146288513 0.7125532161259277 -0.8689976444013228
Ni 8.637242569642954 8.01772374130397 3.3920846634037636 -1.1746750708053384 0.9756863414098295 -0.0239012320976298
Ni 5.043148670971063 1.52300590369098 4.613349277107136 1.9729884613172215 -0.5724319504905883 0.21871757528300395
Ni 9.176608093878013 5.43463987013743 12.245474814578415 -1.8786359172765645 -2.1493062314777758 -0.8398181946238892
Ni 8.522874877334331 0.9610108303711603 -0.06027655119589489 0.8090269202746453 0.2780010435346696 0.9130774083293565
Ni 6.111021260909151 8.489051617138507 4.094364315905822 -0.12917479392616463 -1.376656564280584 0.4108828539987763
Ni 5.117891370952253 4.0441332357378 1.564561392119346 1.8798129683038014 2.6354838415548096 -1.011671501255187
Ni 5.381614087220299 6.698588655951915 13.129645753835097 -0.4440881371061513 -0.9635000837562825 -0.34338625380869897
Ni 7.1487397438775035 2.6306338619594567 1.0151736782855139 0.2115845637826485 -0.1228182555805175 0.2004714845886225
Ni 6.384196237391613 4.227795773618318 6.063461026287429 0.032071683723564115 0.698953623064622 -1.6743843968202194
Ni 9.609363297980419 9.301927370435061 11.643797010986999 -1.6391607977312352 0.8065771731825722 0.4166986893496049
Ni 5.636927551297587 2.065491139425378 6.7753912967798335 1.8163668840340137 -2.3705128917312206 0.7521824004817755
Ni 8.263892260030955 5.539983680527067 5.143266266156434 1.0890843321177115 0.5214881124528696 -0.22506948564296078
Ni 5.412336261060063 0.7860704470884975 13.570258905887187 -1.6313878386540355 0.869673844532741 -0.3339965850636828
Ni 3.0919041604229895 7.647819083198703 11.664459744941428 0.011828617203811887 -0.25345986386019576 0.977493055601265
Ni 0.6896909181593509 5.157330111846889 0.8656929346089531 0.365792389418041 0.08067684632577718 -0.7429146020266044
Ni 2.2277627002492304 3.2381860357412724 1.871056749929081 0.04225145247004337 -1.5111802812234878 -0.9576395112104475
Ni 2.9667431975838174 5.251359147694145 2.371845877403352 0.4717532071215876 1.7849842559576743 0.5939587688187706
Ni 8.289241080034543 2.7140931289955175 11.729106686007892 -1.4722936314606192 0.6630867339646839 2.060716815173141
Ni 4.0021894130720534 2.0908306468573263 11.33978252226211 0.7650533429071726 -0.3203298862098677 -0.23966615251021303
Ni 1.0494895735210843 6.308838907682195 3.983376155845291 -0.11165863941927222 0.8386941083217748 0.12693999105837495
Ni 0.10946834836891277 4.30037795697907 2.9608343708783518 1.0285065705346546 0.13232053864399793 -0.8502987824402389
Ni 8.424534120817839 7.377233001632112 0.09543057787904903 -0.7829934723253612 -0.2154353049873064 0.9153083545424042
Ni 3.414901395178485 4.608577515398893 13.645428121649479 0.4443071950954928 -0.011519570603825323 0.9075312817001466
P 7.59436492198614 7.609181223465093 7.886677233188431 -0.22431383842385885 0.27725748050042576 1.2654926051095432
P 8.231735950158658 3.135784997989819 6.566704016388793 -0.9914443755750344 0.6305165133381464 -0.29614994652955445
P 6.31838429361301 2.448526523542789 3.0552629160489566 1.5276600240460658 0.8533329412808723 0.4004688577543038
P 3.132516285344242 1.7343826547716001 5.604065348494992 -0.30177474891549966 -0.9870110223940292 0.5657221425705805
P 8.241737652099825 6.136537707202256 2.639087814494085 1.1146747789923062 -1.3923284664898858 -0.48661958271045874
P 2.819828067394027 8.395385771585204 8.82276389682278 0.5779482523231272 1.450031220517993 0.6619852733703889
P 6.522310987381775 0.8815336189682859 11.032973330788113 -0.8324576404937599 1.1780355026371387 0.05465291145818975
P 0.21310423311980667 1.9368193370779936 10.417433764310823 1.1264149502473697 -1.8443952509261399 -1.4177453639010937
Ni 1.8775261934472638 2.7512223521234778 12.642336573809466 -0.8595925490373388 -0.7007701074480706 0.8601815887715895
Ni 6.6995664759740965 8.127947339232872 10.303256048463656 1.563474976862146 -1.2589992840757156 -1.2100976732790063
Ni 2.4720407669333326 1.598474984260076 7.9390976989489745 -0.08681638356461177 -0.40275508268531923 -0.523610301002195
Ni 5.520706657232641 2.908977315702018 12.671026744517421 1.027556033695927 0.2658644081721357 2.5732592883969487
Ni 6.4847999488165815 7.024109597621801 1.5506176786030443 1.8158351799002599 1.7601581980529297 1.7488581996590782
Ni 7.372837467818117 5.077819375186111 0.5626320532199833 1.0094017313844035 0.4351347845676054 1.698103080593398
Ni 1.5257531123247268 0.43121304223885226 5.579913193947121 -1.0648133753854887 -1.8427991100836134 -0.5326330733260956
Ni 1.345852853386696 3.7360174904627366 10.416166323310645 0.11845740750866052 0.850047328551065 -1.0544572289621452
Ni 2.146901640700679 0.1749748397977302 13.00063869890868 -0.372810472607087 1.04448109158604 -2.361827705252397
Ni 1.1290282478967815 7.085162817292456 12.92878196487867 2.7574256080676447 1.0160770865220503 -0.41479324479677593
Ni 4.569185337362456 8.925820539617677 10.334387044198408 -1.056822129649896 1.4836566218819223 -0.2428563773127366
Ni 7.796876104865653 0.8791505318856561 4.522520040875322 -0.4040318925152138 -0.4759083669405417 -0.14607208390213552
Ni 4.025154214735848 3.491255170053364 6.312288284217583 -1.4020048132373852 0.17201477190982634 -0.4968204345028604
Ni 0.26985690720719385 0.3861020139584032 8.930071728571253 0.3433014074043765 0.6040020119873856 -0.02673124534725719
Ni 7.198748253583334 0.6187589224931747 8.508063232141199 -1.3499672279148558 -0.4204183042930372 1.5453453571409708
Ni 0.9313037268401365 2.738361690688887 6.182886376253637 0.6867907624498429 -1.635880070097434 -0.16555873187183745
Ni 6.042080293059568 3.8212275209670836 8.254152241352868 0.3039365324535088 -0.3874241087552037 1.2240258533243242
Ni 3.517339683216498 8.280356886690155 0.5694749308609226 1.0633203357797298 -1.8182293911640492 -0.02823019849028686
Ni 6.556450875013351 5.5040371539973645 10.054565685336607 0.8380518467520857 -0.15151948016995195 1.1985747602410712
Ni 1.4436441681764391 4.7932551235881515 5.806087621363414 -1.1787327858144798 1.499159859723844 0.969077320733744
Ni 3.1036100629742425 6.9033441685966235 7.369163658306209 -0.45544007178386076 -0.3318049767290028 -0.5825430707826613
Ni 4.672620070565931 1.7165211423664264 8.882844884014238 -0.03230642544218952 1.192435737222869 1.8579267097536714
Ni 8.495905669865415 3.1249172268861494 8.770902185360624 0.2631146133411404 -0.05280608805743809 0.37268911653787423
Ni 4.290935009336294 2.391012081095264 2.551951944174623 -1.100134676394602 -2.4635927397070407 -1.1335808718681897
P 4.535119950303997 6.551710776048684 1.5518990884606836 -2.8325846098989858 -0.7350753084878437 -0.2912044295988211
P 4.936920166275645 6.813449914557447 11.04393143383669 0.565443177877581 -0.4825379564419174 -0.48736057464154126
P 8.491333197190263 7.296800320378992 11.372316922542984 0.3740649138394784 0.829028817317869 0.24082494870500457
P 4.707225586779499 5.174372117947759 7.397458975976636 0.6999201007429494 2.2185900054752627 -0.3682765892924754
P 3.6654468225761856 1.9256163133952908 -0.012828067433851188 -1.4147623700133698 0.5735820049346315 0.9038679739159465
P 6.926988787990125 9.272611394912909 1.0834758037206051 1.389011229191195 -0.5920440682945611 1.5153806924580804
P 3.704084682309796 3.510122440195638 9.622429767248248 -0.0263347812397869 -0.8780612972654878 0.27746419719459314
P 0.36129239185276046 2.5079966060346752 1.3688632866515258 -2.2104077267747866 -0.6678232202084047 -0.9580835407264016
Ni 3.2007588103208384 0.7429783843395613 3.5652249265884493 -2.360502301572754 -1.5016301756412074 1.3346804769591143
Ni 8.600206472231392 1.035632466921033 6.879386646796025 0.569729978178393 9.384526538693516e-05 -1.449783109062929
Ni 3.2004608080283643 5.941234454771965 5.06748428318024 1.5286912935240575 0.7331233269677955 -0.12070352323035988
Ni 4.9541577363809495 9.252216863021706 2.1676025561988332 0.6841942053672603 -0.008248870272353536 0.31966808425615273
Ni 2.4051206271295906 6.022989521197939 9.830285434991852 0.4870571844685096 -1.1921601149639791 0.10765183225272427
Ni 2.763179694109006 4.438529957255791 7.9539950198011935 -2.5117379319537 -0.19562984022560503 0.8650036927505813
Ni 0.5448757728743396 7.343055863713976 8.032012019970944 -0.70856697778467 -0.8417004992482665 -0.2688533155971305
Ni 5.950463213267025 6.907069197252552 6.42537549792573 0.3348663892631458 0.023160497276863336 -0.31381393946822084
Ni 4.966021952650079 6.78492550762468 8.884739061085776 -0.10267417653247479 0.5161859835136658 -0.34152863177466986
Ni 6.722661653640848 4.91647907152624 3.6588488655693734 -1.1280167475168508 -0.8477431058979207 -2.0826038450542197
Ni 8.382813799871448 7.986386937735977 5.8374365312745375 0.4913159597448635 0.11754646565861691 0.4319283618151658
Ni 4.341837525919546 4.526645510111762 11.42306112540836 -0.030999019484675646 1.8615933599719812 -0.6980326539122494
Ni 6.276645347523338 3.117038791278862 10.416534169890417 -0.05973881062152937 -0.9295941750374571 0.3591797691975298
Ni 0.6141361619311684 1.8046646329373168 3.4525735412330465 1.1142955412760165 -0.4836728413773089 0.060860325820482286
Ni 2.086332674755294 0.506391570572786 1.5246942729292792 -0.5838286223633042 1.6444580415744323 0.5310536446541176
Ni 4.990085637767373 9.067772069123443 7.944481296613954 -0.188939572689623 -1.3052318326806942 -1.5986643802790856
Ni 8.020014633927365 5.297596065885848 7.476580447142869 0.1120389055768264 0.5445923025705008 0.9997307839535429
Ni 1.5491276671406733 7.289285075065658 1.7716953355608644 -1.0026471862693893 0.3009705078466494 -1.0472735667295126
Ni 6.779552153788504 8.674707045349948 12.674271244476735 1.292917019869083 -1.0445301996564202 -2.087925514377449
Ni 2.246061903521476 1.229222206169598 10.523474155059121 -1.3578006079163456 -1.6675758585388183 -1.5066525685564631
Ni 3.2600426413799286 7.56242280126156 3.3030536847555982 1.2420400305135577 0.5577890037664328 -0.02754731349064933
Ni 4.111099938399741 8.430354478092726 5.588745236890325 -0.47174883624621333 0.6571078906734296 -0.1926000522603457
Ni 1.2588361839842237 7.97024825108417 10.192213875487614 -0.3578857329764546 -0.4696207341596171 0.6589963659453941
Ni 8.143853211593683 3.13314954021575 4.25132584838065 -1.3059018621645253 -0.6275193783830354 2.1338209913579833
P 6.3967868342486485 0.029942711593511234 6.13872523028045 -0.26004754438004246 0.21645808982486592 -0.3076345501303863
P 1.1947470659589867 8.901207412773633 3.215318084822532 1.1616166949594833 0.6022336072330531 1.0776128411430022
P 6.838808047132675 4.4525360650020795 12.390564680726802 0.4115603396817751 0.5600819135656676 -3.1564896150546216
P 2.2137472799313027 3.911866780737446 3.9939123993985826 -0.4685493554723092 0.14780680720505512 0.2948764791337696
P 0.5019718240725278 5.067864236103144 8.663485396523964 1.4077255177712464 -0.11575466386551678 0.3449924219535543
P 2.0053598643470645 4.864654610350646 12.178129090250733 -0.727961837371514 1.9564105023538823 -0.6552605530520458
P 5.304906434623106 6.30805665166445 4.28153024323724 -1.0715805189059933 1.1274863289346775 0.980396345290989
P 1.3653254406855582 7.425472122726376 6.054615014486766 0.6094373240703439 -0.2787371503697458 -1.7359697737321846
