# total energy = -340862.0468879739 ev
CRYSTAL
PRIMVEC
9.30048977660428 0.00000000000000 0.00000000000000
0.00000000000000 9.30048977660428 0.00000000000000
0.00000000000000 0.00000000000000 13.61220689597401
PRIMCOORD
 96 1
Ni 0.19103020439879687 6.510026779822989 4.366959512632771 -0.5165302542269621 -1.1378175356573563 0.05351108454426269
Ni 0.8885920653449425 8.434549273013275 10.622408630068294 -1.617348329841834 1.542142533932957 -1.083183393252244
Ni 3.0755604354584434 2.2287415209259334 13.490758798683684 2.0100465425117835 -0.9666576555486578 2.0945939275365606
Ni 0.12328171507939766 0.6278035357388322 9.198979796925295 -2.173197693383393 0.05694659258837289 1.2632014950825212
Ni 6.800136964236259 0.5640300758432856 1.4249671341881684 0.4538585862293539 0.07071382157579434 1.2563160808165976
Ni 5.089962863960172 8.914873078803783 0.3628660575459634 -3.85794594993644 -2.1149928029078864 -0.7009562553169476
Ni 4.995479186101217 1.8708772668992677 3.3480043391262573 -0.7649636114068439 -2.0339048371866197 0.4015798314302955
Ni 1.940891355581443 2.0559663182892742 8.550425937958673 1.5522847645732816 0.10778141585205309 0.5299023046584939
Ni 5.682245968310195 3.0991464780857014 1.3773235140909075 -0.1986100058998515 -1.9926633140383294 -1.9721453965906357
Ni 3.1445328692611816 8.841092291673643 4.718658471841768 -1.2622406738311487 0.04331486073755121 2.5518121742667668
Ni 3.8993513367633943 7.821693484794368 9.819546621399036 -0.7639565102985681 0.3393930734889058 -0.2920652349372196
Ni 7.437676252901832 4.348890520670533 0.30167069347702385 -0.4599528720525498 -1.5682937384070281 0.819273280593002
Ni 8.297925074987086 7.873078692016608 8.281381363384025 1.584169271986704 -0.13610545960772688 0.7942950133811094
Ni 3.683617170839944 5.112888571797787 10.814300059840626 -0.8904946379328342 2.211988183888029 0.8160056655853237
Ni 1.0979786468468222 7.590790219689112 6.281393764325507 -1.2581528769150203 1.1144490361347452 -0.549519564668789
Ni 6.7186739723702695 8.442649999798899 12.357855881856729 -0.3165272246343258 -0.39690942253781963 -0.14014389134315866
Ni 3.7677122013745117 9.148454885027592 2.7337804488290884 1.0679298095272836 -0.11544073216952376 -2.6385529673984367
Ni 9.326066342461639 1.7496360793247678 7.355219968704379 -0.9875707515522412 0.998677402988364 -2.451984980264784
Ni 0.6461645630869127 1.261471960468496 13.621054943317292 0.3939439121515925 0.7932362330992919 0.473785664170584
Ni 5.910656702096796 6.793003488410113 10.464888091121395 0.8025657380303339 -1.0661482921468284 -0.21913820776019033
Ni 7.166920388168106 3.0769648094476847 6.659472633356252 -0.8743655935814555 -3.0062744555183905 -1.152196430086848
Ni 8.99347151975132 2.909360679248232 9.709955227592244 -0.052399596647638796 -0.3157533225827788 1.0864841754907029
Ni 1.3714874566190607 0.6874001455776355 2.162244877559858 0.7552666958340541 0.6863673017591793 1.2179457085685153
Ni 3.1242298996021503 5.075956326027739 5.978590271167096 0.44118124787200147 0.296536897555328 -0.4368006023058026
P 1.1789766142130635 0.24601842144508973 5.556965577930876 1.2459637910479961 -0.16088420921430355 1.08411079016252
P 6.682662475109724 5.273201117841178 2.1715416473588354 -1.0400017156584476 0.10038795160145937 -0.33180446250837053
P 8.091156581418792 6.978352953519979 6.170209196582575 0.22288559061776453 0.1911934017208062 -0.4499715924701218
P 5.6415377236021875 1.433028798915813 -0.22785456448490268 0.14671588813372152 2.4090426723753025 -0.5714546741789837
P 5.7884482635628185 8.459781502369644 3.5409839262280007 -0.1464199541598575 0.6936561221111086 0.6062244735600011
P 8.7341831591814 2.6388001248044013 12.221352590200475 -1.226490769925049 1.1894956807579387 -0.2244768463642844
P 9.122087995891835 3.66589043690952 3.912638016770216 -0.48889449478756447 1.409832022591288 -0.5991526543148842
P 4.029437290323116 8.803220696414103 7.068601188235223 -0.1731044054295793 1.5990310195898847 -0.37927782549898553
Ni 8.065682539322554 0.1527465974324794 5.70194905636455 0.2832640917058218 -1.2255890840463861 2.179271667491615
Ni 3.9349908144241406 3.069756929701579 9.950468689009307 -0.275828461363383 -1.6320871787139053 -0.011133648019316308
Ni 0.565719044826373 4.7940212723200535 11.183694131314063 0.7703737266788216 -0.8050203702184136 2.0622497068779
Ni 6.655188827664567 3.4085365782585546 3.310271321167642 3.1121933642404076 1.8667571635611075 1.4233318568499358
Ni 1.2385276516508916 3.7008602792906284 5.864669499267642 -1.4160474073733809 -0.25420291267380735 0.5884864328502897
Ni 4.8887281619388885 2.7554003678714087 7.759720599761849 0.436463530681358 0.7263914075606006 -3.13412795952997
Ni 1.153028247127082 5.624369019071462 7.3714456035496125 -2.552174185591875 -0.6366717343062648 -0.7687847849251469
Ni 4.638637985973999 0.8068147169171223 8.780037365003627 -3.0992725424136816 -0.9750911310279917 -0.9904951242878877
Ni 2.0194897965289806 8.9278007598968 8.45179238146396 0.7975052927882911 0.1319850096814501 -0.1306596060018072
Ni 8.442305881669085 2.3040940908652243 1.7935576433260392 -2.2788672050987655 -0.9562012361020242 -0.1555823373854159
Ni 7.376683639514783 4.898902897993391 11.849236265305507 1.5159864443628794 -0.9183111459244699 -3.4164338010875808
Ni 1.9612036257304692 5.316578603177744 1.7109051187896918 0.9406622599261606 0.10196480917027602 0.39387500658687
Ni 4.2909205665318515 4.472828850343576 3.810873915343194 0.3207749441670863 -0.1412533223572535 -1.1139654116301072
Ni 3.351236259399511 1.7103787110559763 6.25584345821131 -0.5970736602986685 -1.2860712005918433 0.7218104730581375
Ni 2.822596408085106 2.813695839159915 4.373016921766499 -0.9847466518398847 -0.46436822751142603 -1.0547796452985705
Ni 2.9016226715724125 7.011713811131956 7.506125069117853 1.6853786910481943 -0.6313719193599061 0.8435856320861214
Ni 0.2918670469733202 1.78280162664685 4.602137282939718 -0.1690790863202701 0.9180807750812189 -0.6483376006799674
Ni 8.56946218088039 0.5432890531054907 11.861459899305903 -0.5586814336737151 0.14385964963184902 -1.5977462393401902
Ni 1.792288126441725 6.773770075100503 11.506303017916776 2.165118258809368 -3.3108329378266137 1.8028025150860179
Ni 7.946701370816833 7.218110285100451 0.7276340652958992 -0.7910721355684376 -0.3656671766940864 -0.3696351602028989
Ni 0.630906179201156 7.366760016690144 2.2463957110343955 1.1435559808030307 -0.3952058095831516 -1.6664504866851235
Ni 4.149776330368104 6.710973166654429 3.6249850218136195 -0.8354316355204193 0.8886575847240954 -1.924304880068589
Ni 6.4641195612077915 2.2171438099021987 11.602990911904541 2.2089177724928213 0.2103226663510894 -0.10851520869428408
Ni 3.460814632520312 6.950274774225148 0.6495229700240983 -0.1286160932092172 1.0357226286671195 -0.8891376096843074
P 5.454774584013085 3.123076638842773 5.012368875932092 -0.35541901660351694 -0.9275311218608412 2.3876307823584297
P 8.646814356168601 4.036691672519197 7.92625238346488 1.3217462853959496 0.0032956400321362597 -0.7404761677884408
P 7.017070893369062 0.9361036184842746 7.580093726145892 0.7226579086600974 0.14766925318592633 0.2902060702412938
P 3.4846424878874385 4.167224049598677 8.046148720186107 -1.618816429746928 0.8593719483861006 -0.39406295422796
P 9.488173883074062 6.0919325525888635 13.017694025334254 -0.8547033392658377 -0.2154391616420483 0.0065611981572854736
P 3.482633582048524 2.8418298213947155 2.2001685555633697 -0.8287238844829405 0.6438309710588654 -0.7681042139183546
P 2.5793141907965382 8.91060415389609 0.8124787153240624 0.4534320402148965 0.2348741304382084 0.35951401260849697
P 4.213131268213877 7.382124426161843 11.931099178241283 0.7659961664364162 -0.7471672066553713 0.5336599719287133
Ni 8.803304400824057 5.287523872433441 1.8245533863322938 1.2493288508654872 -0.10165267724649592 1.8429173808290327
Ni 5.652716912576147 5.117585319245249 5.882855677403816 -0.1683236962114843 -1.1852032240301718 1.092824515886434
Ni 4.978570895290351 3.807732209822891 12.473832062045073 -0.01158564795507037 -0.6334699395395155 0.7448336734261882
Ni 5.517776103239048 0.4911793377126427 5.50415088539641 -0.16471952379999374 0.6239352605762029 -0.41776903959564826
Ni 4.826284672112623 7.260539120457529 5.639020080960546 -0.46245224143563585 0.47516326124440106 1.2616038115780983
Ni 7.391908541636558 1.1844081003701292 3.814507616784231 -0.7843983230926878 -0.36305185055842637 -1.0308742994358826
Ni 1.596791826747341 4.277286048199217 9.029194701822021 0.4009265141170127 -0.14723756496514642 1.6584178461886343
Ni 6.576264869567205 4.620576434403755 8.121001853812668 -1.3300933718090642 1.894283136895518 2.2336289020862563
Ni 6.252431108432154 0.08866250117110051 9.912191592385986 2.737104894232422 -1.635049603776339 1.5067165890251792
Ni 4.434138811964479 4.919829000482086 0.9709488342994496 -0.8722668020708978 0.17097733178424745 1.0506129155153905
Ni 2.5359367054599726 8.816390190246988 12.268260541539133 1.4186349655948989 1.5916537532892072 0.49159029645217267
Ni 6.290637521331514 8.138505375983213 7.256340879273797 -0.4112592635015885 0.8087970636520264 0.16821005345175546
Ni 1.548680392003333 2.633573249427225 11.981723605381934 0.4280537093511079 -0.0053512370095843325 -3.277977838969806
Ni 5.962274421568909 6.006275039735139 13.011228324689746 -2.1376372797802796 2.5110972130459075 0.8184003910697454
Ni 0.3888562768369223 8.251506329422163 13.261992786179272 1.4704735475327448 -0.8960194244058053 -0.9952575786735375
Ni 0.5716434569531724 4.065588294933586 13.68571287981136 0.4374138104097693 -0.29901415545122695 -1.187603091720916
Ni 8.0807772345844 4.73868335684995 5.469630256682059 0.7632368585237242 1.236218024515142 -0.1503974507503668
Ni 6.441444966600041 2.3142967283897127 9.256749790529087 1.6057284862147183 0.882008454838694 0.41814467776751213
Ni 5.836736407616732 7.193277976813866 1.6983541075414725 -0.5694553843607676 -0.3572702108796428 1.07776839288426
Ni 9.337226930455607 8.843956842592096 3.775141432782498 -0.4861948364682143 0.4611322370726317 0.8060938057882505
Ni 1.0066106331361835 3.1849807002493296 2.153233632803726 3.4019667178196573 0.4299974633410401 1.524747478384961
Ni 6.642754072541284 6.367236356930132 4.230823590331318 0.7364073970357059 0.6676144466317083 -1.4875945234837478
Ni 8.588863003009909 5.568547478121619 9.614397343138869 -1.4571945710356515 1.1802759619318832 -1.7682556303490835
Ni 4.449066098406414 1.0267926964252803 11.343405865703781 -0.23038215610512583 -0.6448570983305346 0.5336702563413583
P 2.180983504801734 5.762425492556877 3.887306272170902 0.5913395860283687 0.20141482233849828 -0.16441201986190393
P 1.2199545731309256 6.616573193205428 9.405912909166501 0.6153984267497853 -0.06365125830205812 -0.7179160230997378
P 5.001319893818061 6.499117305058883 7.987085028424016 0.7047254925513927 -1.0249080545501188 0.33827747182722384
P 7.895344065064579 7.979067075999348 10.560936111397504 0.2447021722722237 0.17733258457831397 -0.5310688141627693
P 2.87982232302419 4.351280746599242 12.910974622837909 -0.4128271222093406 0.5998833618333217 -0.0767019208384292
P 5.712546964713824 4.327843511811904 10.445327300563962 1.1501385191165547 -0.08436020871463536 -0.34478390548717397
P 8.841882833323217 -0.14619161208402068 1.3884041178709214 -0.9363127247082133 0.4715431479933105 1.0146259558978203
P 2.440522978601519 0.9987982215404041 10.509236547613435 -0.4275934818852378 0.19072726071766508 -0.9989414552830281
