# total energy = -340868.9176721942 ev
CRYSTAL
PRIMVEC
9.32183906774867 0.00000000000000 0.00000000000000
0.00000000000000 9.32183906774867 0.00000000000000
0.00000000000000 0.00000000000000 13.64345374158146
PRIMCOORD
 96 1
Ni 2.825542655744818 6.4429662229173905 6.913451561708237 0.48586316416040837 1.2167362616414465 -0.4080363856889166
Ni 4.68639614645033 8.481512610933477 10.525815234606325 -0.045748924100340566 -0.8371311347100293 0.7529221068612775
Ni 5.725585449738828 8.513439909920397 3.5407766093739825 -1.4016258326314117 -1.2564466928571911 -0.011653782188844445
Ni 0.8889883739114232 4.46690412252447 8.209743713221146 -1.351864959158201 -0.3231802111744692 0.38539088037525887
Ni 3.922825660430834 1.9724359049751354 6.107259762863046 0.3124844220235199 0.4511712692051778 -1.5335177683784236
Ni 5.243096378712811 2.2201451359180506 10.705200045717229 -0.3509298704839117 0.29247249767796724 0.19520303710083156
Ni 5.9840054738309325 0.7907725447563542 9.09091945376587 0.6515555933966327 -1.766718624879267 -1.2241803766243176
Ni 1.4438503394993867 1.6520909036070819 2.7183759966664662 -0.8542737079275867 -0.4218262403841574 -0.9999498419428843
Ni 4.864825469051404 6.271211337126429 4.834489408002312 -0.1564094612724016 0.09095843075744335 0.7486908423887494
Ni 6.491598257607834 3.533144819686218 6.066438497171474 0.5470196810650708 -2.369897369634409 -1.1334919116988091
Ni 8.944714796819655 8.723088071735253 5.884258066508403 1.9405761064247866 1.635561253305435 -1.4962773959697262
Ni 1.111340338079382 0.41875006385726393 9.585904450132608 -0.7855658610382278 0.7470432794829973 -0.8229288750677183
Ni 7.916376114267151 1.6308184667346275 10.463956442388133 0.25601991127788815 -0.5802434761152071 0.9368071478461286
Ni 8.467501886735711 3.3817208650165638 4.460468324795836 -1.863805022911319 -2.1295550169927777 -0.9716270837387913
Ni 7.568149492090372 8.296585966465575 7.738157465230195 -1.5300490931035327 -2.239199197085182 0.3981893176915078
Ni 7.101227892395205 2.8949344261561025 8.671192461168802 -0.5709548517244296 1.4498137051905482 -0.6327024652458716
Ni 4.909999101428229 5.450460689943202 2.1175592285833993 -0.2720489397162928 -0.08395474574610057 0.34176285927266303
Ni 2.0685720318224723 0.47794001353532567 5.431800232392246 0.21349797875527748 -0.7130926335691655 1.2229133369864358
Ni 4.325818087439195 2.4077471482134696 8.350421451752952 1.6465918000879836 0.7411629094428203 1.337324856560497
Ni 8.222197690285824 1.073260625273082 7.500065575707662 -0.060060712737322365 -0.16424746925958164 0.6473446406390787
Ni 8.414348760071936 2.280951492499567 2.0111131476690445 0.5231541873013829 -1.8635808227156552 0.26808378442095765
Ni 7.755909975650836 5.5489832076053265 8.673484701408476 0.8411749657620998 -0.347399231622834 0.11915031981062704
Ni 3.101925863821682 2.702848609243834 3.6748917731651205 2.1473521930751986 1.9583090049281755 0.6875839477750998
Ni 6.310978302813497 6.1300693710064325 10.365559769554128 -0.375481848791663 0.3072612259513676 1.6421221943524043
P 4.594697215024242 6.930619592816036 12.143778885194102 0.9407753884652572 -0.6614443132652544 -0.24443786286724356
P 0.43647367657663194 4.664312709574412 5.3563930791966525 2.7531141251764844 0.912118643960513 1.4960434255820494
P 1.367243465609014 6.621982821383042 12.692040988684917 -0.5033569500697976 -0.35290961991810194 0.09410443258559277
P 6.6033484649816225 6.385469119223569 3.5091373552158767 0.793682319497775 -0.6634160922796446 -1.2676888414299134
P 1.5375534663363335 8.70148937049359 7.4319853880606 -0.22420019566413002 0.48995378929001426 -0.45679375759827784
P 3.3111265773587646 0.656617297056999 9.846739762740775 0.6708517226220834 1.5783207836257271 0.49014867890963976
P 2.8319560810595634 4.4576755017954035 1.608331394224802 1.0991201190871587 -1.91694098350435 1.042391298936547
P 3.2232216344546254 8.021834080234758 4.849497568985946 0.3507537499173637 -1.2773621028536195 -0.4705075076399445
Ni 7.165744340946588 7.454385767466606 5.396614018448878 -0.9339223700991658 -0.4869013756169357 -0.05153082088944029
Ni 6.142308945771346 1.4057892703713273 12.744254473965368 -0.038959154872016774 1.89792176208937 0.31696688327490574
Ni 1.2886044307904223 2.6087353214855953 5.426942622026673 0.3553333988682461 1.022686878529084 -1.4299712165433245
Ni 8.35184582877053 1.0590914298102727 13.339450173058912 0.5407266489675076 0.9702019212564904 -0.6486913844749602
Ni 2.680355011446624 3.104386829349433 10.045388154393713 -0.0291244281697821 -0.19357321480689244 -0.7417457785294839
Ni 3.7685026137947766 0.3308069014127316 7.696954936318606 -2.130523294443318 -1.248522552914108 1.8096035971682511
Ni 2.4781922864453443 7.841363274866344 9.276797858007951 1.1324328743066756 0.041304772286057896 -1.6435733249766338
Ni 0.952095360387822 5.086946251609181 0.7638482768252803 0.612546559123287 -1.0544256043932614 -0.8363878287861014
Ni 1.6459850989833058 1.8055656628831953 7.5379131747198675 -0.15219413763947337 -0.3035781206728255 1.0498166448663404
Ni 0.7038091076033621 2.8135547706361517 -0.00378559886674135 -0.4889821694053643 -0.34680890633700273 1.1014107148935484
Ni 7.970377528290871 5.277139735180034 6.2801500486588555 -0.5637400791435453 0.6731608303712342 0.18979832114549247
Ni 3.161697496260848 2.095791802053659 1.083609731064405 0.2416155629271 0.4120051405286775 -0.7999630103001643
Ni 6.914371627229408 0.7535560342525911 4.9293391210510515 0.9646074578878484 0.6774638286219622 0.5930061750975142
Ni 7.775886676885572 6.473551177070994 12.158049688703324 0.9135276084928976 0.5446190420433781 0.5738136613294633
Ni 6.0841686351782265 5.278510045530714 13.495586317403864 -0.4105540099044478 -0.23692612787123069 -0.18448565068332742
Ni 5.040253159455752 8.909086727701986 13.380680667487864 0.6928161427083165 -1.6998789415468982 -1.3096212199976414
Ni 2.5274488843568474 5.752189978588077 4.605934692083727 -1.0288163884655896 -0.3233805001107334 -0.3294907267735293
Ni 3.322890738328544 6.068964715573067 0.2389019573420849 0.6446382974515091 1.031970874934171 -0.8102132272732626
Ni 3.517195152951437 0.47050491465299893 3.36435334655159 0.3966186307702782 -0.9963904067264001 -0.3048760135486427
Ni 0.052973215168754174 9.204654280688365 1.493985054656019 1.1340020185660082 0.124088894762825 -0.7838455359130113
Ni 7.1661078926722785 3.6613014639116797 11.727407754680332 0.1879070176600506 0.5372291773372102 0.2752414785116614
Ni 3.0752560820985915 3.9290153616066927 7.294731561037667 -0.46090135200874816 1.2984276652746671 -0.3481242827143166
Ni 9.108406291771583 8.806360060596619 11.499876576697151 2.3370049897817626 -0.5587817066970054 2.2785350185703273
Ni 6.896343190370807 8.878389911478939 11.426869797075026 -1.4612929094747413 -0.4234871730263481 0.11025533131384238
P 2.3294343777640876 5.707016346211252 8.83067048483837 0.8261862056627514 0.08678912987110216 1.4252028486204036
P 7.786271205665553 8.366080277107182 0.04974413009749291 -0.6048638457670487 -0.5733097251098513 -0.7699831761086223
P 3.971951752594653 4.027659063177382 5.309718630721464 0.7070821657090274 1.2076669523503267 -0.8180021271900622
P 8.744929140794044 5.016389251307862 10.840133666983126 -0.8210437422298634 0.4667878926965122 -0.7837660888253276
P 6.0822017271238495 1.6231559149777661 6.795886391091225 -0.18117149870842994 -1.6253375186948975 1.5399696946513541
P 1.0024146479590357 6.5923020856241035 2.291963381052341 0.47707024845912677 1.225397022640238 1.8054800619181812
P 0.069203469261055 2.5551440683831674 9.147635387341413 0.7327800846957637 -0.2659302284130646 -0.4072485996802987
P 4.4398335017192085 2.9809936449144288 12.972932238160341 0.6204545011164541 -0.5943441771826474 0.5308114467363245
Ni 6.85078736259005 0.46955035832708336 1.7149415395076735 -0.8822203137391839 0.6772018332098273 -1.1185730856054477
Ni 8.098813827689941 4.412781524592186 2.345296419211138 -1.1942481078412592 2.2265930782853975 -0.4382440196205485
Ni 8.092661413870564 8.41281065661709 3.097882982195221 0.03243112394551189 -1.1659340913879146 1.9628829974521032
Ni 4.304946489648912 4.373825558908582 11.330970444941343 0.9805662952099499 0.8178841135549592 0.8948233472151751
Ni 2.2458920555682345 8.477438967237918 11.497325189329933 -0.5317671257813746 -0.369769371787918 0.5724494339920851
Ni 1.3180800860887139 8.506029047819784 3.632023431602738 -0.946923410344524 -1.0159500740258827 -0.7426106976329404
Ni 1.1581732578196149 4.079730856503207 3.216089495343707 0.0694372688562159 0.6375240550042311 -0.7861788120318782
Ni 3.2613013472609254 7.342943180783787 2.533070885530282 -0.5673416804518745 -0.7625030656814933 0.6651675277531124
Ni 8.91200446334663 3.0986259327731065 6.940425235386647 -0.6567427940245271 0.9058032432654465 -0.5048962695324595
Ni 0.4210311178899938 6.801884994565118 9.879374589316924 -0.8049049276864718 -0.3443568452520844 0.30286104000114294
Ni 2.7067731035134672 6.001055117581905 11.065400570243993 -0.20158940024314959 0.4838103953964377 -0.19602758988465596
Ni 4.9279716072521085 8.677830542806346 6.168396112549419 1.280566211613214 -0.7108388045379822 -1.6233652254598754
Ni 5.986102887632994 4.081352856510134 3.94373547776151 -0.34480910229815454 0.17280718590413463 -0.9803842611061309
Ni 5.59166790893704 4.785515261816154 7.478808985961712 -0.8184587551115065 0.6418278245859075 1.2727803970202078
Ni 4.4777360995822235 6.19856624486217 8.973381316482307 -0.7912425997080308 0.7100278786009125 -0.045291267737631674
Ni 0.15733493285581676 6.904005742127668 7.200524122704313 0.9185605429311148 -0.6257648575857739 0.4844477718701205
Ni 3.5879013026786795 1.010142452589739 12.144625308186225 -0.2729709373099299 1.288614021618355 -0.2338374616435779
Ni 1.0257658549553101 2.127420802188732 11.387727394609016 -0.8880083811758707 0.46751551489115606 -0.6700274269485751
Ni 8.920748348441442 6.095634497296157 4.023031702238081 -0.26252480227594144 0.9182293848439411 -0.7389095946322694
Ni 2.4099657459240937 4.0952983278340565 12.710063832440046 0.49846131254039316 -0.5643144635897765 0.06636840012290506
Ni 6.280197590038369 7.354586157845003 1.2655244893125477 -0.2682419072653767 -0.06739118496046458 0.5840445950288522
Ni 2.1179591354816587 8.406397231302346 0.27413384829714255 -0.11073767026689961 -0.980884083560685 0.5451132080709773
Ni 5.776436082139897 3.2200801746710948 1.3958484611334723 0.36847584978747505 -0.7836838135241665 -0.2929782336697922
Ni 8.624136749473596 6.484709418497956 0.9836898697181508 -1.8230646077691637 1.8466441948613164 -0.18608436262901498
P 1.4419766498362125 0.8421610472746626 12.983437950848884 -0.6207056978953116 0.07687932695655793 0.6413794241945793
P 8.337415621812353 8.81848777329209 9.640410175652734 -1.0619630504208872 -0.08185929666965257 -1.3361807156537246
P 5.58541295488734 4.186540489143251 9.692745777025664 0.51157136755979 -0.24917717732444183 -1.6099962603521367
P 5.868209588278948 6.874455512116414 7.093681863627347 0.010687304510517078 0.1087563781708127 0.3287433070845435
P 7.91981587290253 3.5938206705200506 0.2997493300157305 -0.5123604391199885 0.2591975376749213 -0.6205470608302603
P 5.546792575412064 1.289424752633006 3.3206935808478972 -0.18636435576327903 2.0870729365691667 -0.7420735941825478
P 9.185432648422369 1.092025487422184 3.9116189454404466 -1.1322333567013598 -0.8932500891907842 1.3251362849141048
P 3.867920028012448 8.940902164619464 1.3468286379356242 0.1701944308716359 1.1008052200990655 1.4892318019768545
