# total energy = -340859.33984698897 ev
CRYSTAL
PRIMVEC
9.33639945516022 0.00000000000000 0.00000000000000
0.00000000000000 9.33639945516022 0.00000000000000
0.00000000000000 0.00000000000000 13.66476434034693
PRIMCOORD
 96 1
Ni 2.225918997580462 2.7046242056141807 6.161510122594984 0.10809226222425256 -2.0336495266427037 -2.3899283201433548
Ni 8.510940348250223 7.2734846312452275 8.75401724200017 -0.2891596312546504 2.1688638418947295 0.6674810063776375
Ni 3.496892388543311 0.18359002477433045 6.8958272742549225 -0.2898918814349846 -0.2782039035740951 0.006457068479253396
Ni 6.612168786737507 0.35547780650164856 3.915023037067683 -0.6690087558760737 -0.7262317420542848 -0.6339365947632889
Ni 4.202742858337651 5.089588767504404 6.416672985408565 0.8319549898257286 0.48950333201615703 1.7467444957501852
Ni 8.601755505517088 6.926852129564657 6.35209311054325 2.6204264330010547 -1.289963336557398 -2.9451472491897666
Ni 4.467513809805837 8.946586082107444 2.181784903829439 0.5406063213395592 -1.5217526574226954 0.038774806775352576
Ni 6.841228010381515 6.296421094375204 7.175490716455745 -3.586201685944759 -2.4373052667654216 2.290254621000101
Ni 8.101781979579194 7.42325915091985 11.693881367681787 0.7801806854669144 -0.6824283717160893 0.949988165312777
Ni 3.6707081367531633 3.4510693401351924 10.128391256663084 -0.08967005096332298 -2.145851697270272 -0.16640565325316503
Ni 1.8948596101510615 3.6578145691387354 12.150831831400966 -0.09694678713039433 -0.16376153076209862 0.0018702204395193596
Ni 2.023757940697617 5.1405281628007975 3.154086876989572 0.5621061430845481 0.3811940686850919 -0.9614326597042927
Ni 8.758588343161666 2.724081262028712 10.654034279197003 1.9411990847207665 -1.059244880158776 0.011095081471897021
Ni 3.2601306353685984 5.45757361468403 9.639316109781182 -0.7064365617052285 2.553038076254068 -0.6363783714355621
Ni 5.639371984407522 5.773041215063398 11.953252145718988 -0.6933236784723543 -0.660739573888746 0.7563010506358394
Ni 6.902661518638529 4.971175213519039 2.7441171752079754 -2.130715355849466 -0.5771972330897157 0.8261795207945319
Ni 2.7465819846578006 7.99605659242077 8.671959627399731 1.6943814087674367 -0.5857392091224558 -1.0433066116619643
Ni 4.470099992448267 2.5810756319416788 7.319312347853062 -3.4279009211869162 -0.21931201433389325 0.5159260449840599
Ni 5.890801221088584 3.0899094009397414 5.694353107017663 -1.072387845298637 -0.9408337525070183 3.1950548769223297
Ni 7.588485411653037 7.006398252718116 1.8347406669339545 4.943043786602577 0.723916720767863 -0.423840956821341
Ni 4.491050872771783 4.4817144733406264 2.383735891725083 -0.2190685308645195 2.578811842784062 1.340154612699808
Ni 5.524403561812253 8.009855790780021 13.023189515930449 -1.410841951913041 -1.0460242677034435 -0.09355575917097436
Ni 5.941591233994078 7.515306712911627 5.582137988614643 -0.5579044462983747 1.1582125543739408 -1.9081778925997392
Ni 0.9078602770064007 1.8511279152155216 7.812678503913528 -0.3815655930918977 -0.4631554381502475 0.7539921999970047
P 6.72943396359284 8.3511572083854 7.715577148909664 -0.7097412005984293 0.8903910224754343 0.3709687914126579
P 3.117078323284409 7.090958022366105 1.80542997455978 3.5166767424707435 0.4684439402426965 1.022082926396498
P 0.3243371798389671 5.259371191159996 11.216981819298054 0.321954052076852 -0.09035653550738632 -1.072400186593811
P 9.003005943869928 3.726773215337262 0.5296025895326719 -1.3319335103415963 -1.1983870697102974 -0.6869152038428493
P 8.217189212947726 2.1882839714734676 6.659263452748149 -0.28035051760345264 1.1228128347184083 -1.525046754792935
P 6.661110192555632 1.438757825140174 2.0047032830985683 0.4150529262160658 0.39328905217641297 -0.41584354043816124
P 1.365495098803884 0.5723212851299313 5.612132105427178 0.05843731820128645 0.573476846815335 -0.16009565187473718
P 5.257998740443616 4.786435877974732 8.458051512752604 -2.0771101689295 1.4074622368075311 0.2754597651700546
Ni 1.1415428856487184 8.125375060941728 6.7315776009022334 2.2052022713144472 -0.1401163805393329 0.7484280756456659
Ni 1.4611465109760888 7.973714588582011 4.202898776208152 -0.04556251912114734 -0.6930537126404193 0.22401687600873033
Ni 9.370570653075152 0.2743865092423334 10.731718724303889 0.1518742924062094 -0.3346203346906108 0.19476620667372907
Ni 6.4039577430232715 3.223279866813821 8.035318952948616 3.6018921000968227 -0.6945215554351974 0.23174509789092346
Ni 0.9693983529370436 3.199360011471196 4.07298837996326 -0.9909579228569192 1.1848656381850946 0.3148125559360643
Ni 8.4352408216624 -0.15348013660884874 6.571426606899823 -0.7330616204919246 0.5232637162960537 1.2162942890080213
Ni 5.106244904089588 3.1771953992216293 12.275946119258073 0.18980243491055054 -0.10632411458023625 -0.5607470579534923
Ni 1.1394515321761391 3.9621345085973014 9.477347318809523 0.3262333961784962 0.3124859646854166 0.18167312093519677
Ni 9.028737060702197 4.914802033753712 2.2940541733491604 1.2956490740882654 -0.16847873373210984 0.7128141830967981
Ni 2.6900594225015757 8.936054623549099 11.761590803636425 -1.1682496268949687 0.582990442732725 -3.171863783517847
Ni 7.376287725381698 5.064520535031747 5.07270202185327 1.1067195287009712 0.8354617174274063 1.2551698830272966
Ni 0.8138754121326576 8.051365422650944 13.568673320895519 -0.8466668421146063 1.1945124172462396 -1.2226181743435203
Ni 7.1586749274402885 2.8474057621148665 4.122891434922795 3.330326784885168 -0.8013766028182392 -3.179168030488744
Ni 2.0811581244003707 6.241877848898384 12.030143930514171 0.32621025625004463 -1.4994244262391403 2.90963954320146
Ni 9.667374790991637 5.7371427592506 13.38310584672167 -1.8257339270712105 -0.9053458440130538 0.3554033328742331
Ni 3.883139233010281 8.927558500066747 4.454207573336551 0.039561307232389924 0.3445774459033227 0.6427547072755511
Ni 5.276970304087728 0.8565110137749796 0.2758140447153573 1.0699062165273638 0.4901365947247816 -0.32855381678155676
Ni 6.7355866508179725 6.274097763335308 10.028106189453199 0.9575796045067896 -0.5446576085907975 -0.07000188311043427
Ni 5.004935633862102 2.229970994933584 3.2119305396653064 -0.7203642275299142 -0.5480951735174368 0.014677656616832787
Ni 0.4395884953369999 4.293464651610206 6.443852177792606 -3.9776999647693367 -2.0582290157542813 1.1666851106213263
Ni 5.544010000617683 1.228399409556773 8.919551603914586 -2.3640704785399866 -3.4303717513249112 -2.822628784237855
Ni 7.130908475532027 9.103614984140076 10.264301223182441 -0.30831409269591414 -0.41829071642707316 -0.7630877345403697
Ni 7.745168866906717 2.020200772514346 13.001121068595024 -0.04555403448071509 -1.1346031424851168 0.31566770484750795
Ni 1.9747791892817665 5.192270488448269 5.407187867873906 1.2191258449195455 3.2716804359968683 0.03607309157347336
P 3.903894048945743 1.6231237047072338 5.298689570084428 1.7147298905168016 0.22720632948030547 -0.021998101537645986
P 4.354954178263807 1.5735380873283582 10.76460899221997 -0.05893894042805333 -1.1536149077009294 1.0481752526081756
P 3.0785003208348676 4.706002796875313 0.19491601092426714 0.6937661653264116 0.14637161742042534 -0.9385655252981319
P 7.008993771759977 -0.07459222961528668 12.414000656726763 1.4110450690627827 1.7297093946447695 -0.08292836136411524
P 3.317474800674765 7.171484467459837 6.599466615311417 0.010795290843291085 0.6786977010290633 -0.34575578248214
P 0.8456406439172834 9.118254458448131 8.846950828297967 -0.9294679338722378 -0.6131417695051248 -1.2944987625339062
P 1.150841939482151 1.2790587128702318 12.236509168060866 -0.6253020590167425 0.5355988408226389 0.01511962925025783
P 5.421479094483177 4.560784440123096 4.466956426759796 0.32704740743935934 2.8838706617674723 -2.8514372238291155
Ni 1.7471484347507247 1.2017439891808195 3.3977295565450483 -0.043948894777124305 -0.9888581029050971 -0.011647611541257359
Ni 1.402383212956386 7.321034913548111 10.264998652219946 -2.3652873816662234 0.10571193491753407 -0.19791503671535593
Ni 2.4899056914964293 0.856828451355639 9.670457670083806 0.7376021886747556 1.3307844843388177 0.10720934539866697
Ni 5.491978246587845 6.705990264621204 1.541317239251492 -3.9673021664747803 -1.0531138275603733 -1.0075723914851487
Ni 4.857579241640149 8.601624795925051 10.59345785240777 -0.2445964999322949 1.1018701710284702 -0.5943130668343959
Ni 0.9750188653946 6.1146974158471625 8.11598170947404 1.711822744172336 -0.8519291189548102 -0.48090530593450076
Ni 7.9780560143175 1.3836637320969158 8.55229779681042 0.07240457901465594 -0.7378878382359744 1.6225792392234701
Ni 4.48191053772868 3.0862215231644345 0.7852584142362178 -0.5766056222523037 -1.3697179281792218 -0.28324969352811863
Ni 6.060340898358966 0.7602676738788396 6.147422429493311 -0.15946933114464792 -0.46329247794874406 1.3661608069555826
Ni 3.1730126922764708 8.432710657416557 -0.000738509195004528 1.3269566259522954 -0.9195337054776616 4.045743952822452
Ni 1.6585179949507503 3.597996257983312 1.274309286479602 0.1404403395376549 -1.077334390670635 0.48282334889282014
Ni 3.9398205139568363 6.406562598464565 4.3811969297849025 0.2020516845915488 0.4176908780595452 -0.7569217149389739
Ni 3.5319785776056 3.821873779943028 4.520659396287812 -0.8694334463871607 -2.3411447229817486 -1.0736356016628092
Ni 8.754265590225039 2.20234458901679 2.300340371086158 -0.23871278745800822 0.34283243818775794 -0.23928357235981373
Ni 8.242453509808438 4.89066744122417 8.161895320956642 0.8152695587502475 -1.102601649877856 1.1096426158850374
Ni 2.925756826141137 1.5478349796943827 13.338900796334968 1.2800339932588278 0.7169590585031071 -0.0915065899514295
Ni 8.12443208459918 0.10156975577161517 0.8930415438292681 -1.0303940173653545 -0.6200829767096482 0.1633540109110348
Ni 5.035222913616776 6.868154186340972 8.720306304574091 -1.251258206677716 1.5386643455763693 -1.003032594633266
Ni 7.921757525747623 4.202920249926843 12.216654381030567 -0.16535561472209587 1.7579866443229077 -0.5268241799538024
Ni 8.740260991078305 0.9722739639618398 4.675194546032381 0.8935732768581579 1.155987264587848 -1.428882868575152
Ni 1.2316204673605222 6.645863852284553 1.609313302668666 -2.4114556526921698 0.707543164505846 1.0311658625343725
Ni 0.9278336363094751 0.9780718680085885 0.8150144528632588 1.2045497468775834 0.4864069524790203 0.34380945738904656
Ni 6.475651954255127 2.1576979269369967 10.48019052178886 1.678676082217038 1.694055907107218 3.127894062805116
Ni 6.769683181540558 4.096307904822461 0.5947734584819779 -0.6773959514985043 0.20806446644453197 -0.1503686543949604
P 0.011261564993861713 5.7586071415428295 4.33664923353908 0.8106518574725782 0.08214854577529723 0.6947429274173841
P 0.4164865085845447 8.953849800864885 2.591946001799375 -1.058827590115699 -0.020596078983796787 -1.3068220599859492
P 3.7819513359754002 6.927430986329389 11.260777001749725 2.341610092653941 0.5852291022552567 -0.9096048763997238
P 7.021952694170424 6.492158708449413 13.533281831571832 0.29898355932360765 -1.4750112875020984 -0.8779633382350427
P 2.334566677760837 4.096858752388899 7.583233686973012 0.12024201021290905 1.8059176636762317 2.4065929252832294
P 6.252969491422599 7.6606371064570205 3.240175015224443 -1.310620093575801 0.9898850015077144 2.5992680537558845
P 3.313422803321643 1.3310437849029144 1.9081070273039304 -0.4602770881611879 1.0998107173962801 -1.3130225323697065
P 7.335142213088589 4.136239685189519 10.029568269604118 -0.4554045905602351 0.40711387387464726 -0.4839515489599924
