# total energy = -340875.6076241154 ev
CRYSTAL
PRIMVEC
9.19357915037403 0.00000000000000 0.00000000000000
0.00000000000000 9.19357915037403 0.00000000000000
0.00000000000000 0.00000000000000 13.45573238779281
PRIMCOORD
 96 1
Ni 2.2462212539742343 6.541130517830243 6.6199240889227875 -0.1899016794925762 0.6681515500821009 -0.41566870542319384
Ni 2.211864848260117 0.7562546367775157 12.890672359920913 -0.6582129508121503 0.8565409066952088 -1.512000463131938
Ni 2.3410989919912777 1.3206116935521492 9.302230823689563 0.5647590073263629 0.6734518792490918 -0.6304008136958885
Ni 5.048304697482042 5.435050996431941 2.9651187007654656 0.6289879925087619 -1.1575867478644837 -1.6519085843152068
Ni 3.5171784259149446 1.1536379069372715 4.087972826891083 -0.06847361939136595 -1.518218676127508 -0.1215625287965455
Ni 3.9337211152634133 1.029487812539776 7.233667214794316 0.4129345943214824 2.234855832514822 -0.26864454202043414
Ni 3.8460603369695656 8.866536070015794 0.6001044510315782 -0.6744785207413931 0.15252143907190507 2.004988925483218
Ni 7.014324042610981 4.8294055751772165 7.661074876118418 -0.9997773209207621 0.23234390781718695 -0.48771281577463754
Ni 7.1969361075559934 4.365736598515243 4.316101383420261 -0.874128794980301 -0.4689504475654697 -0.452423139334408
Ni 5.535647140751949 7.527518830774679 1.6485025367619799 0.758987339218751 -0.9602039295035141 0.23356158227437193
Ni 8.516931831297374 1.4066452083160534 7.429407710930059 -0.474415584445099 -1.1003521917220467 0.6707501640472125
Ni 6.367960258790608 5.078992865069337 0.856712877408546 -0.5794605752025956 1.8999321076511797 0.4514857151218031
Ni 6.4115562116662685 9.117281750895334 7.679617406138435 -1.7679969773710584 1.1486187400379184 -0.10197740757576632
Ni 5.007365689014028 2.5368854560233465 11.129290137582668 0.3409935852068063 1.6752518870268376 1.2052089777281374
Ni 1.4854066018811707 2.2289189377970953 3.5847282495661292 -1.6233675394527203 -0.05690596915842458 -0.7168708696646752
Ni 8.231186194155152 7.978362764361674 11.714412731843648 0.49689448227390554 -0.1354300308072571 0.13379275231415022
Ni 3.321897608742462 2.0802403739199997 1.866350832956791 0.38041708130975127 -0.4020734832372624 -1.5955487174682392
Ni 4.958216814262177 8.988911803615101 5.478919079253852 -0.22135629845743168 0.7242316809051205 -1.2493530192352031
Ni 7.578910938867245 8.89260906081195 2.5452994197668737 0.9448259043855469 -1.7907059889327999 0.17900457296409816
Ni 5.9909959281789 7.188275755888158 12.582132162348513 0.06358466673018083 -0.025971484363097205 -0.4520086775048086
Ni 6.863622891295537 6.621344496919264 3.7194877344356856 -0.04682621632491935 1.7173485590865711 1.1608114254493687
Ni 3.0490137889922804 3.0130209261689544 12.860828162910165 0.25618831853495233 0.17050039214782894 -0.0403470363584789
Ni 5.497585722593949 0.7175266841227876 2.563976176044163 -1.7705102307112153 -0.14729721455848827 0.4692003587927468
Ni 7.761357519385483 5.586708279990966 12.142292023784057 1.1215817905247847 -1.2775577638041933 0.5830578056355508
P 4.0089889487077475 6.874912606633224 13.376626572721774 -0.41066996665702177 -1.5314452021201108 0.18939260106664155
P 2.9513412028786106 8.29999094137604 9.909500750400452 -1.3567228014711346 1.538709339881692 -1.1180840617841712
P 4.785423491972416 1.6204970556042748 0.09814973287753413 -1.5215680522157151 0.32038053694214497 -0.22558370627521793
P 4.271631121156478 4.960938113724681 10.24181738266856 0.1726050971956576 -2.0458910630142184 -0.7186071356294915
P 8.44321771274886 0.19377674760469263 0.425184653857773 0.6917902725469635 -0.09556456207088704 -0.1826200582294984
P 2.269517783832295 0.011246505515140412 2.4443410484238157 0.12910743102333894 0.3116701536523407 0.14533649128769163
P 7.151023372705497 0.299467054195558 5.737591464175861 0.3950669700124422 -0.1291339133859002 -0.8293913428636103
P 7.552212784681053 3.2388703943982846 11.37882686278883 -0.37081298256108397 0.8620770060220895 0.46749340340396905
Ni 8.060764815315817 3.2130364366630233 6.130902898079051 -0.7118633891477547 0.07831760206498126 -0.9361741422478199
Ni 2.6309081911687247 7.9261800084523 4.53992366742161 -0.5379693979373444 0.47570113602574204 -0.5493694122441699
Ni 8.383919126488207 3.9370767716952177 0.8642065638676247 1.4116438789890464 0.2155903425079319 0.17410147923552596
Ni 0.8475202175012552 1.4595818377251752 1.3141247040226118 -0.34627668798261657 -2.4627638160478424 2.2664120100545486
Ni 3.0603126979092323 7.019040348774038 2.21867545177979 0.1305567618753558 0.17667901015471507 0.032540652940182664
Ni 9.280550525066328 9.050517978271323 4.75035826129695 -0.7467203489259399 0.935556563268479 -0.32754363034948747
Ni 5.276185946728985 4.82303442474642 12.18466339190159 0.4653922979005662 -0.3493010766312371 1.3157183340343148
Ni 1.3195268511988536 1.6218393181769966 5.769669700948057 0.5593764028582108 0.013897326807382515 1.7017237080651209
Ni 5.269548182499498 4.205051220117774 5.889870233693214 -0.310349120848072 0.37091428402563864 0.8320622048275541
Ni 2.298146589664182 7.685243876648749 11.93317578917535 1.2447124351393983 -0.7094874327164103 0.7586901196933062
Ni 2.8321740284428634 5.980588796450674 8.917786596987675 1.2018462319034915 0.2994342737077811 -0.2895239565726046
Ni 0.34865913876995663 6.620820462901147 5.015206892769332 1.1465816550032317 -0.8263412431833769 -0.34086580137969036
Ni 8.007138667461804 7.131863953516785 0.6509035732615368 -0.016288966968010656 0.5356484631136517 -0.8819452057009263
Ni 6.360743299067413 0.08112046600457198 0.2046545905912978 -0.057768060048403735 0.843222849430064 -0.126560239121453
Ni 8.522291688008995 7.977259534849848 6.773184732705668 -1.3207780079454092 -1.0641022082510772 -0.253990282442369
Ni 4.474505834802029 0.2981845498880602 11.871817841159288 0.42075434747621726 -1.0015691227138621 -0.7116034506181487
Ni 4.666697609341399 0.9072242406075032 9.631209267326469 0.5925822001862181 -1.906685624324929 -1.3918299295869125
Ni 9.009073322943724 2.189506063487108 10.08407578835181 0.4610378775866124 -0.5436998726632184 -0.8126966558167487
Ni 0.9363660481623892 8.869018336417403 8.089532444194608 1.905572850876725 0.35110444838856303 0.3045312286147142
Ni 8.70839731307479 4.693138343308164 9.463026525038215 -1.4908271714884325 -0.8095066881245414 1.3817720311302784
Ni 0.7027498441698037 4.048760372609078 11.658342930620941 -0.4876788772129085 1.0455033622029672 0.9754333448587587
Ni 0.6631319530422024 7.686135653837475 2.8625183561656398 -0.5972796056618875 -0.6255355151837871 -0.0461045076675464
Ni 6.661465276832673 2.865197365163524 9.307706519499927 0.7169089219914621 -0.2976954366398034 0.2141099013076635
Ni 4.488535236760751 7.130953789169528 10.646000224052868 0.07422671982505927 -1.4873057885987353 0.3131122854155059
P 1.7544199247606962 2.212508398808682 11.200403392557051 0.49621673948059053 -0.9638420404767336 -0.029064521466124135
P 6.127162030676034 8.373824576455 10.428313734853125 1.8771845295420186 1.180135322588961 0.10374092723409231
P 4.801208867570794 7.645463259168153 3.6648300669881153 0.45918051266289955 2.008352442638812 0.1505743426478633
P 5.302231356787345 3.499738206048827 2.112522708151884 0.09250597775022135 -0.9649332166583835 -0.2274122748435245
P 0.641904897876742 3.0849606839192805 7.562054511284469 0.1969696420829511 -0.016688773509590613 1.007476746447549
P 2.1061478802893823 5.616192088694518 3.885208436196714 -0.7922602423392678 0.579757280507408 -0.03764223583280614
P 6.198384689243674 2.5464283913006422 7.181028457353388 -0.11421020219653234 -0.07355360501743462 0.33809749460593386
P 8.22878666996693 5.971919251203574 2.3279356251993395 0.7596254870233821 -1.4894320909131187 0.0007613036460567534
Ni 3.0597518895740543 5.265916718689737 12.014529772093256 -2.056513061504439 0.6977184651059404 0.19846293879902593
Ni 3.241325080062097 3.7777612366082653 3.454772409862649 0.3763781353536873 0.9713314068752433 0.8436758778070824
Ni 1.8539588074652047 3.8360669163082743 9.550421608891298 0.2102182795627412 -0.6227026737206823 -0.2898229758702622
Ni 3.548032077929014 4.943001440578241 1.12717235030649 0.467801164452375 -0.9688628907300927 -1.1874118016457162
Ni 6.413312185305926 2.947948772129746 13.470129870638667 0.4722291183167416 -0.8802886439341099 -1.2087272752940408
Ni 4.182343079332687 6.004832264973053 4.826773453433583 -2.006241052722764 0.20107003740456986 2.384234097972055
Ni 0.09086474066777589 4.307817049144373 3.286293634322055 0.5285812718542251 -0.525583622678482 0.08860510003391836
Ni 7.371549758540267 1.8323538961919439 1.9652498425444405 1.028371073398055 2.120406774834606 -0.17826229548143493
Ni 1.017986644878989 9.088404718423284 10.616788545295567 -1.1953138301016124 0.5049584902289626 0.15679229853311707
Ni 4.367271926252534 3.0286040430234977 8.555962252709927 0.4603938162447103 0.6719678385043976 0.868968333825284
Ni 1.1432767431053714 8.130801502158242 0.570445964321987 0.0018013148747968977 -0.1643847661683943 -0.30532955614629353
Ni 0.24067319543656646 5.261292348319332 7.475857350809643 0.3701684069985496 1.2779580845664056 -1.5618253570738652
Ni 5.898922231837748 7.180203793293297 6.252300434844541 1.0493065379991413 -2.5805499085210912 0.923591420486803
Ni 7.242977552516202 0.9254440759953111 11.394206801541614 -1.022580949078839 0.7874587071855664 0.19799371247209127
Ni 0.9977883512333066 4.015599132199439 5.569206463143772 0.8843337605377608 0.941916958268868 -2.0168594516685587
Ni 3.984699512289043 8.035169890641452 7.956522497459224 0.20868435941671803 -0.9236248448278995 0.13476257242658726
Ni 2.632691745546177 3.967507519063087 7.276214180275815 0.9280795381651435 -0.15010948719630277 -0.8594768493950811
Ni 1.144655779995154 5.425875804325253 1.4752191966973833 0.15691776836738783 1.1828468079828531 -0.7044470420790255
Ni 7.983033102628404 9.109743015897854 9.310640190643458 1.0322930341602803 -0.4158034312288452 1.0273932828658177
Ni 9.153688324785593 2.047704296900396 12.746266052328364 -0.9967627024641543 -0.2956778919891424 -1.170557963313171
Ni 5.7982433453043525 2.1553886908338864 4.869884904681967 1.0104612829971695 -0.7927742058612088 -0.07574315646958568
Ni 6.847074448618145 6.991432030240588 8.737748734236924 0.04346886981691223 0.13272111651652624 0.2674428084028491
Ni 1.070086658574976 6.069738934585486 10.358518839145376 -0.5714009381229127 1.3878562896511453 1.065309855405933
Ni 6.47229818987156 5.213430574664611 10.252016739505391 -0.5700709064575795 -0.35462557416794405 -1.0288518696892153
P 0.7431822864203032 6.18387722116316 12.617171651002035 -0.3977910538118246 0.5710561531889842 0.2759552167492344
P 2.4247697568840207 8.991430844333772 6.422784330022878 -0.2612287091723372 -1.1870148233176139 -0.18176336665615792
P 7.698519405107723 5.992485288019865 5.699081399349717 -0.8984743137042009 -0.9292195653068578 1.47318683269885
P 8.36942085198696 2.1462410794649953 3.961771644959518 0.5552017026552309 0.44023868145307404 -0.023187750970372966
P 4.260653987513808 5.749443826564579 7.182804656867427 0.004985111919417222 0.609983426381801 -0.49572257345299137
P 3.6716213639913313 2.7520703723050244 5.38602071885261 -0.7187318341328137 0.9835945405133126 1.159672426748919
P 9.063554473669402 7.102573209977802 8.791652528184745 -0.3590625268933752 -0.4061751641104618 0.5531011113724603
P 1.4074542432913926 3.3426934850403844 0.9227659863553531 0.831848031934219 1.853645308769498 -0.3630626491917038
