# total energy = -340863.6343879995 ev
CRYSTAL
PRIMVEC
9.37386699469889 0.00000000000000 0.00000000000000

0.00000000000000 9.37386699469889 0.00000000000000

0.00000000000000 0.00000000000000 13.71960187173879

PRIMCOORD
 96 1
Ni 4.506617681427775 8.32528728096925 7.437848316136074 -0.44352917927888785 0.16704200128558327 -0.28769024579797553
Ni 0.8344709932906414 6.007392498244237 10.86154816475923 -0.692667275835278 -0.6529768992241916 -0.4420237983779549
Ni 2.0312794325171457 2.8661535020786837 13.318508947876996 1.9838179478325577 0.6568093855964043 0.010293154395891952
Ni 7.260425390327452 0.8781944574294948 13.600556412810262 -1.1776804332905653 -0.5817642836351077 -0.6155660626759012
Ni 6.868372786746412 7.12815075640597 7.692648762543395 -0.7027827670027251 0.7067756902122021 0.7751768044944198
Ni 2.7973868154903494 2.3135171869457403 6.676150400089145 0.10742403251263435 -0.15120631980490734 -0.15134464515498453
Ni 4.505192853679488 3.7827676898313722 11.281093382175456 0.40438901874431643 0.7166340710635206 -0.2997646604640063
Ni 1.4271524672438365 7.211109477276576 3.0360239034347125 0.411234323800924 0.06467661424277893 -0.038652422264875363
Ni 9.344798404201786 1.92611402128016 5.7195510462635015 -0.0538782380756943 -0.23062666801576412 -1.6859841858426772
Ni 1.5107392371876998 2.3129735026733678 9.009168042066198 -0.7298204878468075 0.45164280952495767 -0.7003646444795357
Ni 4.640860827369915 2.8418095700898744 3.3229701511393865 -0.6975256323688439 0.3566521176796696 0.7967661006294213
Ni 8.868737206672455 1.567722973252379 1.2705395256536045 0.3701236698035432 0.9528958258778749 1.6522040040684387
Ni 7.247770670194648 2.3684386723221107 11.772062777407907 -0.014950450662245221 0.48781874522488244 -0.8811378793082825
Ni 8.731916247369929 8.598929199574304 1.2053452196894263 0.33354561356919327 -1.0615814987117522 0.29076657073045403
Ni 7.8234854453031195 3.8520218174914893 5.653216878100694 -0.6286357513756656 -0.42238494110110486 0.5752372811498674
Ni 4.032534369785868 4.087277751693702 8.30907049146573 -1.608788870307597 0.679478545059146 1.0615707000784749
Ni 2.85595473503832 6.569187081206625 9.85260795107763 0.6994336480248341 -0.03690767165962676 -0.060787306490701756
Ni 4.844573699907768 7.530027172356773 11.7449938623505 -0.5163538765500978 0.3308930064376946 -0.1827218739146853
Ni 5.3755938782805295 4.973164404190589 2.0991406035759774 -0.910069217630652 -3.2627931608095677 -3.609171407367055
Ni 2.3782249892248126 3.8905577837625693 4.430882462286309 -0.1866600326268269 -1.056152100166065 -0.7198397224850119
Ni 1.4884763036207291 0.32852965806106904 6.552358178203348 -0.1699576322704815 -0.7103654644459895 0.7532136699597674
Ni 2.4488289536990955 7.595250537307923 5.756635000572677 -0.4490151420941234 0.9262131743803662 -0.9534761238613773
Ni 1.0263727937045437 0.019145185480918054 9.032244627268375 0.977908802982445 1.0935619082730907 1.746958154422888
Ni 0.34269732028975075 3.8660826176390497 1.1336557614437521 0.8025575105002178 0.20509535651387906 0.7165355978124434
P 8.591401984561976 1.1175898911951498 9.616782085776103 -1.0235607964936049 -0.044076421493924094 0.8417925447414406
P 4.335507117498731 7.6752752378810705 3.555434547818971 -0.037049596554129746 1.2449746876618495 -0.10830694933821994
P 8.311976390162894 5.405955832732494 9.946436607848977 -0.8388738284327488 -0.1576908990879865 0.4558853868513955
P 3.2767476141209735 5.66502138851791 11.725210316542881 -0.19801402418706543 -0.23351041732146235 0.7126653162237597
P 0.10444456088275414 3.228950267486034 7.358096395085788 0.29752008740420377 1.4319666497067982 0.8019743843032381
P 2.516142690938849 1.7643210809155665 10.971482999406268 0.3143299598726909 -0.3560923885214577 0.7415647728669293
P 7.080700242841337 3.703717871401788 3.1367676617186286 -0.9687518190735253 -0.44694823226276575 0.16787709559236896
P 9.349072887446644 7.103825572150691 12.558209612751412 -0.973826148272639 -0.30163719489637086 1.120171283330503
Ni 4.572347235184236 6.45284802078571 5.636684189287194 0.7120775620410899 -0.2196740256590023 0.2354415729059042
Ni 6.014047943647416 0.8051710979431552 8.54976795532505 1.5162504966575434 -0.9631648119040508 -0.6555845120503677
Ni 7.795673182611246 5.532896736464668 13.406534243734106 1.0442610051554337 2.4195592556359107 -0.8708133574538227
Ni 9.227737556039964 3.477423353826954 3.494519412033034 0.38432387256332523 -0.6446346979070833 0.26330693185760456
Ni 4.742295439634415 5.401934443890291 13.237714652842438 0.47895666684856225 0.12410997780874755 -0.053993937717952176
Ni 6.004336617678834 1.7906710203920946 1.8299615829377602 0.9915585325553956 0.4149156293072532 -0.5638766047214095
Ni 5.503331560687731 0.2403037614551874 3.926783091876067 -2.332203968848693 -1.3991038375405067 0.5896395726181264
Ni 0.988352390105541 5.219209659039364 6.128806570131744 -0.08412058190000352 -0.5396143897399353 0.5510542561457606
Ni 3.2426642345632875 9.112504611897325 10.687638564214144 1.4496283286526195 1.165854901410547 -1.6878001560054934
Ni 2.9607264438711742 6.191185903906379 7.458249599763507 0.2387133016786405 -1.375091276675993 0.6256614992386902
Ni 2.3661327010979107 3.8859645890476995 10.581764488649721 -0.6362670426686784 0.7382444502444447 0.6054276886903186
Ni 3.7921415565964125 5.68017893107698 3.516032436258801 -2.358732868377157 -0.7181574496865825 0.26489355961843414
Ni 9.182836734235421 3.446761435638507 10.817191964613736 0.48615704125174347 0.2999253544115867 0.3711138016309544
Ni 6.060748547870845 4.931347584551745 7.827773989348126 -1.975718458653875 -0.6031898004987355 0.14761731690206836
Ni 0.9057367527585358 4.832828244851173 8.903239598074538 0.9430929808548403 -1.218208989532231 -1.5002533498983386
Ni 7.355804484661736 3.858864740229968 0.9060451529751057 -0.47896515148899443 -2.1765817793642777 1.3735123622246472
Ni 6.641843922502451 4.746448062611328 11.488958877690221 1.7057053184206883 -0.7074056104867171 0.38773649778929997
Ni 8.879282806783126 7.141874097349989 6.577711675642751 0.3632495683915292 -0.9936784071118757 -1.82714854803055
Ni 7.172132939267539 7.154266349213372 11.58337715068109 -0.08904912954987244 -1.9254467069825163 -0.014605408618000653
Ni 8.512689625335934 9.080708455830308 7.841163620635309 -0.9500501288989638 0.5605339135014217 1.1911193324042906
Ni 2.7928592378428347 9.340242704953976 3.989152114397262 0.3808068605490022 -0.25151508142899914 -0.38936760563481976
Ni 5.439936099755765 3.045588059695083 13.324545718073683 -0.13012867319900168 -0.45790858792901135 0.854036137995484
Ni 1.890624561707718 7.444518759726076 0.3258140488592369 -0.5009941062645759 -0.8748795571033965 -1.0039227105477033
Ni 6.803721227667929 0.08501909678556137 11.057902551886526 -0.8678473328469635 0.26058053406537707 -0.013948491760292106
P 5.582859446322332 7.938174705173386 9.30990231039557 0.1656348365254115 0.06555104642793226 1.580140353332969
P 6.842032221136649 6.454141614399287 1.6209712234111897 -0.2268777424962931 0.3306690633523466 -0.7751359239541553
P 1.5166635209832051 1.9357222347143261 4.014053791458591 -0.5599255904934615 0.43140642787342476 3.1976820301325315
P 2.374775406255278 8.024039324741155 8.294212912643143 1.9144462421069544 1.2766424510787755 -0.9292002820331481
P 6.681223536782385 5.786994142864612 5.865911789772809 1.0385004485225728 0.12063101812121162 0.41606182709655437
P 7.085368428490327 0.08743755441094175 2.5886964197002595 1.8032295753211074 0.08891517507516945 -0.8257838280180101
P 1.379195764873891 5.0363067707199 2.8682888689277597 0.5077319392090417 0.7483974795180466 -0.6091966688144477
P 5.238435459774461 0.1281857532385714 12.935429946950128 1.2454423713268874 -0.6569142866053848 0.07977567466774649
Ni 7.059102853814684 1.7468669409990618 4.377266756550309 1.0273341474931084 1.3271008648396434 0.20425152045634504
Ni 4.975629731149795 1.627959441084527 11.303840007267501 -0.9157073897530358 -1.302810624833711 -0.48746470431957345
Ni 7.723513156253967 3.0160228839181458 8.84541127661433 -0.19480991542747095 -0.7311273795836892 0.04353160473404761
Ni 3.1973322148875534 0.6314864702004319 13.150649240942068 -0.39914705361908676 -0.20825447096815103 -0.018586247642619604
Ni 2.941613129537257 5.519145273920354 1.1699401249178696 -0.7444876029406791 -1.5638704125283518 0.23449360717033807
Ni 0.9337111833454452 4.872329719399052 12.841025734759409 -0.013580052677279837 0.8359520268002635 -0.07438252867663318
Ni 5.232989243183972 5.685587652200407 10.066139949051863 -0.6706444917072837 1.5134114845468516 -1.2263701851867848
Ni 0.5496198048079536 7.156975396708469 8.664710309597973 -0.8498056448539042 -1.650643601559854 -0.009249029402093748
Ni 0.5469510649399466 0.1917208847853372 3.266815064896737 -0.7491536409577808 0.17602312173827106 -0.5651423588077106
Ni 1.6005315069300197 8.002788768784809 11.49989349327164 -1.0786747067486133 0.6312212527146549 1.020367743477604
Ni 3.9435013832515162 1.841674229460678 8.779982623981025 -2.788164431912398 -2.222005458914715 0.41678250731266286
Ni 2.130820523695107 1.8519854829022222 2.1257839450822513 0.573149288272587 0.3929257552997233 -2.440289031984094
Ni 8.230123785570564 8.06141293153337 3.956170164184468 -0.3983261003796882 -0.1254243257447969 -0.2511700393847545
Ni 6.169363542077366 5.998018631479197 3.740799950937611 1.6322123914378601 1.6586960395506853 2.4872898262136647
Ni 6.677099035405767 7.841942588963484 13.679636227613493 -0.6072104916223542 0.4284979959773782 0.24535986046088062
Ni 5.042306045449526 3.719925287038543 5.937212232547735 1.6258753934762389 -0.744467291225705 -0.9033560672765345
Ni 6.812551410160597 8.978411447823426 6.221605976332288 -1.1812851199226884 1.3571812291647916 -0.8945284416825756
Ni 4.039621013060239 0.27585040161489627 1.8756479347772133 -0.07286814891463579 -0.2775477580473349 -0.5244453953089807
Ni 8.542807859252008 8.219953140130494 10.312942612335252 2.072864249168953 0.5507035576745613 -0.925686869563251
Ni 8.160588441907494 5.086185115776678 7.8169902930216235 2.9672427955372256 0.6912637106195322 -0.8244771933914447
Ni 0.7572903238940065 1.0500043118192102 13.014441332525976 -0.16883226041678664 -2.238465661353267 -0.5616009213133554
Ni 4.611914326799471 7.184553312731217 1.2700389611683511 0.15983185669038924 0.7162723168487277 0.5226996162624674
Ni 8.633284421268176 5.711572010873098 4.265931466208573 -0.1359069704436756 0.0022571714652928868 1.5337003167028749
Ni 8.848564645394088 5.931764141183892 2.0331626423502422 0.3282445130712541 0.7460431203532571 -0.9871190087268032
P 1.7218012212693445 9.241310915115742 1.246456187160863 -0.4864113233543946 1.027889762886262 0.49272132473282243
P 8.895668325888415 9.10319636219964 5.75058510696252 0.34067296864259394 0.34866215749565754 -1.4929704430836803
P 8.926817685148643 2.7896721231427213 13.081159829226149 -0.24446511656075315 1.0377046920941548 0.0026376947331631997
P 3.5940436302508183 0.3854580883118345 5.910994464592593 0.9310550758536997 -0.32632338478914125 0.5746729240059653
P 3.957655922066727 2.854811123292985 1.223368353318569 -0.06904311874159076 0.3526126575029734 -0.24443040666807583
P 5.592373921088848 2.8196872445243795 9.330124553167792 1.1887760289830944 1.848800321972371 1.5652647217727171
P 3.1591430816867794 4.363534979126202 6.334957585415183 -1.3076281008270123 2.1896625238076353 0.3111222515686706
P 6.31834240657415 1.9553698594538504 6.556748897396092 0.37011389961153035 -0.5291255743934694 -0.7210368281169066
