# total energy = -340854.9904494612 ev
CRYSTAL
PRIMVEC
9.46810920092171 0.00000000000000 0.00000000000000

0.00000000000000 9.46810920092171 0.00000000000000

0.00000000000000 0.00000000000000 13.85753486668990

PRIMCOORD
 96 1
Ni 2.657650853630215 7.179288324600178 2.2590690289431805 0.08018396584975868 0.12066778489641798 -0.44209758903868374
Ni 4.801846156600937 5.3902512580445086 5.4380708893216765 -0.10233221981202377 -0.7630316844914535 0.07712229620529944
Ni 4.12693094329353 6.893692284952511 11.584940513601971 2.6155531640691536 0.2489699464096422 0.6536109332637646
Ni 0.6727687929988232 7.923642649258069 9.494115994210679 1.7294517701080083 2.5403591952348186 -0.8418622216371113
Ni 3.4236114030088323 4.529372916016778 10.157669476727172 2.0812668714103513 0.4944845872808323 0.16240938760957835
Ni 2.839968760388453 8.894957014573505 10.52314889875487 -0.41766388147635164 -0.4574367904989154 1.2215707069156123
Ni 4.321121858728275 5.791130992784007 0.5095329131039298 0.47003468176858404 -1.6072899171645674 -0.6695895680802081
Ni 1.91596653570819 5.267582437938582 8.635516626017427 0.49441285350263237 0.6745937061630188 0.8724886882737166
Ni 5.655661289320315 3.703687535113912 1.2579547373849684 -0.6570916927235135 0.08581802420708447 -2.262352495273194
Ni 9.386493892915524 6.12023299325189 10.355499933258606 0.002624582107040641 -2.350643920721436 0.09310684455901386
Ni 5.200112693258524 8.877658779444335 6.7927830729329886 -2.0940354839299293 1.9188240594596757 2.9629608803324197
Ni 5.223233815418038 0.908034258864529 1.406332313838041 1.9122325222850873 -1.7926122048165771 1.4188141714852402
Ni 8.82040512436711 1.260707116669068 8.802514185615014 -1.4450877604697887 1.0700296294791056 -2.3019392564268806
Ni 4.454139321962928 8.002549869600983 0.6124645132042362 0.6455780356569591 1.3598616042104323 -0.11249964726332883
Ni 6.183489429430317 6.9861104968276235 6.678638391352947 1.3204828453024935 -0.8437522395709727 -0.44127457891675614
Ni 8.013750642539028 1.5873095363629501 5.816034959866796 0.21294673423749774 -0.700531251964387 0.039334278823248386
Ni 5.682039440973225 3.786959553702336 9.390419370903784 0.9378828974088105 -2.8367163726791724 0.7164949743824951
Ni 5.91760599270489 2.585210351729131 11.854040266952127 1.1113827385045956 -1.5463581146762013 -1.5681739249997122
Ni 5.542933983656439 7.9693073389285605 8.951468369905724 0.31931481468179207 -0.4838931849182311 1.0135100971258222
Ni 9.451236822205761 8.691582033416104 6.51536937307658 -0.4288510084414227 0.85354428596073 0.2518819778501146
Ni 1.9595861138363162 6.8049761036934395 11.583097072781145 -2.111450594082583 -0.21683141400388464 0.4313562913617797
Ni 1.3276182429185728 5.517843494826499 3.3122692816905492 -2.5680995985728803 1.0118159972528509 -1.00081681792887
Ni 5.037942922436178 7.89941375834644 2.846739405128939 -1.6806542889893312 -1.2020637472309361 -1.1426476100561482
Ni 8.117322286807223 4.276640682681837 -0.18242584320075103 -3.350339223451353 -0.0582632545172674 2.906917002063974
P 5.214210707548252 5.730317328725627 9.828442497220585 0.8485437474223451 3.0739132377132865 0.576634161497394
P 3.2678988825193236 4.249997423977138 6.965655594160378 0.07826335178827812 -0.12488285141903008 0.26803004836488675
P 7.379595638444033 4.510512442903857 2.208101251426029 0.32826071102117016 0.6428657789321186 0.4146130104651698
P 7.852925343193608 2.2280922167526462 13.121879710125192 0.6184852932052252 -1.365017694490075 -0.5882969425473029
P 0.1590841141017127 8.577387170858401 11.628397240255428 0.5791196469234091 0.8107091930730748 -0.5071858368975846
P 7.503031375378346 3.1487616670675735 8.14594343348044 0.13611702957195268 0.054175714711455096 0.4647569783094125
P 2.7247040015146067 8.676783379060934 8.243321040845787 0.027178874407637058 0.1856552455113964 -0.2788821605880423
P 0.9434743376340948 1.7204879574504743 7.581817403926157 1.2689083156593115 -0.4537025202674638 2.352617499508039
Ni 2.1891309482487955 8.15514738223198 13.741491698807815 -0.5823391823019712 0.021975218719510543 -0.4401828885144742
Ni 5.220743702753029 5.103964046440394 7.6674848540896665 -0.5928987029853724 0.3089059606436422 0.06764520995279963
Ni 6.75234288580452 5.605546588423381 4.356435064837342 1.5402987958559988 0.07342582119031871 -1.4717318454198784
Ni 0.5248551538863797 3.514079184431503 9.61586830136614 -0.04746950633587308 -0.36840797266401715 -0.0354097469578616
Ni 3.231285705045596 1.6946305517921474 11.24846569666168 0.2766023634149301 0.848535777002545 0.11127065995223417
Ni 1.0401853901263747 1.140272770285355 10.21763101097623 1.7847117190225779 -0.4017125003534179 0.8062920378419857
Ni 7.549642875948081 6.250466832442768 8.908717964183104 -1.1774904287669463 -0.4115204875827751 -0.7964069175177898
Ni 3.310704203274101 6.853055161157001 9.311210117884013 0.6389451037214738 0.677437346259401 -0.2667511816524632
Ni 4.360821639733534 1.9028626728626663 13.533961164613634 -0.389470192650955 -0.07021014246649844 -0.8757681303559369
Ni 7.223930458499487 7.981000453534211 3.270876602797443 -0.015051495016483753 -0.4839986001478438 1.6282567492242215
Ni 2.5342908615678414 4.810471603893041 4.908089701226795 0.6618711163900278 -1.6585232614182468 2.2773955056492454
Ni 7.869806981527111 8.72226817466057 9.30017977090783 -0.6604233281999079 -0.5013671733332784 0.37918089490980506
Ni -0.06738737213182397 7.793579236029054 4.08254066109342 -0.8681265546502791 1.2388999422226792 -0.9034481127697086
Ni 0.628210925269547 1.2324164069996864 12.98025573581642 0.029467413331497636 -0.4975850805830269 -1.3020706613438928
Ni 3.8965150428537467 2.6642501255979387 5.3119121242411405 -0.9871943420494288 0.7765842263649078 -1.173706793354798
Ni 6.419576727156565 7.1434325958458444 13.45669192712641 0.6666536253803357 -0.9676773550624238 0.4912264853548508
Ni 0.5869602680113268 4.556054047157447 7.210976191776044 -1.7355424563867787 -1.973375669453311 -1.6035420200863608
Ni 8.476381384127157 0.32377240191604484 2.3660075327690833 1.2223677488956108 -1.6465468057826609 -0.39428509754109514
Ni 6.523706989855314 0.9387478576250736 3.6153472377818394 0.08249178804732889 -0.6688645169887255 -0.21798481088203747
Ni 3.283152006106129 7.293502123375864 6.603281711882194 0.23121056554369213 -0.5012103360404401 -0.04935129673961823
Ni 4.825601642062945 5.19624023668062 2.892012115087144 -1.0780455578050467 1.3189877488142059 0.3362259886148338
Ni 8.60348127924154 6.486989663182669 2.2323661211518293 0.313790285319137 -1.05990873899502 -0.6880354334902216
Ni 7.5198183326219254 2.107676806586918 1.5414431759709202 -0.4753892612122781 1.3942922750844762 -2.344998035289568
Ni 0.5800939953700164 2.8073132524735604 0.7858180143684406 -0.24141244577735843 1.5350231492793565 -0.8229931526467503
P 0.6245581288202675 8.089542855023431 1.4148261544151504 -0.40602089792078455 -0.3512607714607692 1.311739551892225
P 2.248505459740326 5.803723577743938 0.030891599209602248 2.522191008966224 -0.21447834039067576 -0.2670576571492884
P 4.035781458023403 9.154032880933375 12.728547005063561 -0.15306574161114928 0.6924489891768849 -1.488223158206682
P 6.050131114271936 0.6179910484231178 10.193602843975242 1.3017459310146227 -0.44660421865978567 -0.003609314617813139
P 2.0048910153650947 3.7842895469664706 11.30346594179871 -2.5474382135687867 -2.347045918957532 -3.7818682929455707
P 6.28397447016698 3.0432301242379456 5.479726781644773 0.2642225016933385 0.6974125038297473 0.0216016374301757
P 6.84443918197389 8.535793768054656 1.2621869821045848 -0.9435349534882653 0.7069816355754212 -1.0805765517570165
P 2.3739863082170043 1.6609903605420426 0.5934269864531566 -0.8005389374082922 -0.3677695677490698 -0.5174746204181023
Ni 8.31752545145216 1.2424241982046853 10.984022359314004 -1.6230176123124693 -0.09139294719170067 2.220701395391311
Ni 6.662802979063106 0.857317386235677 7.74012607990139 1.8332212365871912 -0.7951385923283274 1.714652243201331
Ni 5.2546963415998835 8.94238277251659 4.738001750854081 -3.9792128018694375 0.5234470359514534 -2.107367939372777
Ni 5.586544093675572 3.0785461707797106 3.391492736873811 -2.4693113873583727 -0.47037072495176413 1.2103964354663477
Ni 3.061020701034722 3.787243596972109 12.907836063755118 1.4230418364133428 0.7463274843628953 3.408967831727839
Ni 0.4487504938052252 4.080546677339614 12.561397955722096 1.2386281766185314 -0.648864676828031 -1.3816427046412658
Ni 2.266154014902216 0.25423103498844296 2.566872518232592 -0.9582658319405368 -1.0051568400651205 -1.1361674016484433
Ni 7.728372369398187 5.074423546384012 6.473464469486982 -0.03231722407546692 -1.1797635410718392 0.5029869683248885
Ni 2.6820122980677383 0.6769631652824698 6.407779463351997 0.11662472517529593 -0.5661283768700638 0.8600499482897317
Ni 0.5222126046665924 2.1539663914509095 2.837676531201385 0.46627907138089375 2.0161362003492886 0.518841675968958
Ni 4.194163985248777 0.6377490982685213 9.069382305675653 0.6889353195966715 0.5454849895880993 -0.8805660659652125
Ni 0.6056853471656563 6.487605090267177 5.81417826369338 0.6439333009646846 -0.5814074145163213 -0.30921089347857067
Ni 7.691172169166929 2.8881803713779077 3.67325797962314 3.84125383399274 1.3324353896786794 1.672203587118817
Ni 2.5678931803819762 4.434483527694642 1.7663088709193409 0.1723947809570644 0.04653902410180372 -0.6648124584065389
Ni 1.0245819465068495 2.4497122439384613 5.765690183921347 0.03809577843045697 0.7489947467824133 -3.504405381302558
Ni 7.769397685662388 3.857837817619669 10.725509845439184 0.5099682847387281 0.24147980868018412 0.2737520384503285
Ni 5.111841513122096 2.1480866957666103 7.09660995644558 -1.0575726346626753 1.5006271882979898 1.0793527066522441
Ni 7.156100925677716 7.214651711686905 11.18364039482321 -0.21383222216624462 0.29846471070566016 -0.2675351110063392
Ni 6.389808992484364 9.407891819238415 12.749305834029464 -0.6773887524096528 1.1573844020456907 -0.378619108869064
Ni 8.720062105265333 8.807727326426246 13.703757497229383 -0.45854339329953286 -0.40293300302408025 -0.10967657599223692
Ni 3.543809046667734 2.281179903873203 2.2554664134715607 -0.1128302911298702 1.7671675394912274 -0.39722592533697393
Ni 0.30397742644557085 6.062117740256354 -0.030864141693524205 -2.3462007973484176 1.7236253932342187 0.6005731888114947
Ni 3.0314517966513623 2.741206915488412 8.676285356527933 -0.8732150249167799 -0.08812353241180952 -0.725858417875266
Ni 2.0606013686765547 8.230399912503819 4.669947823849189 1.1676670149186212 0.6344916959358106 -0.0895803194629941
P 3.532049655299136 6.597179515636573 4.247334044917568 -0.11182704667633644 1.317148638722938 -0.9315749529129117
P -0.040973241664742 6.675954182453593 7.851679340050204 -0.29932397338216193 -0.27969102964258286 -0.06033967743032189
P 5.307083388655001 4.165456678783729 12.992062467729982 -0.6882591194652534 1.019957395413063 1.02177927911315
P 0.2784589790891728 4.438270771291615 4.974564347651749 -0.8801883709108196 -0.23301162330817288 0.03179220480993235
P 3.7060166899260496 1.0344855885129316 3.88283930622508 1.2742191863492636 -1.09924687447301 2.1126793242833615
P 7.091982891580979 8.638901474982221 5.435216254460459 3.3989919514620492 0.36010999432128304 1.3100565077628472
P 0.385869941553798 0.6122192891813323 4.061282862783615 0.41588570653000634 -2.3821561323971037 2.7290051479434227
P 8.368899410845087 5.66370918196388 12.091738090017987 -1.2455709264849517 0.14745945116796538 0.03082238469749531
