# total energy = -381167.2794159982 ev
CRYSTAL
PRIMVEC
9.17940659405799 0.00000000000000 0.00000000000000

0.00000000000000 9.17940659405799 0.00000000000000

0.00000000000000 0.00000000000000 13.43498941903908

PRIMCOORD
 96 1
Ni 6.515129527006237 4.32307812028333 6.772188703428142 0.36051931394455977 -1.2402119761658834 -0.9675269455274884
Ni 8.80703451559158 6.732800788883784 3.7528625795853423 0.6337427335849279 0.13967903589159814 -0.00017406368401905506
Ni 5.506964511160532 8.795762204640386 4.837805067765631 -2.1315717903124907 0.016798559614577522 1.9376193377893083
Ni 5.7327320094053045 5.972764305058996 10.634545995325462 -1.2890189703662576 0.33897784032835815 0.3058710304720603
Ni 3.748061750084142 8.836830868480481 8.446389410700759 -0.09306724957033004 -0.47432611005508635 1.5520824187544884
Ni 5.320595024807061 1.4723033372016883 9.01674539631532 -0.18476512959695923 -0.6074647737250054 -1.7999426770397196
Ni 5.146094510815066 1.1997759432033535 13.092947973539328 -0.08223853438594224 0.44439486971329273 -2.1039555712571185
Ni 4.41527607728152 9.174431073824909 10.742549972052366 -0.6227602664314952 -0.521928799534714 1.1468675616747668
Ni 0.3174477367269633 5.486063002988003 8.7673106347762 -0.7197528191981604 0.6432223909405891 0.39198601709427333
Ni 1.8848074980524132 5.392928746545984 6.850299025559236 0.9026101902494453 -0.3560777332334384 1.6270853546239397
Ni 7.638422656817623 9.051105750022572 4.266737678161886 1.5557812077623143 0.7656015021011588 -0.10757598470946635
Ni 6.5884087275953 8.330614148590078 9.898026232531505 1.0793573346379346 1.9837277021115969 -0.11922848134673016
Ni 8.7831221621487 6.82170333901595 11.483315210265644 -2.16857022191371 1.9165596889055316 -0.9242010290463438
Ni 2.3044624164202223 0.7830547630928746 2.8915056447694525 -0.589185001579211 -0.22325942901741552 1.3093337706642096
Ni 3.533364615851698 7.497959381430694 1.0634186162598032 -1.765009098387328 -1.5179291699115471 -1.192071926125547
Ni 2.3428415142108867 5.8360278686347575 3.9336436433760396 0.30244503550964685 1.427647453506154 -0.48519467733847405
Ni 0.918546472021199 7.742370253895232 7.762226227688818 -0.9384241146242612 -1.9565917651267533 0.4847853577151974
Ni 2.759072514024302 5.39654543263293 0.0031393569587197453 0.717342667094771 0.7257231778489824 0.34402465872364624
Ni 1.7134463410191376 0.019153749210715266 0.7406853773783636 -0.9565511632422752 -1.4522472543327054 0.7989111719968822
Ni 8.659962067659977 2.3130543407282973 11.849418390149609 1.2531646796718094 0.9301683023733723 0.43287067112377703
Ni 7.085179838390608 4.904767918871376 9.081340878533188 0.4493604412486842 1.0410373560118136 -1.334839371134482
Ni 6.1283827802671125 9.118289824820437 7.259986026612793 -0.04963591785957258 -1.073845146570454 -0.097871870047825
Ni 0.6589354206445441 8.88716155328943 4.711005338674183 2.3087701633057853 -0.024919388949499018 0.3961915705351886
Ni 8.68464549123307 3.3999327656997966 7.710998714883183 -0.7373895584433171 -0.4193574671286907 0.1196452571691746
P 1.2166201537859578 6.901270432928765 5.670748068283214 -0.9197694756375514 0.7436882469678353 -1.4614453758922055
Ni 9.097847286963509 8.826834495006663 10.234062267040365 -2.1981121972368856 -0.3393071986433189 -1.0999621553724799
P 1.2386782671538046 3.479701806551476 11.036373588694648 1.1334528309307577 -0.29767409648356474 -0.6275450894146484
Ni 3.889176763319226 7.705615911021799 3.316937163529432 -0.7817107489581957 1.0628891617795824 0.6792445746714688
P 3.1266893780091216 0.0010895955292398649 4.752506352551575 0.4427411361599537 0.48125574729538406 0.9743221140724511
P 7.098600130418818 5.893289005209302 12.20979821019801 -0.8368141176902427 0.03344850946643272 2.062490362133796
P 0.8389720345833342 7.1275244397080755 1.9005538516400968 -0.008854879287468621 0.5147032283205524 0.01680061649710655
Ni 8.20091831680718 3.1055308464598554 5.21317853008413 -0.7541395242081463 0.6781153461630322 2.0230799786569738
Ni 7.232848947732491 0.6888612031624454 0.6081200631823196 -1.2961075017819226 1.1605139488136076 1.2771031927652778
Ni 4.411319753161029 5.521174232131579 2.8248539755376867 1.0400189420496282 0.5706164945484044 -2.2885425234050008
Ni 2.2022221889166533 1.2054579957105098 11.408334147746327 0.47542988464222635 2.1418240641681177 0.32396645452119044
Ni 8.552333528651237 4.373151781715541 0.043167076123027705 -1.3781930555297686 1.036777552294195 1.1597619011389315
Ni 0.5348996107936532 1.7646766076466667 9.682623201953666 0.3982229991429206 1.7798806161825216 -0.9712337049551143
Ni 1.245948356952945 4.812882061687795 1.6855134076115816 -0.1990910593013281 0.42635986658845276 1.4703966715482224
Ni 1.8691382514777506 1.9642001832452993 5.207523097855278 1.1676384756735312 -0.07161756433698634 0.050842536573164045
Ni 3.4012362413961066 4.564680094416382 11.081971371609106 1.115768783387433 -0.6908363932741264 0.5084420779021889
Ni 3.7952622573406827 7.5119212584313155 6.6141257523191275 -0.41924588125149087 0.23175923895831052 -1.0718258021475797
Ni 7.092872180880102 2.706070621978548 9.725064187037411 0.9252400118338195 0.9310990417177577 1.4689478549168378
Ni 6.035790108797505 3.660793134275521 4.109548606533777 1.062272868351822 0.7143614729792601 0.6001556416581019
Ni 2.3059311214301492 4.240647051601157 9.167579564953598 -0.24128723305340377 -0.23709684912114007 -0.7251421085345318
Ni 6.389371660531205 6.599772832609612 6.578550045216162 -0.8479403095103913 0.8078131024722022 -0.5514093254923341
Ni 4.851628335730941 3.9921788815466948 9.150261697005293 0.7617664446257848 -2.468265462592362 3.584348949006737
Ni 7.052400178450291 5.56977000914755 2.0851507946347114 -0.7223709735472978 0.4440667969499127 -1.1874547390685097
Ni 1.698364576448446 0.5144433038272586 7.274872269829039 0.7507006737299264 1.0893098178649563 0.022031268768426572
Ni 9.147755719082104 0.37318417391307573 2.0457858286061334 -1.4064937022466744 -3.372891654830572 2.0735134527171772
Ni 0.795892162820271 6.484947639052229 13.292900227412733 0.5457927506365051 0.055505746376788276 0.9316569711037568
Ni 4.059170188812007 1.017041501749453 6.725837291255465 -0.19582164452143694 1.1523254994655445 -1.9925039056423297
Ni 6.050633208804083 6.997204408295958 3.622328668006154 1.0173515823590995 -0.5401162690770182 0.0657806459402351
Ni 4.550846729104129 5.7219737452075865 5.320981477812799 0.29359786953166206 -0.23007079551229412 -1.57235273896775
Ni 5.419475589600421 7.172852348076959 8.52491739581905 -1.2395254916218201 -1.1062104502750367 -0.24024362228023788
Ni 4.480660988442225 0.37526973502717254 1.4519727881017686 -1.2151200661942623 0.8506415104916383 3.7890121030792034
Ni 4.450111924235735 5.2059442399696065 7.600589733702525 -1.6627552972217234 2.7855161956562737 -1.8930623771145398
P 1.9764455112655688 8.952592361481694 9.632296188907242 0.4808700818211911 0.2286877991218384 -0.4078875188158782
Ni 3.3851906391626505 3.7844213784861567 6.050393626299338 -0.10988740645146237 -1.128586761087708 1.1439596439993525
P 7.091210708337622 1.050344387849556 11.524909854087419 -1.6963524164508785 -0.3273919352629716 -0.5410539503999391
Ni 0.18818884468451827 2.285690530512088 1.1593902271928758 -1.034143714215774 1.1178776022003198 0.07682327690764189
P 7.032719531317264 3.1810406427827465 1.3400537945827786 0.4134380163204621 0.4616803962666178 -0.9503157238555245
P 7.226487619158244 5.473909469030854 4.537492528801364 -0.06215770447566714 -1.4307595167725746 1.021549679600847
P 3.2297924697060227 9.080608361909487 12.905986415478733 3.0498765084790573 -0.36070289071027556 -1.9835302413888096
Ni 1.6893412200437048 2.82402599308834 7.475550614741727 -0.5531875004386796 0.8713692299572927 -1.4659183240618947
Ni 3.778261996850774 3.7856055219004103 3.8953269655482967 -1.05387847364054 -0.9797553692728804 0.45486543022731346
Ni 8.507372796534836 4.505261797358508 10.932856505773072 0.8850654964974628 0.5399383487382573 -1.0545950400915902
Ni 4.968500536895911 3.031599908022637 2.068800436111695 0.3933106494429678 0.4941871106450714 -2.504599778247022
Ni 2.9150489860785886 1.8854225182753201 9.046624363861032 1.2056571210091493 -0.4708898306800277 1.1659217500927403
Ni 5.2248262787534845 5.8096829725191865 0.4895671127216138 -0.1323760744722817 -1.4548101299638752 -1.4112178471952213
Ni 7.988277369588633 7.485089853781205 0.6961716823493588 0.9174580538955553 -0.45319035651773565 0.05322183543861801
Ni 2.7332600234748288 6.6533071302214655 8.955199312874313 0.4637568191796723 0.024893935028202287 0.5249668150300895
Ni 1.4362558086142834 8.305737957484434 11.730760794456945 1.9621551181471437 -2.332442053001428 0.6851509128535749
Ni 6.6935221092745385 8.259079035200303 12.138136421001128 -0.39458643083159783 -1.0202296752378428 1.4805409590710759
Ni 6.421334353309749 1.6797212022286807 5.585153776185909 -0.5823019013061326 0.37382091614947227 0.76664742686717
Ni 5.227570921240787 2.2519470329090066 11.124909880514963 -1.0316836827110554 1.2130595841208076 -0.06191293545471273
Ni 8.124775141448758 8.032935181296736 6.150994411835576 0.853910411050897 -0.23191324803767158 1.8482447065792167
Ni 8.36399964934699 4.0057827617011466 2.9087822053893544 1.0224529081414069 -0.5396277594763739 0.7142516868742732
Ni 4.075895067112555 3.7125649858754604 13.062316294676032 1.446316490670567 -1.905103881660106 0.5656565794399677
Ni 9.0326092463038 0.3334272472349731 12.862470521915846 0.12113855388524944 -1.0678231087460899 -0.526359581612558
Ni 8.525630635689495 5.576149696534423 6.422905867670372 0.6287751051670073 0.33014327275586364 0.01663812277731328
Ni 5.773516111649725 7.868357605528064 1.116451718287018 1.2135218684692068 -1.6553973141947553 -1.0037278209280778
Ni 6.986611373411857 1.6973915593793691 2.9998318186579076 0.09450912422317918 2.2323680330959617 -0.2637278214451071
Ni 2.887519946548762 1.935606332583276 1.0784921193648138 0.03828012652712117 2.534818725032564 -1.0735936926812801
Ni 4.583121521697282 1.5654375936437073 3.7450435612887416 -0.6110231805002252 -0.964698474939758 0.859098897230372
Ni 1.4204121533196918 3.469595280201913 13.235546378834439 2.3430784496693517 -0.1955650484259406 -2.392456485881848
Ni 0.8531101561851475 4.5041510891947505 4.899754127143737 -0.3614024878804615 -1.1447769976943252 0.19765047020005957
Ni 0.0877661396307346 1.9539192481758076 3.766392106548667 1.2545939559191686 -1.0545361618291968 -1.4590169689563712
Ni 6.743806897051927 3.8031106497374823 12.084477283463432 -2.569844349178129 -0.8189518926978411 0.8932369765646616
P 8.104139836059279 7.350134222181504 8.750046925325135 -0.015165909107160978 -0.8625493176728177 -0.6432720132316019
Ni 3.595683605304178 6.769949846228635 11.712878393020448 0.27293468475535576 1.3710273910192645 0.21359748044761925
P 1.8471443939540881 3.4335018545829485 3.29716105057076 -1.5548679519194253 -0.9466084502072666 -0.8105513273389718
Ni 1.4033751752045345 5.763749223333708 11.010927356457024 1.9078608755799529 -0.48630976477952376 -0.32398882311869365
P 8.958421284489843 0.9668485080351852 6.462458093587716 -0.975080075284398 1.2344061681173837 -0.5715660029458673
P 6.4529941256799965 8.943642440327448 2.661148443368657 -1.1272780695786133 -0.15028509354221858 -0.7983139047325154
P 5.0132776808860715 2.9121482936839813 7.273864371015976 -0.0931397546794783 -0.8843371029718705 -0.3647773178899653
Ni 7.77399330864023 1.0972236158851751 8.419922428481236 0.9475998675862585 -1.0047989425050694 -1.1835044961715102
