# total energy = -340889.6518288598 ev
CRYSTAL
PRIMVEC
9.08945057814965 0.00000000000000 0.00000000000000
0.00000000000000 9.08945057814965 0.00000000000000
0.00000000000000 0.00000000000000 13.30332969686566
PRIMCOORD
 96 1
Ni 6.107937982711322 1.9220915436241008 10.971388407492121 0.30109829167376534 0.07817130629510409 1.8714239729091575
Ni 4.773206725230438 9.271421217452877 6.025197624482707 0.27991085896287277 0.7709059450332079 -0.7449635141358332
Ni 2.420538825758452 1.586509034116091 4.671929341815186 0.29053131479119637 0.5143216766114175 1.3341991664473216
Ni 4.006657013506481 4.000339845464551 5.161917981388645 -0.598706310806085 1.0243395836411586 -0.9374586653871985
Ni 5.065441645685261 4.337149430779267 2.8114988119505773 0.6174167427313948 1.0468495918182164 0.18402619454840563
Ni 7.272869216895369 6.069807738199239 2.6832412128535106 0.5134991807101221 0.7485332337649625 -0.25575380210069504
Ni 4.7862773549344615 4.329686991984411 11.629504611485126 0.652915964079269 1.4417967484233427 0.7129571364325656
Ni 5.602755417815718 7.859275110744482 12.685895082423267 -0.32133261644276917 0.4568130408719875 -0.46939859084648194
Ni 1.8074463054760908 6.481105369706212 0.3653750011497868 0.8703970958520106 1.8139893849407727 -0.3880188049164092
Ni 2.7841986476139766 1.5758198404221195 0.2780435615140079 0.574398587298656 -0.12641060091746617 -0.28247964813131354
Ni 0.25344932656745384 -0.16533437630546716 4.617146315188541 2.431125363206955 0.4492869076982714 0.045051898033315954
Ni 8.847380176457003 2.4551969002100784 1.3091499082187124 -0.5551137709271149 0.8107685855561005 0.5141746095105918
Ni 7.167713364985886 0.3025932581535036 4.596459634977564 -2.0184622773793044 -0.025332051006885407 0.46062238731574867
Ni 0.9419033892274385 7.540744410224475 2.499961534583751 0.5989665064460071 -0.9504386225866341 0.18081411536901118
Ni 7.620649768867078 4.031598465459081 3.8078252855680272 0.3838063094969584 -0.5231991816067054 0.7096990345065842
Ni 7.645754830927239 3.859671510763956 12.672831724279579 0.35073395242302174 -0.7695088075753651 -0.0036710210936840007
Ni 7.920247144162135 8.63384171773892 7.159585578420282 0.7486080528669559 0.13021814758901445 -0.5191988021980606
Ni 6.938704661652887 1.0088471915710597 0.3632271640155305 0.12074157555714689 -0.2604769186079772 -0.8473643824022631
Ni 1.9071575765839692 6.378558190067279 9.434695015348122 -0.7221503728960594 1.5797436321151825 -0.7928564811623701
Ni 0.1672595219044324 5.047280923746013 1.0979637992693352 -1.305961768868183 -0.666626371686826 1.3259726647724712
Ni 6.51614520107548 2.070967652053995 6.97574689894969 0.7688976563539274 -0.8792470900434729 3.04588692770369
Ni 3.425722968810234 4.642418623136431 0.6728692909697779 1.2131151199490915 0.2089137018187047 -0.8078334141871764
Ni 6.022588043267112 5.825801441673168 4.940896178139739 -0.30767645911191527 -0.9781209189932512 -0.5019348729112905
Ni 5.27385365436644 3.1489855613215862 9.04611737411109 -1.1922354482866049 -1.0109785889532201 0.7882349232299587
P 0.20388000870174605 5.84088083992002 12.310754375742183 -0.14325261217546942 -0.6749580314809731 0.1754569648221559
P 3.831166994246699 6.335174243212411 12.624327690003101 1.262618883106174 -0.012467279229075303 1.2310693904346668
P 2.5597710272926797 8.664936727625888 1.3737949885511045 -0.2506895002039102 0.10428214444954298 -0.04572861238536641
P 6.386302401825157 7.7371401654503575 5.925875381852806 -0.14437952669106102 -0.36912788154917714 -0.3619203080571445
P 4.8030201226081815 0.9778794339899711 12.535274708457765 -0.19780859304447868 0.7487648901597943 0.11151954273824664
P 3.8632709331302935 6.277874347764457 8.426355924055542 0.8751652066646154 0.29101931017120847 -0.6560172287124122
P 4.54420711134786 1.0408602359504533 3.985198638954842 0.1265548398048143 0.3836728692428876 -1.2270070474398351
P 0.40553764677579146 5.614817118523115 3.5615675321729117 -2.2217866580356898 0.0805392923066484 0.9517611980527996
Ni 1.4398325726878471 1.2034614145146132 2.457443812353913 0.00017432079433518367 -0.2555226599264954 0.11251533099261267
Ni 2.1599715505670622 6.425487022585965 4.842584682396547 -0.09316623704203955 0.25975006774428167 0.23758818693526174
Ni 5.902234630255315 5.794261048715617 9.561222892030253 1.689539250183787 -2.3821491904185685 -1.8337416278670355
Ni 8.518023940486723 2.078857295018593 10.288688875893065 0.34811271275009076 1.1004205830661369 0.1325138856017266
Ni 2.350640952028317 5.359630797980392 7.132553552871073 0.28698139265640893 -1.4161163129381031 -0.26295186251103103
Ni 0.5375400994459167 9.138806135824442 9.173815972007324 0.9463351419412218 -0.09717073021574232 -0.07569173440635997
Ni 1.5035859779340333 1.008256377293757 11.282792978882815 -0.10230059524313995 1.4169622058781661 0.05181184246496884
Ni 3.974125870453145 6.944721877830956 1.7317211850816654 0.22337487154935723 0.17739120573039127 -0.7868449848609674
Ni 5.79285218390051 7.784841601254746 8.1347199983834 -1.6550975235661496 0.17751847533687493 -0.5373713593420294
Ni 5.960207145034352 2.425074461518054 4.949969267549026 -1.1472573409140177 0.6420777358131845 -1.7881850222831592
Ni 0.7264197881194648 7.075755395086304 6.844988792042069 -0.2893144116649598 0.8069075599387975 0.2943861697609123
Ni 5.138766242223753 4.7717069659111315 7.382443450654037 -0.012696621631062003 -0.2861267579655975 -0.8719788385168338
Ni 8.362439817646836 7.221486553670863 9.413822001403533 -0.8631872083671328 -0.4060286112302685 -0.4741332773179899
Ni 4.573256994890319 0.2178095914704629 10.300169760718623 0.04522236217290922 -0.46204883534963 -0.1659935054164109
Ni 8.281307383197527 6.869015845282412 4.851857739715076 -0.05408983986586814 -0.09993620877602144 0.36315392335392943
Ni 7.23762941761686 6.038021930080347 7.281896859052557 0.8586836640698243 -0.1387138437648514 -0.8988509803173295
Ni 2.1840585941801773 5.283397577307485 2.656461874025978 2.0900091363793556 -0.36142974157397106 -0.8619695339099477
Ni 2.3919888619890948 5.273244661188298 11.528026351215592 -1.2384703108844284 -0.23116917078279545 0.08613195590307747
Ni 0.9880232606587399 3.401036021469396 3.6995226659231237 -0.17465838018026048 -0.27610228385006 0.019906766226256038
Ni 3.6340804407888934 2.5308302171552612 2.545339706860777 -0.27231427756253745 -0.244962625022462 0.24549021539115787
Ni 0.9337774205519196 3.402953895508025 8.38611329126584 -0.1689595300232703 -0.2710464665937074 -0.47386254015510654
Ni 3.781865815168383 2.7224812792618804 7.08934412346427 -0.7050785050154372 0.7939024059283811 -0.8559066155453195
Ni 4.244491573197342 6.840275003054234 6.304860017116525 -0.11632056367131581 -0.04640661228899749 -0.8973543411671449
Ni 0.8701594481169923 7.689047883277906 11.356001230455929 -0.5272137020827371 -0.8215813599008882 0.04836219335347155
P 0.0991377267863736 5.423784139045059 8.253040101336234 0.14212492632892945 1.4348478279093353 -1.5298413479681008
P 8.587440073344597 1.4834255769023763 7.9677231615961075 -0.24013100796177353 1.2088982536542663 -0.22555645258170828
P 1.5422525000208986 3.2045130139376328 10.4532370147372 1.074271435474595 -0.453009093744865 0.34566579387149504
P 4.085244401838178 6.009899170480731 3.7247195314325268 -0.38839701419143435 0.44258609863932813 1.201745187549253
P 6.69957031055196 3.9360683415444226 10.690741627377811 0.2690628605047753 1.024887228614512 -0.2630341378121922
P 6.373259040472394 7.804556619215821 10.264729084585829 0.06775653871968332 -0.30170970000551905 1.2733516961426459
P 2.014067692424522 8.642694842448043 5.9167486646860405 0.756260170095575 -0.4891276938442931 -0.38808102561291224
P 7.051631993671509 4.1052139244110135 1.5470571835129339 0.3267363039568437 -1.349351705818044 0.9058502944532981
Ni 5.191839543226386 3.1147910488413824 0.6584070664064465 0.4702210867477773 -1.0565992150058126 -1.4846683509758882
Ni 1.6229940881021458 1.329313945030537 7.182747315980637 -0.6292281335440261 0.24836342317389484 -0.905866235292898
Ni 6.880659431270488 0.5187822006140728 9.193252852785545 0.11310154251338587 1.2263200486751396 -0.8793576474794081
Ni 3.0286594166610494 1.732649217969552 9.130952850661524 -1.5080371076088157 -0.7004911427550711 -0.3361619681461178
Ni 6.2607043759209935 2.2739805271856692 2.6224455147740064 1.1050804504356515 -1.2525730688343977 -0.3743999285813939
Ni 4.338049286370851 6.830522022753527 10.558839158662309 -2.1978807979523696 1.4536176523176707 1.1986842892357419
Ni 8.183995727000541 7.26256178011904 0.19372436574743138 -0.03273734233202104 0.8209786933198829 0.6241216655553962
Ni 7.319216324587173 3.9877236882815303 8.654853800274934 2.051175965562242 -0.04673699904522274 -0.996831865139193
Ni 2.9534351249847686 8.39476190334051 12.225413525748394 1.4995288130274886 0.21171903247798377 1.1810619481682885
Ni -0.018809708699238235 5.066105175565924 10.277620652116578 0.0823182385839421 -2.1239466696670646 1.9011713793749194
Ni 8.490401100660211 2.326962933684103 5.662694889665653 1.0142945407003305 -0.2563382138492553 -0.24013717860936062
Ni 3.598268006133922 2.4706216975728923 11.156970443553277 -0.1411579344299698 -0.3210806483329632 1.687961621284022
Ni 1.1574233481370926 3.5513482630656568 12.697109646351516 -0.673962243226607 -0.674460008798632 -1.2647346438975962
Ni 3.319549098453705 8.509888882360784 7.79539172635729 -1.180771156400747 0.21434644279850182 1.2934739208138175
Ni 5.335680096123577 8.03577405900089 3.458998537852972 0.6517898208946258 -0.3414800379249216 0.8475734130892757
Ni 2.8938992247334827 8.604510061233439 3.7116025455313615 0.1994283880360888 -0.9294350237517734 -0.04353726116100244
Ni 3.2840184367617544 4.495024095125004 9.524971436919992 0.5506508500597549 -1.6708182767355162 -0.7343528284995223
Ni 7.110022623169869 6.090013586482995 11.61798373307772 0.4422225446523223 -0.05245256137276128 -0.41535065996214277
Ni 0.6840247734702974 0.07297647058740409 0.20156310778967695 0.32605650428099975 -0.7996097407258036 0.39991324236114995
Ni 4.904122079630326 0.3700251639846811 1.379954000155726 -1.0255096926898597 -0.36642282391318826 0.6835604284380035
Ni 6.154739562924126 5.609199838163528 0.501757659977331 -1.6866447022448114 1.1849810807170367 -0.6005647041710626
Ni 7.90454966328672 8.934175338518001 11.310969366239908 0.07573055806409539 0.4226837032884463 1.156447492053718
Ni 0.1423498830283029 4.697028041260053 6.128245632839783 -0.4474447122832101 0.02168031318691105 -0.5447319134721587
Ni 8.287061005313415 8.86139610900471 2.3030858563756906 -1.7906031448063486 0.7445577940569822 -0.4944197954811678
P 8.495273046085353 1.6577248781571328 3.458160490524244 0.15358124779498708 0.36815549033357886 0.22678029768648036
P 1.900849497992459 3.401763177502999 1.386406601008915 -0.8162887440433813 -1.20723372146765 1.6126591518962805
P 4.851130583681472 1.1956263082525356 8.062562487278843 0.623331565553933 -1.7128524709884307 1.0778776647686146
P 8.7547768555776 1.6800667472895998 12.580839214468403 -0.7343587420367933 0.13396373067437575 -1.363182183943233
P 6.43895758810847 7.717579668146423 1.4771084088604463 -0.38056466263120914 0.7587160878352351 0.09945207005075131
P 1.9038671955319135 3.4191512961565422 5.907849183779776 0.48207772897604717 -0.6477845563899748 0.24811968259420494
P 7.0020035943780705 4.050740848043692 6.107984338908464 -0.2518737503199985 1.0386308034528497 -0.032632955543672834
P 2.5280124875250474 8.443963098464208 10.059764704448973 -0.4204648412602565 0.7791229336263613 -0.456318360623756
