# total energy = -340856.9943757705 ev
CRYSTAL
PRIMVEC
9.44741277123179 0.00000000000000 0.00000000000000

0.00000000000000 9.44741277123179 0.00000000000000

0.00000000000000 0.00000000000000 13.82724354981409

PRIMCOORD
 96 1
Ni 5.920797568305898 7.614643116918737 6.822196014713757 -2.1862493843610284 0.23748020060248778 0.8561328726235126
Ni 1.3430442138567322 0.008226807128773512 7.950043279211217 1.3373847632641547 -0.6148371549296766 1.7958371395117783
Ni 5.710129708677371 1.5811851501164862 6.314708392737368 0.36769423442644417 -0.47300173481670804 -0.20594973409437434
Ni 0.22764013685273557 1.0025972436081305 6.334992932914434 -0.4522868708668598 -1.0150712709653549 -1.9576700857925962
Ni 7.978189011638918 8.34846146432383 8.366091281483916 -0.44871920812025945 0.7322000438225778 -0.8806766234011477
Ni 0.9784591037206519 2.3377528677169 8.109263362563718 1.570730887093611 1.5925580102710315 0.0046642382448887415
Ni 4.062387534878973e-05 5.091966589648997 2.076340119330012 0.575884427815563 1.088859360591099 -0.2751790007048422
Ni 2.0770704043450032 4.60531145779624 12.58273617373383 -0.954577327345356 -0.8363744590496629 -1.484753711600843
Ni 8.686414317574272 3.9840023502815525 9.440052392443137 0.6320226655700276 -1.6209049368448405 1.1074000997077638
Ni 8.586725216950915 6.2545935598927445 9.197785770982263 -1.438046537352291 0.026615288594683192 1.6179489395403104
Ni 1.352378257774082 5.3799709710461725 8.500021585319866 1.3801828322662875 -0.8960165961923279 0.6001373868256568
Ni 1.7457401875177 1.3723500885850917 1.618616744655891 1.3968770050925168 0.8341658814341183 -0.4119490904797615
Ni 7.86378084176128 7.1797787024292505 6.033573225239286 2.061370132486424 -0.42694170723385183 -0.4698853006749134
Ni 5.9094417780339805 3.9080829404436748 3.1705319202129303 0.6410300112749605 -0.30524856639671305 -1.3792112123816376
Ni 4.09762638489083 1.3522459939938767 2.059111817216977 0.9728851245156083 0.4350201133666121 1.8409435449321134
Ni 2.9610459319346676 1.2198027129439504 6.316077322862494 -0.6566764595629658 0.9758328942900225 0.1360707497150495
Ni 1.690756244603757 3.418149556324399 10.144910640430977 0.443481613870404 1.083035040599838 -0.032011005688957775
Ni 1.0529141645633988 1.1690134213450913 10.349858091565622 -0.4075494187501691 -1.367571314149864 -0.41693985882613355
Ni 4.744736376958435 6.3592519996866725 12.015640100242745 0.4865133961498976 -0.47467912251913086 0.7312335661442504
Ni 8.842769000602754 5.098589226072137 7.114655796021279 0.5949697265817883 -0.9339020583841916 0.23388091328700367
Ni 8.353496935384504 0.6673765821602151 4.141259261239291 0.2799985335806726 -0.1617835811001214 1.5513501685741542
Ni 3.4549377820472333 6.996404418587388 4.154519649946167 -1.173667198366114 1.7550591862634677 1.303922369840651
Ni 6.704592729802872 7.362444430305727 10.939507029064295 -0.1360920898712882 -0.08479858180363462 -0.2959450296076
Ni 1.6767835209663475 7.1195231031328365 2.8598197372370686 -2.4544349844671727 -2.350004230254908 -1.051589420496047
P 4.145770400885582 3.8790982777529566 11.628282946120448 0.5257422597435332 1.416651873726599 -0.3395936195354861
P 3.4661518611260735 1.7006382384676717 0.06947816374187661 0.08720282036975303 0.3952559460947967 -0.19611037940644935
P 2.371451789430652 5.0178894253211235 3.998548531880281 -1.128263059199702 1.8916968642255807 -1.8992083421112775
P 1.0636369781729051 9.291029846544468 4.585846953056446 0.00736569633645183 -0.4340405230621621 -1.14422678161781
P 6.768504477880677 4.781042784624807 6.498638184456093 -1.9634321850873537 0.9274894699896283 -0.3370672535692066
P 1.8259298279736367 5.266186330418075 0.8294271104091118 -1.0748877289023553 -0.04364730437630548 0.7516131582418669
P 6.202727263226499 1.3836208521411628 8.539857546435146 0.09008039902786422 0.5975642267818418 0.22067675589190383
P 0.755421746419063 5.386688081598031 10.697197894245498 0.7918563220326298 -1.190984092378007 -0.12868294189141063
Ni 4.304902623298376 4.613039441525382 9.464043152689815 1.3406096979593558 0.048854816719173924 -2.03377731046982
Ni 6.492961234061422 4.93782260123252 10.639373114281 0.06675972202405277 -0.02248763957955482 -0.25760782459029824
Ni 4.458517556594032 2.369883518893931 9.654430251106424 -1.4736527165916748 -1.5042336747023257 -0.38297327207270176
Ni 9.145133449565082 6.800739050599299 11.71925302940441 -0.9600481206519402 0.7304465514665808 0.8512269506814629
Ni 5.536268969597423 0.6083378096416904 0.4394190122349867 0.0798738908085076 -1.4225731243070405 0.12663145867902062
Ni 3.3747103519398096 8.986379123667161 13.140181714976356 -0.24378274578174788 0.5113116861405 0.7811906147886676
Ni 8.463342004845057 1.5226017428983827 8.433996450982637 -2.321216359488938 -1.0293987433316207 0.4910557641049414
Ni 0.7551789479082575 2.4949956075553317 13.570955399692348 -0.16936370744022444 0.1280129124075795 -0.4712574984320917
Ni 3.658076053616925 7.169018099168257 8.839922495104476 0.2972508929032171 0.22565749693594686 0.09205294937320276
Ni 4.224835799209773 7.31828722254288 1.1268515071807705 0.12766324237764465 0.7009801665763475 0.07268148682512644
Ni 2.5227332117469707 1.4826864235149788 4.004051649878111 0.5638552645651708 0.2157266109754801 0.011482803828618934
Ni 2.5093462277076135 3.614532927690746 5.499343756387948 -0.6941371755125852 -0.6898107802230894 1.3111199160303546
Ni 6.95073562476505 1.566296027430511 2.588321875609522 -1.2251301421320966 0.4730055914714498 -1.0137702927657446
Ni 6.485970148536281 2.44434802714955 10.620387593373806 2.2657777189046593 0.5764570124895815 0.102886549653597
Ni 9.129573560565209 4.464696164612197 12.755051316067949 -0.6386928785013516 -0.17602594995174847 -0.8360325023292119
Ni 7.409492546407349 7.320941945559859 13.304048035979214 -0.5874579915857754 -0.15356530695538714 0.3761171683828167
Ni 7.266742137914276 6.05003817639228 3.0734370791641745 0.5294294787871333 -2.802734359306773 0.6474569978472269
Ni 5.543647399050308 8.765697006394515 9.051437787667604 1.963320084989522 -1.6517990553205357 2.2747177017067663
Ni 1.169381870447092 6.242718161912877 5.724050471543985 0.24938260846702856 -0.37986609390228776 -1.0176182057569247
Ni 3.031655895738588 5.7862097245340705 10.67206021807618 -1.989576961803522 0.2827478141910356 1.1240107116812514
Ni 1.7677904491605083 7.677610123709361 10.491628803343888 -0.08400796758153918 1.1004090131019113 -0.4377336556430332
Ni 4.098863995977037 8.647217001569125 10.970535167159184 0.010817659440794273 -1.1404925113863584 -1.0123333032089017
Ni 6.764933355815133 7.939681356773415 2.100123036493511 0.5932805118048233 -0.5222679280416876 -2.1033829865831
Ni 6.957944000786243 4.728382905277329 13.808009883471843 -1.7905414383304779 1.7566350153910197 -1.231617035408021
P 4.495598652115892 3.018183884983384 4.476833255928613 -0.18966848043584755 -2.280059425634654 0.9150383887104693
P 9.142903860127335 1.8736487103891568 2.130985844863145 -0.30627237967553705 -0.3715933123705343 0.038165969546760076
P 2.4746458802294495 7.779188706907079 6.8322896306260015 0.19548277312477946 0.7856327097204211 0.16548828364521823
P 8.481367668604474 5.250428045747893 4.963953200494664 0.07295659486338403 0.9290205619221742 -2.0625489832858737
P 2.626654753336898 3.6611086731487767 7.910912095096172 1.7332248639971954 0.7761144858173407 0.4127713292707407
P 3.147141070683612 0.39400624330147566 9.435240825067524 -0.7028478159127056 0.19931268839383093 0.5194278874897312
P 9.225351432259634 8.394007441778832 10.26527634886558 -1.0949693301435788 1.3443385688741687 -0.40947440368702376
P 5.596883570582966 5.706445217657365 1.5373264806003881 0.7831227988143739 -1.1779871658977068 -0.024984180749163424
Ni 3.2212560246629742 3.683952517472817 2.1288006582658947 -0.6410246119583219 0.3027394268216141 0.7590289910899637
Ni 2.9753493150225907 8.831290393963501 2.823536948102876 0.8987198540561038 1.5613736142484271 -0.06121745204958489
Ni 8.736854054896874 7.7168735716046095 3.7870748079337893 0.608139688304843 -0.4249341898855198 0.23415113622925482
Ni 5.180857297359872 3.205129290890792 0.6910196776132107 0.36168479500757067 -0.5362295324281023 -0.02880509715715039
Ni 4.41584359265206 5.140157842708108 4.582071766872871 1.6361988868894335 -1.1913548454538643 1.0003298509901224
Ni 4.6124820441659455 3.7535988451638116 6.965764569161529 -0.037658690893038374 -0.41625440272333475 -0.6826430588300566
Ni 7.877167825800636 0.12009362294389425 0.7240714515452434 0.9703104218098967 0.32306965373853397 -0.15888363384450702
Ni 4.34007534142013 9.062119032660474 5.19067788304012 0.18442085888366305 0.01816561516543323 -0.7124961376357472
Ni 0.49864200930451186 7.313846938493128 7.744224776609792 0.5289574242467213 0.6251369941937879 -0.9291267484827354
Ni 8.038926428991795 3.395334054238974 1.227285063938425 0.23815948605769954 -0.9080889539758298 0.5529949248118993
Ni 0.3916840692175844 9.201902953511798 2.297133716074546 -0.3419549206788111 -1.290557518497971 -0.6887972513569105
Ni 9.21526159531254 0.5305185250752913 12.481424007579095 -0.4532968001886129 -1.3540676232364743 -0.056771500463089326
Ni 1.631086384905395 7.125021497424231 13.167213597426471 0.4657782204850752 -0.8267909291262857 0.5096885487147803
Ni 5.096718638323519 1.110118249502218 11.976895315314158 -0.4675461110187754 -0.589350837733114 -0.2513477026131994
Ni 4.232440966571581 9.227477100155792 7.599646293726023 -3.0200026037377605 0.8599923555789188 -2.8357257266311295
Ni 0.36264650101478435 2.69138842633455 4.135092934857861 0.47437881766989265 0.006779227705362518 -1.2621164895484587
Ni 6.872851153049837 1.999828356705072 13.04828578523096 2.329804358268265 1.187043105452388 -0.00802569851795392
Ni 5.644139529767768 7.260402923877291 4.331494256308664 1.4422351215123421 0.5954062998985746 -0.024389484587957994
Ni 3.595449153689686 5.990207710675097 6.770385457783455 -0.061123349673881826 -0.6739596721234458 -0.3676947486470764
Ni 7.266987770648943 0.08111359743479973 10.272356240071716 1.301453082364552 1.873116273009916 1.628095798166325
Ni 2.9158022716915624 2.1447422227457897 11.818062575889401 -0.4078039579631364 -0.4911460098259025 0.4551693346209774
Ni 6.638952105169525 3.7330979592319813 8.300618820799688 -0.2978481601675838 -0.8586558961556825 0.8991150326119935
Ni 7.46634707706991 3.1976658347220606 5.233280046644268 0.4926758162068676 -0.4462527488576379 -0.6334439713975866
Ni 3.7705191616172264 5.139968894450672 0.11855086042192743 2.330406510628638 0.35978346421979973 0.4400103674923519
P 1.3634884153113325 9.186805987742643 -0.029037568202800026 -1.2934073292419404 0.6087251284946678 0.7948933090867407
P 6.117927285289118 6.488691003443363 8.818725334843993 -0.24815670647972746 0.23942781124716184 0.9456208894830166
P 5.403731214418779 8.251861667709555 12.85383346505561 1.1911270457137746 0.2577006414144207 -0.0323331649150669
P 8.871101791805316 7.311050504283072 1.0844335681276238 0.2223222619151268 -0.057555429816965396 1.24160885651341
P 8.878971486727535 2.3479938632699437 11.455594630977894 -0.6078373265730758 1.435971142880501 -0.07541739769905076
P 7.7254896121437024 9.451286311089008 6.353922714085684 -1.1121617827624652 -0.2872140774925053 -0.30005031002522514
P 5.727635764728839 9.271927177717664 3.1265476001056376 -2.4930763509884546 1.9305675731488496 1.651627305629362
P 0.26546379902632034 3.0690487558852175 6.161613067149662 -0.3637059392026574 1.9479693135650646 1.1333767262771834
