# total energy = -340893.94624986814 ev
CRYSTAL
PRIMVEC
9.07593511670010 0.00000000000000 0.00000000000000

0.00000000000000 9.07593511670010 0.00000000000000

0.00000000000000 0.00000000000000 13.28354845287468

PRIMCOORD
 96 1
Ni 6.358636528781001 2.009284997745817 11.586322583222582 0.6069659797117161 0.24702902063318746 -0.4488811876194205
Ni 4.528909833707454 0.4188553186491885 6.156924775795712 -0.06018926789538665 -0.4981445526309228 -0.10641873117657157
Ni 2.7462327868877003 1.5296308965566332 4.698829493161065 -0.13513486816434148 -0.38613830006424466 0.8990754376233097
Ni 3.529613060687455 4.439657086614899 5.019573951929175 -0.014529561074742717 -0.5710594956230939 -1.2273744580815829
Ni 5.108254007508456 4.6924944903676336 2.524366104527952 0.42578059704621507 -0.6791018784460175 -0.256011683747772
Ni 7.290417419594215 6.100489702916293 2.606073119066841 1.2034218039207274 -0.6237030899607388 0.4265113045646526
Ni 5.052827271033549 4.633800417208436 11.533029599121221 0.3150786651132574 -0.4184434399548535 -0.03572984930144169
Ni 5.730854088635382 7.872611437058739 12.564098498615381 -0.8406463469521394 0.32608992862209646 -0.12258197119999534
Ni 1.952669313755238 6.387134965416208 0.4919964655140941 0.06881660455308147 0.8241077258671679 -0.20982412944811607
Ni 2.7886264803663785 1.467215689951437 0.25689706958296676 -0.011434981309819016 -0.03894347114273293 0.7602919169627874
Ni 0.5140709551905749 8.930711194460745 4.738799911932228 0.30456233896296575 0.9034655962712054 -0.2151409136753392
Ni 8.602316629883775 2.1784332027045266 1.5362154875690035 0.7475955524420416 1.7072137846454147 -0.8793221662557823
Ni 6.720403307213911 0.9538989449788193 4.951867475082475 0.6206054248720215 -1.014483259672369 -0.2838369334901563
Ni 0.8108068424838091 7.581292067913241 2.644741141131904 -0.40872441289487677 -1.6539490117840032 -0.3540990122405127
Ni 7.722005367783382 4.037547776066226 3.936340207083259 -0.5786401361838293 -0.36743609566905105 -0.7285493344438679
Ni 7.567805228155305 4.074105643189351 12.558612095766344 1.1386009507906003 -0.6196561735848748 0.4179253626678544
Ni 8.030496406391878 8.804183581361567 6.722763957968311 -0.42462745727837836 0.5571577979403373 0.6216485214245552
Ni 6.870265149800067 0.6970590537878276 0.6349233859878429 -0.8157267008923241 -0.43276962676953856 -1.296012628075271
Ni 1.9013812037470998 6.490555247409258 9.228227612184115 -0.06606758105303459 0.26159509137282044 -0.44096373254455673
Ni 9.501324318566503 4.800652410552908 1.4222299093698874 -1.8509867881007283 -0.42487531162312636 -0.23751053961979093
Ni 6.198863764919161 2.1456781524445074 7.050748290272697 0.12468179115181752 -0.5439497838904954 0.6789872072450241
Ni 3.2850529098682575 4.185394761030404 0.3258478571502689 0.6394706372076406 -0.4308862937038966 0.7944276823042318
Ni 5.975786352799179 5.610153225956523 4.7340840559845665 -0.16986070168130102 0.6713641434821276 0.27895003771150023
Ni 5.2753328992337805 2.9819257489831403 9.31595197178324 -0.10816759554687824 0.04443226217144606 0.270239911532012
P 0.35707996547799925 5.682815163441066 12.39219574731311 -0.2856151084365017 -0.8888421899310757 0.42105516654608777
P 4.114783984908777 6.1056085303883485 12.769979736247237 0.16155372447750244 0.15117058147096546 -0.3395002884907314
P 2.4373333311936682 8.436544672832168 1.4708869057536476 0.6677918527498371 0.0456260253692311 -1.103605922772654
P 6.277842553326667 7.881769055709988 5.855295144224229 -0.5875922031707945 0.28776223668649153 -1.3517857691808333
P 4.77184539211974 0.9238757512242767 12.818438877242892 0.19542852284807632 -0.2842778776823168 -0.557341374706053
P 4.101905232811529 6.2952501971057515 8.181470051044217 -1.3772011239301443 -0.3177261300384335 0.7521780296064015
P 4.829985833229654 1.1555117702700555 3.8919071509574685 -1.3472649984923442 -0.91615938968879 0.3946671634708622
P 0.281411170650385 5.5511959506755355 3.6165387379859757 -0.6701876066755231 -0.15006500711161253 -1.4925829778372746
Ni 1.351470287910421 0.92791454240347 2.6174298368253233 1.0650087792257463 1.2126721188744018 0.0961641433280989
Ni 1.7132824460195017 6.5820679023751145 4.744538625780775 1.5018026966633296 0.5502214758318201 0.8518103339887587
Ni 5.970014057990263 5.55039726837493 9.134086566374451 0.4211222723385973 1.004024012012258 1.3454924799729537
Ni 8.751770055384396 2.4799357711827326 10.107784664066552 -0.6522978708792959 -0.38709166511644943 0.1708742305474799
Ni 2.54101681530851 5.03531979196689 7.005185280210256 -1.5462118189063243 1.025377795097686 1.4318146975099664
Ni 0.37965000121826414 9.131389198422864 9.115290304504542 0.02294889548668951 -0.7113329705655813 0.4785545463141371
Ni 1.153950709409783 0.9963561700041368 11.331159017269337 0.8908728472078592 0.5523560056763196 0.27478356503863643
Ni 4.170528379116878 6.790687349667109 1.5481576031500877 0.1474136855316945 0.7520913834298659 0.23722591849983657
Ni 5.67245952133891 7.795583974726574 7.969890033678846 0.03907614006585529 0.9999490706119359 0.5909652334080855
Ni 5.468314510117348 3.0752535909958256 4.8188197101110894 -0.6197142805163198 0.20725842560346885 -0.25998352391132645
Ni 0.8744799737124576 7.597002511803541 7.0972143558909355 0.48987588486422723 -1.2249519646830194 0.1264512243474145
Ni 4.953227957774072 4.623363091689172 7.180090350887982 -0.0341704752341218 -0.8014565641265552 -0.42576825575104094
Ni 8.346157433835344 6.882572117977565 9.050639695051178 -0.6464190435010158 0.6802197941005447 0.3029119478437364
Ni 4.8632128321218495 0.13876832694946484 10.654694168121301 -0.8109009973689068 0.41057355028847353 -0.6816855800127938
Ni 8.203293137314711 7.0954118751534345 4.823177066617001 -0.2764200722007949 0.16849955966771626 -0.9896440891415023
Ni 7.3227186730925276 6.272914320494527 6.809943761453388 0.21042216804343114 -1.3642607617193923 1.4521775774370345
Ni 2.438004950400995 4.900950570825413 2.678600732709919 0.4327775971893385 1.3869306925130824 0.3349864597807779
Ni 2.4832031078670234 5.119045294501851 11.564139182323292 -0.8665923773939398 1.1903755122597306 -0.1399744556448299
Ni 0.9738024709472933 3.2828383816711266 3.8009408672927076 0.31991233905647487 -0.16118014318816756 -0.02120260221954413
Ni 3.688732357212437 2.7767460811448865 2.8658590588348356 0.06788072300237342 -0.2683061848444089 -0.8807843526236057
Ni 0.9195102263766544 3.358876567062771 8.033996087018163 -0.10433099540960743 -0.006966404015504132 -0.3567960994567016
Ni 3.4722803778133784 2.730649406090678 7.234725665810472 0.44385082428436456 -0.073724326267344 -1.0602825773946707
Ni 3.9976227369712345 6.666946048684813 5.95921278746811 0.3500752357931003 2.022220715980472 0.03818473859983746
Ni 0.7897697322045908 7.6314003063409395 11.466452168617648 -0.24026701931900554 -0.8081085222254341 -0.23713875810266904
P 0.40873655845664325 5.4778714699189 7.882882672963218 -0.05392348949133294 0.7154109972896968 0.5241605170787103
P 8.504251149678868 1.5327620942124125 7.903950641422232 -1.3015880652805196 1.4010414208828517 0.5352365723872137
P 1.8181911813909521 3.2910884067989623 10.520251431904429 -0.20712755645255942 -1.5035932129048493 -0.6853625146437488
P 4.01141815852713 6.169475886631007 3.741046047902033 -0.09493644156858488 -0.1073039619950023 0.01273056019279098
P 6.900760292186786 4.014349685607758 10.501230086840714 0.5617130214111875 -0.030916744183514495 -0.8913796116409488
P 6.5374143010231345 7.858099016619344 10.116498469484851 -0.14346164286248198 -0.21773232855159924 -0.2055404144710976
P 2.411013119014656 8.575052520440412 5.892847733849016 0.5152300473582997 -0.2661323171215416 -0.9084129129741516
P 6.989350496007249 3.8149150847727165 1.5850331280064078 0.3923089476513308 1.727796751003089 0.07829497635716193
Ni 5.45225918068815 2.8436901794319196 0.42930716566482674 -0.9944173421604293 0.44697111508090115 0.009516681241183609
Ni 1.2472603995519993 1.1050132666272878 6.803183097297476 0.38891817680222696 0.8219114895467974 -0.026427598063909322
Ni 6.78083088400283 0.9400127640705817 9.329009519804602 0.3763835346703259 -0.5119963709123505 -0.6460349206887197
Ni 2.3711153077253666 1.6908921137968729 8.965305936792726 0.23073645412075103 -0.9880124670753501 2.2449715807925856
Ni 6.352764398684511 1.9940465024876926 2.658994897417125 0.8701070754154177 0.42294621292121354 0.08338473217524349
Ni 4.043410830227482 6.755318430059655 10.37572714682947 0.6725316814276676 0.4247850659021652 0.07319442190580297
Ni 8.332244025121405 7.227729934931995 0.33367222091562293 0.415357087720046 0.19677166713953206 0.31018457024574964
Ni 7.529005605029346 3.921775146219508 8.263629047157766 0.8003178225364217 -0.3004732564952567 0.0760311200236497
Ni 3.122158024285872 8.053449446599023 12.251775600151031 0.14440446639172552 0.911574855641901 0.7593724904723116
Ni 0.22923089620873097 4.855607198395638 10.1587669150573 -0.3476735683301432 0.16909219894639263 0.5613759497867429
Ni 8.430772378023253 2.6958250425972743 5.82259091920152 0.4050420789472831 -1.0161506200724628 0.7122467406291024
Ni 3.7835940322796913 2.4816511229419853 11.421779507801677 -0.5662965270168118 0.044040168939349957 -0.0979752283949087
Ni 1.148532376075 3.310529060070495 12.602594077910997 -1.070329934328344 -0.37062683469220686 0.6087585528357644
Ni 3.181868602191294 8.421587531566301 8.113326114119229 0.08043387707703567 -0.14578617723060056 -0.10690132723994492
Ni 5.752400358881235 7.854250820080068 3.552618741318959 -0.25295001410331275 0.33213484926459574 0.7628442510709958
Ni 3.0704161175160274 8.176945697329996 3.5375554116108523 0.8433514045881282 0.7381979132772254 0.7364904436678155
Ni 3.3135785743091666 4.400385514856765 9.455084243735595 0.6418558496103656 -0.06811726449321173 -1.1015806648125093
Ni 7.485885836731938 6.369818080989464 11.4022789533576 -0.1571039162362649 -0.8357548231877928 -0.17167127252747855
Ni 0.731216336041522 0.04700699135819299 0.2869856100711952 -0.2849221961345351 -0.08494667734572467 0.11247650733487725
Ni 4.686431765631227 0.2542832002355338 1.8364374415856717 -0.5807399561356514 0.00964060841355759 -0.681114280890356
Ni 6.331408723078574 5.820188519145043 0.38740629546936217 -1.2096608428519036 -1.705956772309862 -0.41170792100323284
Ni 7.820733391260381 8.931963673523057 11.607882467371287 0.1690952842701862 -0.18596763454549264 -0.5285545323813478
Ni 0.24626733423673938 4.98696320903938 5.77797180640343 -0.4837337765222315 -0.5281657815833614 0.457927871202721
Ni 8.151151889394564 9.073521035369973 2.4726659470601846 -1.082563243169742 -1.269781205182568 0.6163271092116418
P 8.498170273071993 1.707755201461909 3.7102940565481886 -0.6030453045010711 -0.38202993432282595 1.2966613174028638
P 1.7794550898116328 3.024727859547355 1.6741125247359905 0.6359266286101242 -0.5937798200387451 -0.9834227908221387
P 4.516503030242381 1.1344646764620794 8.403796883320336 0.8804567940808579 -0.07368550260960859 -0.20932096455945243
P 8.385900954225654 1.6652707486308893 12.61008626244678 0.5759116815090727 0.8320768601155735 -0.5431182891281356
P 6.446246531596176 7.674111657552813 1.4068471067415398 -0.06884771490133304 1.4554089398901386 0.7106176896661116
P 1.7752075521220543 3.3066899394664526 5.86903066460758 0.2527918912588937 -1.3457567893779339 0.08656801499923156
P 6.7442185612683 4.138944124502063 6.21729880456675 1.400362906758588 0.20254662195009634 -1.1408069573029835
P 2.3252818347929485 8.475870700201707 10.17482587486059 0.17661267569315392 0.5585235679396123 0.26193910497580053
