# total energy = -340869.5483357439 ev
CRYSTAL
PRIMVEC
9.27535324016947 0.00000000000000 0.00000000000000
0.00000000000000 9.27535324016947 0.00000000000000
0.00000000000000 0.00000000000000 13.57541703406202
PRIMCOORD
 96 1
Ni 4.840639784378786 4.915835071305638 2.343252839023263 0.5369342718046107 0.9184343017658957 0.4950373744605087
Ni 1.897598097437992 4.287791643020945 6.119200821313752 0.07676568419682908 0.6933295920096253 0.39868271238815856
Ni 6.619652493465997 7.731887900060234 9.873346158797254 0.5630479381725271 0.696364265070891 0.20416050340443545
Ni 0.47015465905025006 8.36203683348029 6.252280803827677 -0.28885932640541223 0.03417073234443792 0.6334866517100638
Ni 4.629644053897474 8.837732588424226 10.679752770571026 -1.150690534965283 1.17510264526106 -0.6440484863863101
Ni 4.457196690564057 5.326139587464041 13.380175338446765 -1.7892018935834477 -0.49386315164674943 -1.2507527277962072
Ni 1.1842214213764362 1.0264383911664126 4.517287992634404 -0.3535649941139137 0.35057274425480917 0.03626823830341496
Ni 5.359215496330596 7.02063527984008 0.9381657840177574 0.2862473427038619 -0.11843761001431861 0.46959193780421066
Ni 7.825633893025533 7.062448571250743 7.883108618009157 1.816140626955821 -0.36106233093222334 -0.8630977339771201
Ni 2.936456186297146 9.091098131497354 8.154739186247742 0.2002801945134228 -0.21544764628248053 0.5276641593565944
Ni 8.889257174446016 7.267035032795772 10.244701612557332 0.8268428654101437 0.013424243825705914 1.1510620593720886
Ni 1.714855092253236 8.987455336860542 2.4598384612631 1.3198184722456174 -0.023456174140411217 -1.0184692409033105
Ni 2.317382024382043 6.8299340217648306 7.324330743466125 -0.21979589594884724 0.16993526367297832 -0.24190815446685437
Ni 4.111903123717396 5.290077014925298 6.888098833013084 -0.3668809944965294 0.7759177964255024 -0.6696425328053306
Ni 7.750299475803394 6.653349850984839 5.275908913188433 0.7682955039935542 0.0446592905805876 -0.3714812122727022
Ni 1.2041727057207874 2.6274570758147093 13.562248663143532 1.3362737895881633 0.15235200337357632 -2.045193522726562
Ni 1.8891946276025748 5.133611084844004 13.060433514097463 -0.3605187997239275 -0.4267923261401811 -0.833011456114701
Ni 5.466420026526789 9.11171724125909 4.58855887769882 -0.7000237162003492 -0.9746429877469797 0.004762711495965991
Ni 5.688499803866075 0.6875819193150933 8.5351084280719 1.4175700146654941 -3.0978823469343744 0.021939994606200924
Ni 1.2117321184314553 1.650706750772281 8.1966461587239 1.118861049159512 -1.9088157832940542 -0.13881411678814157
Ni 1.3564183501783345 6.163490631980549 4.949257878375111 -0.5042714914642671 0.8059035441543153 -0.576704095503381
Ni 3.3784731344282775 2.2265206662057224 9.732827343161913 -1.4468317397440889 -0.8732736460688574 -0.7051936904370629
Ni 5.7766713096668205 5.336240446901977 4.892579906215839 -1.5645358140264924 1.0059379412055194 -0.7792807993604645
Ni 9.549254193881938 0.444484192034245 13.232447718444883 0.21374968975476735 -1.1847365688063982 -0.5298814787228875
P 2.43626422402944 1.7839935736585335 1.41111046925619 1.7232353568846515 -0.9229301327537203 1.8541960390666452
P 1.6326105370317747 5.8325367609016086 10.62640186753975 -1.2955811969648074 -0.8480680933375073 0.8888571023294111
P 1.963657161640907 1.1186725015895784 11.65335504079873 -0.07922622992217969 0.7845991262495843 -0.20485624391987944
P 7.317687735633756 6.191223937508029 11.53866993839253 0.266239017902735 0.04086717052800704 1.201155119373738
P 0.584434428529508 7.719217767835974 0.8084444068320947 1.6754676025820692 -0.167359275415686 0.08652584890738647
P 2.6665897902028166 5.198158266504786 3.4193486876486965 0.2965932047145602 -0.4341125139506781 -0.36248312253914994
P 5.406315738962216 1.7754231474687703 10.354268575167522 0.2574090783159309 -0.028787356545337518 1.9783646380274702
P 0.6840897489033553 8.126934460502014 4.077389535132863 -0.861688255224103 -0.8190966458058215 0.5647759766072273
Ni 5.152458602179068 2.7060471419465966 8.418428197231268 2.284350339700524 4.159886792116159 -0.2558039386123401
Ni 2.701604247850388 6.809342738062153 1.5323662317412068 -0.7053749532099336 -1.4948308933311867 -0.5737612108249732
Ni 7.567862557268273 3.9162581024828986 5.103854824823031 1.8621065521629738 1.239745578052426 0.27538160363395153
Ni 6.403889231532803 5.022316123966332 7.316552432424203 0.8550972322701467 0.2379846510427321 0.6256141909405226
Ni 8.515033781532393 8.643645826496957 2.083133911416837 -1.495203189068941 1.5566019038913967 0.4772635954168554
Ni 3.8476297654936586 2.4027152721589062 11.969594491847973 0.25078411680024554 -0.1505116077307279 1.2341043206062488
Ni 6.474242784183619 3.1160084700432886 3.0832349376851615 -0.18518987583920363 0.9918675791553822 0.12785710355600563
Ni 5.273168046371252 6.012209624237001 10.873148518698361 2.270100257539413 1.3040087589068703 0.5889320050281405
Ni 7.453905570074084 2.6026084050762077 9.947278142642887 -1.241766208026881 0.7532280681374706 -0.8903820236143697
Ni 3.566085699948126 4.592310757995096 10.90790141139079 -0.481985426372557 -0.6072457157356638 0.34072079116139387
Ni 4.020587273243134 7.056410316435228 3.5865304330731 0.13184848410358582 -0.50855623488255 0.35842000821336983
Ni 0.7930241324376345 3.6946977449126894 3.976062796144951 0.14068870810303513 -0.0274390700475592 -0.29268615635067013
Ni 1.9195528580344958 8.288919225629746 10.911567030903988 -0.054157202768693825 1.273972103335464 -0.3492031176007921
Ni 0.30663018532132663 1.6200331583377066 1.9041826705463394 -0.09562858253960305 0.7652785715441014 0.8207835465899412
Ni 3.3094923340243065 6.8346922778636925 9.783232394074282 0.8164460955568519 -0.20892347201071762 -2.0337058338019363
Ni 3.3474285278729337 9.136974027530437 12.911280272336526 -0.34373052452199515 -0.6778145270931617 -0.2773896352029158
Ni 4.53822617454 1.4424008726665432 0.624178388681582 -1.7104351197961898 0.5709777345425651 0.3863162204030057
Ni 3.5298097942899402 1.3105981062633665 3.733742343447114 -0.8930400300625071 -1.0849253156440155 -0.42791152734628884
Ni 8.021130508611723 9.359851485229377 4.416489948768588 0.14105843273762805 -3.0568794221594513 1.7398187151646294
Ni 9.024593850349516 4.61439537353387 11.376403202533016 -0.6801076940027126 1.2204900722569239 -0.27511523734644233
Ni 0.5425710502125414 5.438714547058367 8.516592040839624 -0.4984230031032901 0.3132542103100089 -0.3887690528188724
Ni -0.006528920990231946 1.4557388303081875 10.459369455298956 2.5785254218918947 -0.9433428920821173 -0.1842460238686956
Ni 0.16989200357662088 6.446286870183677 2.529331261153732 0.19042207077242043 -0.34690249449207355 0.9638371553807272
Ni 7.173882662423703 1.867898417070436 1.1537620895966056 0.7081725705597287 0.3072064614540322 -0.6672974296119217
P 5.326121036758003 3.311087694743613 0.11550411607779568 -0.6140244292203941 -1.0186301919612069 -0.600765507327959
P 7.221567252295536 5.415674570158614 3.0768006252957263 -0.614760021834838 0.3928601921691105 0.4057000242462561
P 8.26687171150305 1.859828859943711 3.550229483961762 0.07932470317325693 3.02257010735462 -0.8872655894725752
P 3.7835649021898767 7.041384244544085 12.012492999561884 -0.47865970443343364 1.1060438427901855 1.078838228909671
P 2.439659003234476 1.061452848813984 6.360775535628845 -0.7065124092484865 0.4210569663183007 -0.4277284648012053
P 6.323638877210475 9.074513800298982 0.8428559665334168 0.12139514998074576 -0.6128214100512284 0.5911428966365303
P 0.7914658731304048 7.889086583030047 8.626185901973571 1.458089057825463 0.26366302964544264 -1.24910285089761
P 4.608366394071374 7.369527683658201 5.965228106124027 0.06821753751650186 -1.0383958046239086 -0.9998264289911427
Ni 5.481306968122644 0.9979630573973941 2.572093421178262 1.6292440528381553 0.1518148999231837 1.6365768390541429
Ni 2.8757304500802845 4.102275307283441 1.45080434250196 -0.6924605591411106 -0.9145365093733863 0.48895234460869347
Ni 6.704531248944917 1.8458138015316632 5.187805117464728 -1.2498075902741184 -0.8908281100128528 0.9941113808842365
Ni 4.103434726410844 8.646817997229531 1.7785016371358509 -0.5808217172161803 1.0814319577787763 0.5450851830465193
Ni 7.758888452699195 6.927584938351223 0.4762708268311265 0.15404198948148956 0.23270257670818634 -0.6064898114062458
Ni 0.2983704834577074 2.6582976246036303 6.248180170257878 -0.2879028760294139 -0.41322384342712704 -0.6808281171085049
Ni 6.075662314241514 3.902029710951409 11.637431114735325 0.45770649922053436 -0.7331351540423374 0.30680716913308453
Ni 0.6459207436939457 7.080452031461057 12.449526300515787 -0.8227774370915185 -0.25731446171959554 -0.35954075208137437
Ni 7.656210294776383 5.4095806632249825 9.440942186535247 -1.6573140716014942 -1.9608723947799775 0.7044246734815224
Ni 2.6490871990555402 4.490550860021187 8.568477438093863 -0.17449202980572528 0.7092105249059398 1.7419812700335873
Ni 2.867104371772406 8.453482538896822 5.145422319378684 -0.36987298724531786 0.3401294374342981 0.5561167582703326
Ni 8.288047342445939 2.4022422291549255 12.27079210290594 -0.9135121818739299 -0.2805415505683362 0.5382938711562988
Ni 6.621396259833611 4.820901833153878 0.4769887391548145 2.221219729788626 0.49980702793501014 0.8079827952808472
Ni 6.474558146186272 7.5321617234972775 3.032856785296547 0.3102336783161302 -0.5659738535700704 -0.13659525475995185
Ni 4.579965263126509 1.1343571235450867 6.438386124481902 0.7477847856347122 -0.6324037030585302 -0.7750608477418458
Ni 8.36968899972115 9.284535618713276 8.82915195934614 -0.48725053142623825 -0.05086696205319626 0.10488352547896776
Ni 1.6360238669428493 3.3466493982193186 10.905254225639103 -0.6594676491548578 -1.0621216874859385 0.0267196753830314
Ni 8.592659210950282 4.198868833625642 1.9710282846852845 0.12834304205348865 -0.9282307190310272 -0.3855590305220069
Ni 7.607301358306014 2.8893652190185444 7.517196868936062 -0.19819888650436188 -0.5699775754128248 0.3163040528799262
Ni 5.988307039506461 8.101909558056148 12.3954955141082 0.9355658192398597 -1.0780489002391562 0.2959087770530259
Ni 4.058004047322684 3.4346075709006225 4.2744778012971505 0.023408351621611298 1.1568318719763302 0.44936969722006476
Ni 6.461034681484244 8.313944128075613 6.647270784616039 -0.8105171316669267 1.2771988378028778 0.20289937730382476
Ni 3.3521311318536804 2.8797745039966665 7.261829704681384 -1.9112349342585082 -0.8862345771048995 -1.630239583982205
Ni 6.114535318745084 1.236868325113553 12.57566831897133 0.23321654023012736 0.3901836737782119 -1.533520596591901
P 8.441062841204081 0.7840891848742157 6.89526682582634 -1.0001820125583485 0.8962449101530501 -1.4989659985454828
P 5.256648642644014 3.522946033055714 6.203761432184115 0.6762595239012159 -1.2081066109909067 -1.1034981935501962
P 9.508813654718118 3.2862946761232266 8.81992112802141 -1.5500512472570722 1.461492169969741 1.2627433244991801
P 8.958117395260738 5.154925846082182 6.379007169523432 0.3120797303859335 -0.0908167629732565 -0.032649153493588934
P 4.881655395429797 4.940841423045466 9.095271112820704 -0.08130419549713094 -0.467433239589995 -1.249332964630545
P 8.939863500518904 3.9764273175186067 13.414073043590822 -0.7373548485506398 2.2136897399601683 1.370972626521929
P 4.9700958864680995 7.941520153647721 8.57206143450049 -0.667805993817224 0.23486924534220194 -0.3217355083081427
P 7.903231496384364 0.19700107784590756 11.713982458273586 0.1474975034947524 -0.5412244145395325 -0.5516011297881661
