# total energy = -381161.20442012744 ev
CRYSTAL
PRIMVEC
9.35664356504688 0.00000000000000 0.00000000000000
0.00000000000000 9.35664356504688 0.00000000000000
0.00000000000000 0.00000000000000 13.69439364148226
PRIMCOORD
 96 1
Ni 8.848128766195352 9.297724849473823 0.28150210905703166 1.0893327006830915 -0.4459506442361868 0.3268977692353725
Ni 0.06806209712564265 2.354505804170454 8.600407883316102 0.08839812622943485 -0.9119039568465456 0.513033039706981
Ni 7.753158188231389 1.5154768561829604 12.423060897509066 -0.2503094911566721 -1.1972526989955379 -0.057763946283345684
Ni 1.2393716591742734 0.5798489836491455 2.2672438743069407 -0.5834640399350338 0.03412239560500575 -1.567067836419727
Ni 0.48237989124482167 2.2350401782459257 3.895575887686698 1.9342259958370431 1.2258253684269083 1.171543467154892
Ni 3.0815918677155087 7.329807490347521 12.404244687160208 0.7098363314153968 -1.0008546131453409 0.39524129080677733
Ni 4.068081519381776 9.124336886284018 7.842382206265045 0.3182768603355809 0.788943519261209 -0.2912720496119629
Ni 3.5950189738681293 5.082500752296846 4.674087935975361 -0.23918227089525906 1.1319597913249988 -1.4252840954803003
Ni 2.6525429738582678 2.868438169079334 12.09961295503884 0.3794765717733529 -0.7875011303877276 0.06202606399380931
Ni 6.50016325592537 4.818325275922069 1.412261848922727 -2.5709254980574503 1.7015499014914182 0.5217863604195788
Ni 6.501987801434087 8.710043419438287 0.25364363829985037 -0.858238863222922 0.7747106634912787 0.021724279050969037
Ni 1.0016099877795215 5.390802160051639 2.129710569524309 -1.1650830562415289 0.2776428888643025 0.878343604392597
Ni 1.1973135460374662 0.013787014395347179 4.6369626453626305 -0.5906186487019442 0.249177434434758 1.0308742994358826
Ni 8.483275804314003 4.548825869319297 0.4745801931111526 -0.24469960116906242 0.5829868431882992 -0.9356894893019175
Ni 4.869917808922371 2.2423945001425953 7.633392214046195 -0.2551043414421542 0.11990828102257414 -0.31931095802705006
Ni 4.051576400010624 6.223824142825824 6.864698091923149 0.8483002639529713 2.222343301870108 0.27677077067199435
Ni 7.013674571870701 2.6575674914899623 0.837684398297225 1.6016288622240482 -1.5688424118216464 -0.7094763769728168
Ni 2.972877025326952 5.3487066203402955 1.0375722475884912 0.9694015368423821 -0.6792664290483399 -1.1703263069183394
Ni 3.4720071800061483 4.328495625015507 9.0118559948326 1.2120900211186867 -1.1734483974870886 -0.7301141078278264
Ni 2.264055130156324 3.6995981797702644 3.219593004679863 0.09556456207088704 0.3602552616498957 -0.19938956437835337
Ni 9.375076222399738 8.949601566410852 8.812082296593672 0.10575512945064366 0.5324937195347539 0.6048232223371003
Ni 0.13274457457052563 7.859477729849529 2.3377153071684518 0.49527982948861804 0.572829185929007 -0.6532268104514685
Ni 6.530759480609989 8.392956123310755 4.82168618231556 0.30609060268203414 1.0200584397673014 -1.9254999288179548
Ni 5.904931014476842 7.633327653205117 11.544551591706053 -0.705325845139553 1.4873494973524772 2.2310580560352866
P 7.287262831741724 8.984426994018238 10.471691698314634 0.9223228381870244 0.9592906736606253 -0.9711892248704241
Ni 2.1674197146998284 7.523433873718621 3.6146763464797242 0.14294665089927638 -0.9438244597042262 0.6131114304878216
P 6.146033007649089 6.0944591879360575 8.686956836934671 -0.04122532519837416 0.7362356473445321 -1.3265431925639606
Ni 9.075186437272304 6.061037256873838 12.34942598343475 -0.5639840768335512 -1.759950710027814 -0.5783192625093008
P 5.410535321476673 4.058659379241895 3.45945056424873 -0.7794574341476447 0.8390342652700131 -1.5867257198599707
P 8.523602938378438 8.434172138520463 5.785279191343989 0.13400332566305953 -0.06057981846558599 -0.10960535643466929
P 6.690804869977084 7.947233690496941 2.725691342463592 0.142827865933225 -1.768326078575703 -1.372865472669268
Ni 7.634637583313939 3.707888166030378 2.988239698510339 0.10320613777654483 -0.29455791945208626 1.2473717271391163
Ni 1.1572390413511602 8.55858742892761 11.84174759913113 -0.2228688784472162 -0.05003546729083641 -0.40830660863116786
Ni 0.885459420694675 6.726949584336925 10.33700749151869 -1.27436419656756 1.718975553167033 -0.7234706343693798
Ni 0.7479307942338602 1.3668091454753446 10.912185638665523 -0.3842428828137447 0.7915130797605981 0.14770370596828755
Ni 0.04249319706580877 3.069727643587039 1.90119232637602 2.124109420497174 -1.0692194748729844 -1.7473728733628036
Ni 5.898343937358198 5.87424122335588 4.567764651699767 -0.6326086199804848 1.6860896010722897 -1.304050153667767
Ni 7.220035347228273 0.7908525255781264 8.098536232052016 -1.3310346526764107 -2.3846069079304417 1.422614261957621
Ni 1.8087889208353818 6.021112458485683 6.216378125821536 -1.3611798088012232 -1.0267263387057801 -0.4900502056585625
Ni 2.136842203302479 8.283165266904238 6.845060368263187 -0.4657684502930624 0.009107361617906895 0.3006506626133854
Ni 8.259521028440007 8.016912615642616 12.078072090063632 -1.0023558802812158 1.2888356507108578 -0.19927309340514712
Ni 5.106509899862818 2.411805889787764 1.991726274518497 -0.22065901528009094 2.12980055734468 -0.3461910702473457
Ni 4.703668964825643 5.960022932196424 10.444426438763877 -0.7112303835494461 -0.25017399402007234 0.12837672350490148
Ni 7.437661521521711 2.4277683238281185 10.26214030747772 1.101020421433665 0.5802216217383361 -0.9466920110600082
Ni 9.275259548107533 3.5369703567600643 6.182292808725635 0.41989714168224457 -0.08454481392161567 -0.29693336166279827
Ni 6.627591385582808 3.4555582004968026 5.056900975313018 1.5139375322536508 -1.5911541879449693 -0.7708851190976015
Ni 4.241619188869732 2.809304181309674 4.838366270922676 0.23595245110405172 -0.4652593718671278 0.05223170361120682
Ni 4.588170555802117 8.546938407602731 2.443710173252477 1.3271648853083595 2.7491628538382202 0.6729808531499443
Ni 3.853533680844069 0.11577723700383233 5.0759230318218345 -0.9989124018173053 0.09404324033035416 -0.18291110710735595
Ni 5.093419955418236 3.4856585230687958 13.538524396361177 -1.3974459902221095 0.8955067464354448 -0.2110348619267656
Ni 5.383672397602197 1.4584481132310492 12.341018103464842 -0.6672220962892961 -0.7826875110491681 0.9260599366319536
Ni 5.854573558436287 4.761128113384738 6.566119172568901 -0.5900789741483902 -0.027988257682809867 3.334328706955709
Ni 9.045993709132851 0.9106250494138646 6.7746572389002075 0.6312027407718935 0.07759152253223411 -1.7007826843080902
Ni 2.168514442005058 0.08435294935756595 9.59299151698148 0.266288897304064 -0.5254892631924627 -1.3701434457524144
Ni 3.0314776844094493 6.666374673447561 8.880252930785474 -0.9082190517957907 1.424923626817088 0.5157270415993763
Ni 8.03100372095608 7.183899989512065 8.237698528491403 -1.0183748814172913 -0.5816961494013336 -0.1338364610678921
P 4.414539319877816 8.818290429645124 13.37105544593452 -0.6242265665643765 0.5579093313943811 -0.28829471215119384
Ni 8.403613340410383 4.302287666195441 8.439744955469134 -1.5695744048916647 1.9340599025728242 0.33474811851772673
P 3.569166567506172 4.211341090068685 6.58693489766244 -0.23689887417772107 -2.0313093085453016 1.587814582048775
Ni 3.6345414365800033 0.09493437764375401 11.201124408083206 0.7537654286981793 -0.5373394776628294 1.6129525147669834
P 1.712836540364201 3.076576706727449 9.83440976470857 0.9925995722254001 -0.6585824183364271 1.2263413888313783
P 7.481076347985511 3.675411255975237 12.189393693368743 -0.26875098569131134 0.14410441865280343 0.4206293918625788
P 3.8512880863718033 7.305396007105268 4.916095652251423 0.2655049679501879 -0.5386386560902271 0.16718186929755724
Ni 4.506009868048101 6.466825534655862 2.5025269708029296 0.03930548246784199 -3.2701969094728067 0.7166991199735011
Ni 7.201106857155801 5.723271778314192 10.626780873548565 1.4836730769421544 -0.022968178760399152 -2.1820659424073003
Ni 8.205233782072987 6.153668028854793 2.9634389788928925 -1.2936096750607335 -0.9306172169853327 1.3322199312337637
Ni 2.0904426075192917 0.470722448940673 13.52536427708934 0.3315380962208613 -0.8681738629484467 -0.7815991630809958
Ni 4.016161503854269 2.2741977318560567 10.332351625646192 -3.3902699982080193 0.18033100508500557 -1.8108040452342555
Ni 7.337676427644086 2.674428163319223 7.0872729950348425 -0.7238753260069662 1.0410340135777039 0.0546102311457124
Ni 6.158729973061026 7.810767043088636 6.8431983961799325 -0.6421391851787392 -0.5355075666604132 2.0804094085060623
Ni 3.6453483599777816 0.9657553293723478 1.3105373549934598 0.9303793899429139 -2.6494302764325726 0.7782197050858016
Ni 2.216542093780638 2.6855906391751097 5.773570287499851 -1.3434967896991636 0.3627317482148463 -0.12448407331871464
Ni 5.566566710724594 8.14518284322715 9.394093600586736 -0.31716203000484733 -1.1566544658582014 -1.6872640809963653
Ni 7.678174046144988 0.3590228372327296 2.3042737271546003 0.3217668757667103 0.8799883390848716 -0.47666709948343716
Ni 0.4473710734222014 1.9649700163814525 13.262527736418651 -0.03126332888965583 0.20281401667887006 0.5800159334854333
Ni 1.3376819138413336 4.871611361420205 8.629864468806044 -0.4144543734001185 -2.0741950521652344 -0.3212189736830403
Ni 9.229449420873316 4.220697733703125 11.031478166682813 0.3520732400597356 -1.1653707626852767 -1.3534395027341724
Ni 5.860271754409662 4.0707388061739564 9.038464418000219 0.8248008952794506 -0.8132358161496703 -2.024373757767733
Ni 7.793794091535761 6.870845406790976 0.7424674500157108 0.37357023359124697 0.005556411041854946 -0.1878723077673732
Ni 2.1538712947171597 5.107688836960757 10.983026658950592 1.8788716874364544 -1.0800507611605337 1.539059267021943
Ni 2.5936616154667376 2.7436018297086373 0.9425443035083927 -1.2569747974465193 2.210527283071787 -0.3600770842008186
Ni 1.1164534317486365 4.056385714838727 13.243683456138891 0.6621793916590659 2.3396694239878024 0.37376306632834333
Ni 7.960819537054149 1.4850396944401272 4.260230488722997 -1.8213818207501018 -1.1924750751012367 1.9180259890384126
Ni 7.820909644788369 5.660198643574433 5.6373515911478576 1.7906136863293096 0.7354206076424044 0.7850698952384156
Ni 5.472148819809461 3.628497044792155 11.099566462410634 0.8360900950400247 1.2846861473188582 3.0165393277795083
Ni 6.367850958290757 5.648353132733233 12.611688026186284 -0.25513185224597995 -1.0538540481605077 2.6303490914314054
Ni 2.63697351885056 7.75463653792563 1.4419373798737165 0.18247221979772446 0.6628962152204325 -1.4464388751810442
Ni 1.0799625215743212 6.663006281739164 0.14097187131828862 0.4077119124699623 0.761530674465895 0.7254290436473313
P 0.24923198082621195 4.969145014665607 4.607875647296248 0.65777663460568 0.15034191492208301 -1.1802381667154125
Ni 5.589715047076197 1.3391509068919405 3.802590498911998 1.4956952982140113 -1.967844969443069 0.9618854309709951
P 5.674364602036976 0.7577926966245598 6.125748739913988 0.2106751645945017 0.33783215675968914 0.7658033336993199
Ni 1.8548984606659018 1.2776777582136705 7.461609850904059 0.8856974736545068 -0.6896871101610316 0.5571194885032341
P 4.155659703800133 5.249760113906094 12.522838273898005 -0.8135836864073923 -0.20174855152883317 0.08577920054934905
P 2.66453819099762 1.5918832081017964 3.434061311746677 1.0887621728916024 -0.2850787763170574 1.1805364146821216
P 0.7063798111820396 6.669743065155959 8.116201575233838 0.3446689771758645 3.0401603096325576 -1.0618386090278809
Ni 5.661583426832331 0.9966416100096339 10.030623260044592 0.7082486752133028 -0.7392831759216042 -0.7782009360327242
