# total energy = -340862.5406752695 ev
CRYSTAL
PRIMVEC
9.35573687952201 0.00000000000000 0.00000000000000

0.00000000000000 9.35573687952201 0.00000000000000

0.00000000000000 0.00000000000000 13.69306661555986

PRIMCOORD
 96 1
Ni 5.465303241107288 2.1326775865479517 8.109486080564063 0.3935592751186641 -0.291806067738562 1.6286902372172145
Ni 2.3466245716817005 6.890378399518944 7.380973581071552 1.32255515445049 0.5386132021689305 -1.0549354541501443
Ni 1.6645352373209743 4.686587858886612 8.547047333485867 -0.3345290605283851 -0.3347578887097396 -0.21030723973212168
Ni 5.719217933101777 2.753131328025123 4.0533120803652825 0.49144220091008267 -0.5739337318470955 1.5360317930495286
Ni 2.606452089223002 7.931625107165463 4.3922563846733995 0.36264150249388516 -0.2264874490364099 -0.11553457743491069
Ni 7.575021849978215 1.8431175380133393 11.19843596129099 -0.30895763981718405 -3.06265874784539 -0.18885344073371993
Ni 2.27169447705444 6.47963349448453 12.458389852865905 1.3793955604783017 -0.5423700981082014 0.50650475167016
Ni 5.03223554848633 4.80376846011104 9.36822091965678 -0.47445595076473124 -2.382020378150188 2.8641559569473642
Ni 0.7829965673001421 1.6120027761732574 0.5358320392803789 -3.8383466876482735 0.09904840685442942 2.5082062646513577
Ni 1.854662517008225 3.0991064684067053 1.9993517906302718 0.4089362717953667 1.008724759922037 0.681000123909995
Ni 1.764660330678565 0.6938747557868669 12.534153543626427 -0.03079281701114052 -1.6187567801535863 -3.4949789457823357
Ni 1.6052760015400946 0.5872100025286078 5.127067166061662 1.2024473558226 0.7173604077065838 -0.14329400693636613
Ni 2.094141307390793 0.5098389962159617 2.448881837416061 -0.061460935518958676 -0.3280128566764222 0.8440134636521593
Ni 4.061793055615577 8.517387777238229 2.6699971879516586 1.0091621045697716 0.25888412019956064 -1.2883828794441552
Ni 4.270903124914354 2.5297631161102965 6.159771150596162 0.6483540557401994 -0.9296556244030119 -1.1891082155115327
Ni -0.06047641711575413 8.91170400875966 6.268494165911856 0.7460258939620764 1.1869965684851687 0.9078745239721784
Ni 0.7334102276155443 2.6470559861742204 4.297459383323578 0.23436350935037703 1.0044312747530058 -0.8748916412882546
Ni 2.261749329022379 3.441086709249539 6.3775726992192885 -1.702116058407533 0.9011153508714739 -1.7985375691620766
Ni 6.494022617413327 9.26473337455627 6.3907867416280215 -0.16172290306551504 -1.5615283946587366 0.5797058584441822
Ni 5.7592230629090135 4.413129033083115 6.756542715955217 1.4678433089987495 -0.4548152937156683 -0.9478893738022193
Ni 6.637810933598415 2.091035202831391 6.161551547275843 1.3671707362773358 1.1035367600976156 -1.3963244750231565
Ni 7.546571054902488 1.693425752018063 13.826162995598569 0.7916033254815593 -0.2729794219503621 -0.1467716810723214
Ni 3.158824135282196 0.6218084521404285 7.386765717615906 0.8867727089965567 0.9463389985959638 -1.2985780748096023
Ni 4.355507051211559 4.507650040202508 3.7890490080902093 -1.6855918355002648 -0.9090515749994151 -0.8711236896053901
P 6.839473836543926 4.655536169029217 4.709210030045147 -0.12438405740574063 -0.4426141236637861 -0.06716055700689723
P 2.68764117165219 8.183911900987251 11.249702591273383 -0.6409397655539995 1.0424509485298885 -0.8360597560227214
P 4.125655313815812 7.965333826224273 5.98981296792445 -0.22559733312197275 0.953869502645054 1.035793591114371
P 6.585970796960925 8.52715516627442 2.1443338988086715 -2.53840258572908 0.9412587558595789 -0.8043665386844986
P 5.675386307015034 1.2970231912293217 12.249611912217304 -0.4317856655897144 -0.46856863874601884 -0.13569896819792757
P 1.196430311040496 7.523387539546469 2.0295455594391814 1.7309653785390575 4.235393407094906 1.2526720563061071
P 3.7954445896468574 4.300757280483786 7.541922189373672 -0.42582713401343436 -0.04071496122085891 0.8568077872033503
P 7.0824423166875095 3.4759555396498136 9.592937293219226 -0.923463636659687 -0.20270603034609608 -1.4289677149794746
Ni 7.8138831617435525 6.155681758117503 1.446001134520133 -0.6197921849421067 0.942998621368821 -0.12485276951204305
Ni 8.932295985070636 6.2841360219747 12.504549186224873 -2.143459285778696 -1.1623407176097014 0.38707623849748174
Ni 3.8482577228933157 5.957153026941269 5.520729431593026 -0.8921766536209473 -1.4061458319889526 0.333165090301323
Ni 8.712932028431183 0.17895278786270305 9.531209078543085 -0.2550470058416575 0.12267813045822744 -0.825715693784236
Ni 4.761564732196995 7.542697779939861 10.15992674218086 0.59205409559689 -0.8450059094724156 -2.0785060208357624
Ni 5.429321078048674 6.233147257370059 13.232459176278752 -0.4372410322773308 -0.8908373659842336 0.6527665829855983
Ni 1.6138084333418252 1.0319658169148107 10.110015758435384 0.435371840279076 0.35015982508710664 0.22648770614672603
Ni 6.472972210007741 6.119128895124782 11.064805168359344 0.7718117446769288 -1.4706332130390607 0.4207970277886946
Ni 2.9099428295917997 6.271805161103339 9.606520887224635 0.591210259539356 -0.794206053211729 1.5709275764854493
Ni 7.790606089021288 7.8800095082069666 7.877305700322426 -1.3417409833503215 -0.20754613204721675 1.5595962106330301
Ni 1.0480951068558018 2.9968950457818058 12.356486233975959 -0.4241021809025277 0.8135440914187086 -1.0128413531935718
Ni 8.735891006108208 4.162357868594529 0.8356880759704793 0.8161493902520396 -4.000424402950046 1.2707942198281146
Ni 1.3873341168675968 2.3741117258850832 8.0920273404487 -0.5637884158829775 -1.4967386518768608 1.0613336443670045
Ni 6.970454149289792 8.12389485053977 13.695119999417317 2.21010330816049 -1.1723135125516972 -1.309092601187681
Ni 1.618121427925814 5.768391684801225 5.603325616810571 -2.0255592934354016 -1.7397179279207071 -0.41718668472961706
Ni 3.369477901124049 2.4000926064918886 12.000178618066052 1.2144852608237406 -0.30194135640035097 -0.07297304992361626
Ni 2.8631547907316515 8.68079507312532 0.2632208432150814 1.5202531900590333 -0.9902629536724235 1.25726096122837
Ni 7.222675452955209 7.2847507654601245 3.543751885100737 2.3927166815217698 -0.9549398528910973 2.1150246845870866
Ni 5.732110138170619 3.488707408669286 11.503764168332879 0.015363112719631606 -0.33312061021663275 -0.172080077930123
Ni 3.096234257262921 4.252912043385046 -0.10849754206303878 0.5102883870823083 0.014969219715322606 0.1770129964553661
Ni 0.8788694783618042 5.621422418163737 1.8134963402858615 0.003041872150117342 -2.37171565379007 0.6851349720139749
Ni 3.595269248824674 2.876935790779841 9.534495748819344 -1.1218710396304292 0.1243164373925988 -0.2236389238440213
Ni 5.939891692868688 6.661415457102545 5.395711529798085 1.4151233528972142 0.23475123170709894 0.7195072788462576
Ni 0.34205602230949367 7.277911721987465 4.471511636342261 -1.1800885285114255 1.1394278175672699 -1.1773773002278496
P 8.647395093375126 2.3788925073003075 2.5560433802890925 -0.07876625956662564 -0.09551828221398388 -0.7475572430049383
P 0.03363200201848872 5.597640135663738 7.383164694589057 0.09595125598634444 -0.5658411846469481 -1.0010839555473277
P 7.25938736347055 4.791849251651166 13.347822893450662 -2.6402326690937046 1.3669758466577102 -2.146833344457251
P 8.74044724984444 0.2469072452625837 12.853092476309936 0.8323545392569923 -0.7795780188859089 -0.558349247145277
P 0.9836153700383364 4.862082766492824 13.48141252114116 1.9979903826781977 0.6666515684978067 -1.7062915299414614
P 7.957933438554131 7.417779984526802 5.854292316194614 -1.302094315492977 -0.7148908631201688 -2.1107206578950937
P 8.239615956850743 7.022022969565165 10.040988198044651 -0.9555903419909025 0.09403141325581224 0.9234073295004549
P 8.844913404995893 1.5763761311063815 5.718963457065584 -0.7863001681010909 0.8142166920057009 0.18823663308532743
Ni 8.550217057054317 3.9065252505919768 6.176229762466342 0.05491670664253768 -0.1411993291908665 0.3913314142294099
Ni 0.7045571358649547 7.910705680072622 -0.12389708454730285 -0.6354856844179636 1.0031426378485693 1.3921073516180156
Ni 5.210022611565595 6.448722140676506 3.0044367050749807 -0.3231866389323724 0.5063378870749925 -0.5523794027150873
Ni 7.00650180250478 5.63178857434391 8.707092177630042 2.0465752335654366 -0.0955041411465968 -0.4485510579735114
Ni 4.46845885948162 0.6038819251938315 10.125981322985444 0.4824731646422529 0.7535970214411151 0.24408227930003767
Ni 4.863233522097662 0.18032901672019708 4.737759995929097 -0.7031270377160214 1.0161663038017468 -0.6102500497796265
Ni 8.166557009548423 3.910276900978484 11.364669625212404 1.9044947873211973 2.627367383095262 0.8923975113825019
Ni 7.407928393860988 0.4979525328342743 3.974330016205862 1.5484365944717848 -0.7997542367234678 2.4859860198005768
Ni 0.3198978956875429 8.225554284703811 11.192438934114552 0.5820141948623848 0.1376846311693887 0.3564587707219409
Ni 4.572634986797707 8.360800813350544 12.194018254045984 -0.40361485958245324 0.8457985805770402 2.417706518697888
Ni 3.1926357674438797 6.392344471776036 1.1741299772218496 -0.8313782913866521 1.1927553253458167 0.24976133196268593
Ni 6.5912661438905085 8.41685103146915 11.178444623271318 2.585188949954999 1.9014840255193317 -0.32034145617409343
Ni 0.9564088879336948 5.567589509625186 10.799063889697566 -0.9851503150362066 -1.3789903546200832 -1.2735627837121872
Ni 8.922257279672328 5.079725267593331 3.965634794586862 -0.17863099167476332 -0.7629609791545183 -0.7236889210277729
Ni 8.306715299923127 2.1645993599114446 7.97028207532508 -0.5481301405204303 0.06191139279281596 0.3186303870202577
Ni 5.428001919184591 0.15725683463001267 0.5541889301117122 -2.7780160306244865 1.6543303063828219 -0.02612369367024533
Ni 6.904346514299628 3.9587957511142027 2.3505240427068776 -0.08336339201900482 0.4423690975325156 0.7902527249909357
Ni 4.400283606697396 2.0952639957857575 2.1990106947907715 -3.105571745158832 0.3927889726115429 -0.34539017161260516
Ni 4.817427835583107 6.288121565776824 7.868556215431003 -0.6555860547122645 3.5495320984378673 -1.9461687700212158
Ni 2.8990246849507693 8.50448621643276 8.993154116240676 0.6410387530257089 -0.8394893505295608 1.9339516591297337
Ni 8.654692567942396 8.570350602270683 1.8587107442457347 1.0958537896310612 0.8341946777895247 -0.1779995287383515
Ni 0.5431865838410593 7.279099900538803 8.661425891591195 -0.11250787479344494 -1.0607595170310893 1.805200583004549
Ni 5.839663686408225 3.132178997375037 0.3379778567147849 -1.5879166548442782 1.139698040509521 -0.1150218994645503
Ni 6.432059573747907 1.3847051548760547 2.308363351181308 1.475906288512542 0.7505960298312622 -1.6710175372305158
P 4.705795186177131 5.028886194774685 1.4564084559414545 1.0956712413066096 -1.6897135709781221 -0.042500592366371964
P 1.1844643238974983 -0.1514824739852449 8.071077039424999 -0.8111020576361193 2.544262901164599 -0.44656436656078574
P 3.9281837808781686 4.6218274499704055 11.445883032556818 -0.8948308034143428 0.39230200567279533 -0.30745328735751565
P 2.8627618497934133 1.4694774844325047 0.5128739971770159 1.9312460872731125 1.2347992897907443 0.7005639049745354
P 5.432801412073064 8.856420961044279 8.357822882382901 -0.2340665469352485 0.15202110239671884 0.39838215042860425
P 3.3059243822324293 1.9980766037283244 4.209029896320531 -0.32811467236160907 -0.3211827211284662 -0.07770876483638875
P 1.8759093948829293 4.858976661933422 3.626539862919087 0.28023250396834964 -1.0610618787628563 0.30679842738233615
P 0.7864142178891467 3.1877052942426602 10.156202223430565 0.2944499331193123 0.33188930891269297 -0.372008802641398
