# total energy = -340890.95611157763 ev
CRYSTAL
PRIMVEC
9.06269250557034 0.00000000000000 0.00000000000000

0.00000000000000 9.06269250557034 0.00000000000000

0.00000000000000 0.00000000000000 13.26416655289842

PRIMCOORD
 96 1
Ni 6.56053753083832 2.0194307236839752 11.550170587543688 -0.19875373056656737 -0.9196134096756613 0.9260200845329536
Ni 4.676829691150104 0.725392413971356 6.117128983784116 -1.0609135261104503 -1.9277599284967253 0.3811025374125501
Ni 2.6500763118659303 1.873240429764664 4.8617548394021 0.4701753211115064 -1.6125316251794808 0.5788039154552032
Ni 3.402297920934845 4.554383651775992 4.657247931304375 0.39289695894431687 -0.5477316195304308 0.7364151103451898
Ni 5.235961572226653 4.607744785654666 2.4805985231071754 -0.7125197917848309 0.11555668892209775 1.462843284680997
Ni 7.3142272961043036 5.977942338686381 2.66344468968258 0.8335184776581065 0.7700464252463899 -0.5703408722895145
Ni 4.915477574714497 4.531527541103094 10.85392198035342 -2.3897516853561744 0.8172716767819408 2.4909639326311424
Ni 5.763192775440952 7.806095872892891 12.606197214710644 -0.16917910223324412 -0.14463920811035091 -0.4255347995839962
Ni 1.664091610530279 6.773057671710419 0.27233300559456397 1.0734085732536676 -0.5729119754508004 -1.0166447861000618
Ni 2.6540820219838603 1.4535290112542716 0.3417033859060987 0.19261676443089407 0.7702366868803251 -0.34059017912080053
Ni 0.9215217690532096 8.734260595603212 4.538586472349375 -0.2861249581933846 0.8678056809757506 0.27051810489406314
Ni 8.55941406776332 2.319460224055479 1.6765636880513104 0.33412976820743745 0.2526383964001649 -0.010002876848982774
Ni 6.960564781076891 0.8861165479723979 5.160609814815946 -0.29100285511097623 -0.5993593710090517 -1.880714397072148
Ni 1.090568173645418 7.307684032065512 2.4944852869390863 -0.7982138888195414 0.27312880304403286 0.3680732150324177
Ni 7.618525324678399 3.5919166376711757 3.7008619839170516 0.4505531760052047 0.9485869140898762 1.2100303103761805
Ni 7.77099606455184 3.8441676227898984 12.576538646991327 0.36606904011819535 -0.5639357400941191 0.5363439465187796
Ni 7.8076818440934295 8.709655385263435 7.043139504469476 0.05835221468664789 0.6118032531993592 0.5527815232495125
Ni 7.046488169375755 0.5449958931988398 0.40918328854659214 -0.8767595477349287 1.5184241072700946 -0.03367116700020008
Ni 1.874608896343414 6.493292351935505 9.095955375059408 -0.8387671276515555 0.9675814529145078 1.4522153726535054
Ni 0.1431243850213568 4.836650274701468 1.281264444528857 0.34283243818775794 -0.26947835077563914 1.0136581926679122
Ni 6.257345150758315 2.263171840475239 7.036985029942132 0.6811124811181432 -0.43984401711781673 1.4949820741970703
Ni 3.209099440631586 4.646587486028986 0.5064441052561607 0.8687001677655619 -0.7487713179176975 -2.5344333166686868
Ni 5.930616958062324 5.765231881270216 4.708607116393342 -0.1124795926586708 -0.599214103680439 0.3263987181117669
Ni 5.453085560926602 2.549208543511709 9.545000010625694 -0.37602512288964274 1.5415884612016997 -0.6679738868536561
P 0.31413195628668766 5.280930652781339 12.405311758565691 0.3298295981701868 2.6451470756761863 -1.129312583510139
P 4.010178025369648 6.190652796102546 12.369804129058789 -0.2738224866769478 -0.4058442631336043 0.5002063202559578
P 2.5013031505628858 8.538488310608793 1.2564254167206588 0.06492858235258496 0.07029601731208539 0.6823874911758248
P 6.163945041085484 7.842600398582991 5.922105277196351 0.12982528302596996 -0.04271142282559741 -0.25341461244455715
P 4.838209057824282 1.3731338654258536 12.77288822550274 -0.00788891582977351 -1.9089888185368091 -0.5150989210970742
P 3.8184205131857345 5.992823279893715 8.357472807933439 1.5384465731386086 0.15514627828926184 -0.30146930185993887
P 4.7706466846813615 1.039436462140071 3.913234402900187 0.05130199270808584 0.1470511599859532 -0.4834157310611803
P 0.3964039857472852 5.474700082716791 3.6226029147284438 -0.7476678004408736 1.0721592742275987 -0.3107895508196002
Ni 1.6843286030491447 1.1718877141164354 2.5353127169872236 -0.7033018727309889 0.21279503915098189 0.5919587076696063
Ni 2.086884344516003 6.617233735584411 4.706232690938823 -0.19383135356428555 -0.5648317695458271 -0.27509466852115205
Ni 5.907343963531001 5.453647447866221 9.076496867832692 0.3037799522709865 0.36018532764390876 -1.5483188379469979
Ni 8.640443602071954 2.374153573742605 10.312664447841563 -0.015163338003999691 -0.181427580583294 -0.1804346205424054
Ni 2.1704876835157947 5.466625223632909 7.043139504469476 0.3169488855527768 -1.3572514202810948 -0.9796820928327838
Ni 0.5240810112754013 -0.1773242679897596 8.754495775583562 -0.2259194923480819 -0.5641802520047574 1.2151732880297008
Ni 1.204712786621286 0.918177635493218 11.401400145048415 1.8304421311801575 0.3127695573641065 0.36396999149732157
Ni 4.453606510347516 6.617541867131944 1.3359931387170243 -0.6817789110575483 2.3346858547302825 0.6365807172543554
Ni 5.690609670611757 7.8525240469520705 8.257487745835975 0.08407841580815842 0.04222008501147568 -0.515758409057944
Ni 5.159490572282996 2.8688678359995867 5.071288823070901 -0.16040598402630438 0.8574839873347685 -1.1309830292340264
Ni 0.6262737452840144 7.318532075077193 6.620079421052806 -0.42095515063311373 -0.5521554596297393 1.0492849407325864
Ni 4.762907145222735 4.668655142447903 6.808788243454656 0.8199556513720072 -0.053429837684366044 0.31031055430065274
Ni 7.950718320996813 7.208782867999959 9.19425568260727 0.9509996372964268 -1.0310213665367083 -0.46794823155320053
Ni 4.711358549858961 0.46434517943982084 10.486159728218595 -0.1998629044703461 -0.7366809624120667 0.6879719272421377
Ni 8.082861441425644 7.2586548652374505 4.868333447941931 -0.368207683727753 -0.2803937121365623 -0.750767779522436
Ni 7.093541669222577 6.095675777921752 6.986064479173771 0.5971297103475844 -0.21369595369869648 -0.22548137636939877
Ni 2.5143534278701702 5.264064981900188 2.4758496721981356 -1.5240159995355753 0.14428850963915152 1.5271848841818603
Ni 2.3124547626953875 5.1999283065504285 11.164170572871933 -0.1696915230932884 0.14595818403209054 0.950524497432221
Ni 1.0293406226120743 3.351583093287925 3.946898680737437 0.04959169488519846 0.2380772107565384 -1.5946321191912407
Ni 3.6724386611956366 2.7506721994429157 2.9023717041782673 -0.007257195783045566 0.2747393420642623 -0.8895497575210616
Ni 0.9128125214891122 3.3414963164525036 8.383549799547314 1.1849304299847594 -0.08965616700625204 -1.6726653572465837
Ni 3.4345973572703747 2.754116022621227 7.173168298720676 0.5244767627675483 -0.8401580944618112 -0.1396373840203853
Ni 4.087519043800459 6.885480373097132 6.068528482314827 0.5127062524951815 1.1984348922290975 0.4028227026984611
Ni 0.6446492607480772 7.404228896061695 11.200063366813252 0.9769549237096077 -2.074334920177208 -0.17791879609908715
P 0.08735166864860662 5.56358697148752 8.053790136185153 -0.0652949645530682 0.8540574781517227 -0.5826631413002933
P 8.533630707388859 1.7084897414527702 7.997324123830453 -0.559432452907127 -1.0117766593744835 0.5979151823633574
P 1.7791968689190443 3.1176931233251466 10.429693715863895 -0.4961527190118745 0.1743300503065643 0.5675342560786548
P 4.065904522010268 6.352394670479704 3.5191694981063812 0.33524948363417745 0.49095009176501264 1.1207731785805601
P 6.831992361522413 3.9768545047731996 10.543964300266548 2.193176707608481 -1.1765254937505156 -1.382627180041722
P 6.522292968173916 8.014120918248038 10.474314789023719 -1.3181891641723105 -0.44193329554667765 0.6705367624848257
P 2.3982512732982095 8.397309685683181 6.141998824747067 1.0047650039433405 0.2820093933631143 -0.45107536705726187
P 7.028743417314878 4.0505976342519325 1.4574803452167548 0.4191468937797813 -0.6399257224671883 0.6017497256180991
Ni 5.086726213602309 3.0571271488497413 0.7298394772176647 0.11639461144236082 -0.34641629888427433 -0.41684807044327565
Ni 1.6270161352079864 1.0812064122159564 7.142116795152656 -0.44345538861815886 0.3747128318361224 -2.1264113291574733
Ni 7.007400776301923 0.7096577671235035 9.343491041231614 0.23100153485667957 0.1956879471570501 -0.9116797566508815
Ni 2.22083094076716 1.4102455915184442 9.26515312661761 2.0034097539215563 -0.17413798890041624 0.83562883913289
Ni 6.249804990536328 2.0498360572714334 2.751836755438739 -0.10403686120795633 -0.7408160676263629 -0.7309875115717154
Ni 4.385101617176845 6.910656533069101 10.37776448741199 -0.3492882211154307 0.9452632490332818 -0.11383456402466847
Ni 8.311703491624424 7.037978301048296 0.18767567544835714 -1.4577051921234832 -0.6658856368660597 -0.10595464705595946
Ni 7.633197823956518 3.914657245634384 8.161548269703768 -0.27643035661344 -0.31603742948210084 -0.02843305852971232
Ni 3.3298960699571394 8.468152753538075 12.34676404572663 0.15598162970636362 -0.3577967728070741 0.45944945005356996
Ni -0.0734386230082293 4.7285051642099205 10.073630493573495 0.14738128963186228 1.4651475073341413 1.7385452477688448
Ni 8.717766495117615 2.367936566636496 5.928711073813906 0.23241975536044487 0.5041308521213447 -0.10703348194243503
Ni 3.620590996976904 2.7642934263823937 11.677652765181453 -0.4441177047925061 -0.04641329715721684 -0.3673584483535802
Ni 1.268831336585896 3.3346630462513276 12.607072670813341 -0.09358095598195496 -0.3891783724421491 0.3545607823682797
Ni 3.395718406125756 8.402466357758074 8.361836494408061 -1.199977554125869 -0.5262503097282033 -0.6348681054386228
Ni 5.74883747040294 7.971934084313725 3.6384136881939217 -0.25642306025357775 0.3491126147695149 -0.4449787672412207
Ni 3.241027306571561 8.626713622821581 3.6661364647793278 0.04190332510200525 -0.9402035751221872 -0.2266327163650226
Ni 3.320017735050931 3.900102561359732 9.170499646561725 0.3087421813722683 0.7065226936611316 -0.2201360528970854
Ni 6.936766150376245 5.906754888513658 11.326430833264352 1.2173849509690389 1.6690889527492352 0.20058512734835132
Ni 0.3634746922778278 -0.032225122256418506 0.4616870917077191 1.9776226176551233 -0.36848639131043637 1.0494116961184379
Ni 4.624075757673921 0.3749426234616042 1.5281249401042647 0.15887052121838446 -0.5660425020244767 0.0024497470920732
Ni 5.843062285100049 5.342167266507257 0.09353061244590291 0.6468062516371054 -0.4482859772375828 -0.39883929257068085
Ni 8.210618218648417 8.937473351201298 11.505378229494207 -2.283419086135506 0.7209702365450292 0.21466860202461097
Ni 0.1466343658554619 4.838562502834688 5.773175331311768 -1.3537493206651072 0.8223418922159967 0.19488216342630307
Ni 8.140962363520785 8.848994283596422 2.651599750487704 -0.34299801723134477 -0.45275326898031704 0.04194317720100518
P 8.87410700472037 1.3850694315464742 3.857737192381702 -0.8067062425612688 1.2672175582204497 0.1599688964888858
P 1.8938218046013606 3.2852351209499875 1.5855452539870598 -0.22822268655996175 -1.3552696139643756 0.3208767598522732
P 4.654490153953954 1.0716724596275788 8.326037046200259 0.12716856212941327 0.25007423521741445 -0.7193260160733871
P 8.797699443624733 1.6852801857694677 12.787797261057056 -1.5682957952895573 0.9952660633139698 -1.0052180323203592
P 6.506532945786855 7.868528762038644 1.4542168696206763 0.02219221982632307 -1.2775983872341417 0.5886419845915475
P 1.809937522131759 3.4927979689838344 6.007474028709657 0.3048760135486427 -0.35184826853312307 0.38988491159087046
P 6.855999434152272 4.078447288533381 5.95181731480186 0.07064105935632996 0.37933387554790154 -0.29143505755238835
P 2.423744627510287 8.387549165780442 10.350454063338725 -0.5880886831912389 0.3238109027799327 -0.5409125397260685
