# total energy = -340862.92259262037 ev
CRYSTAL
PRIMVEC
9.35114275793458 0.00000000000000 0.00000000000000

0.00000000000000 9.35114275793458 0.00000000000000

0.00000000000000 0.00000000000000 13.68634265423364

PRIMCOORD
 96 1
Ni 0.5209259842693283 8.540473562502726 6.495264540029684 0.61975079018121 -0.2986860826878469 -0.1539391453550381
Ni 9.109743085012632 6.848720907224749 11.617693410792386 2.620968421547454 0.0039019061575674735 0.08501095492475683
Ni 3.80646685223254 7.437403402265013 3.2966836897682086 -0.8354010393928001 0.6990844922155315 0.4327146051618871
Ni 0.8360847459739895 7.656145335516516 9.492696697173864 1.1282206359975409 -4.120287946777614 0.35947878849518733
Ni 0.3344286617496069 2.1741407096859806 9.280325697537453 -0.6037014500278313 0.7638521235102199 0.8569574254073371
Ni 5.22109838952538 5.746885097841568 7.684990805826918 -2.169197056864432 1.045370950390161 1.1706795764927
Ni 3.725298932404263 2.779617857262142 3.5012268477354658 -0.157591911616277 -0.1150316696565632 1.020691959586242
Ni 6.6058156208815095 5.235545905209101 0.9880969239380982 0.8299904099001899 -0.920254642804086 0.7240722725091208
Ni 1.805976865036317 0.7666281974352213 4.191278536475554 -0.13342611300335086 -1.0002321490699937 -0.8882423515635478
Ni 9.181634671146249 9.321527767993139 2.7431671024821163 2.2568835017388227 -1.346347114663765 -0.00011389987004496514
Ni 3.3059188784343845 8.19971791750936 11.057483275463312 -0.2586246958905869 -0.8215435646844175 -1.0383032449101022
Ni 0.6630577447114836 0.9994969021711226 0.4934158571561018 0.8423589587678719 0.5293862842540238 0.2915723544612011
Ni 1.7130078029472933 4.487295508792141 2.314018844704332 0.567072743061204 1.6877590183549127 0.46647936031715787
Ni 5.352051793819757 1.2437581042257788 1.4938235606395833 0.7387095628063213 -1.1703083091962103 1.1407467934890096
Ni 1.5221509776367952 2.375526921831345 2.474969780106673 -1.6355131736763189 -2.4945398229078584 -0.134734033181497
Ni 1.2982098089677205 0.16330181271165242 8.672651966508795 0.9009860243824613 1.9049591285521255 -0.7710841224822849
Ni 7.810121253476471 7.1832673933741065 2.281362783687707 -1.5197672515615503 0.826349727823809 -0.6678160211195531
Ni 7.971671597134686 6.775931611378746 6.787262391154774 0.7642925534817482 -0.5435785165940058 -1.9392298768095377
Ni 0.3504724175156638 5.9563600485412485 0.523891231663055 -3.6897420671322716 -1.9010795909920613 -1.3726628697401586
Ni 5.03889137133944 1.0200694164133126 7.210225803059929 1.1035100206247384 0.3485382303232836 0.18335436529236165
Ni 3.78192945342731 8.390415773391624 8.01732294135239 -0.5815858490757145 -0.5062761805991216 0.589098869623308
Ni 3.541287143650712 5.064363884428405 11.58120525144101 -0.2058967693692519 0.9193038488550426 0.03091957239699191
Ni 5.240090560628057 1.2367166936692473 12.808719485444014 0.4958953515854299 -0.5640789505402026 -0.5007040858279828
Ni 6.631998820826115 4.790160323008526 10.702418511700222 -1.5297829839263395 -0.24834748233429488 -0.5177301880723342
P 6.372626171946287 2.913629085264335 0.7606799354763772 0.7214070669721317 1.269960925293542 -1.1239294648213547
P 5.770618298362785 6.587973640347828 9.90379350881841 -1.0531197410976443 -0.588594933403696 2.1036282698246866
P 1.8916520357122009 5.911007005780057 10.377614981273108 -0.9874144284800349 -0.6421546117977069 0.9055733866428275
P 1.9027611934029833 3.7995283042472194 0.19207153876507127 0.414241486058364 -0.6478755734418842 -0.878005504326888
P 6.604478407455767 4.8766770965397725 6.529356936586128 2.536109161709213 0.664398510797572 -3.0283052100661845
P 8.303244419861763 8.305834686427712 8.738688802111941 -0.2994916093082778 0.473211793944985 -1.266339783601187
P 2.8540155496761708 4.534200841264334 4.541799579933971 0.4624391288095132 1.418907245419679 0.12987361976540215
P 5.389484418597705 6.592144250053291 2.2322421654773437 1.0738708576020668 0.15622228496225998 0.018241462708691165
Ni 5.718859722758003 6.012840951278897 12.617809358619342 -0.3250807706312917 1.8665581601764243 -0.6312868158452676
Ni 0.8449608507552107 4.88830056708661 12.24484276700841 2.2199694023212926 -1.6417511841662307 0.9683908361896806
Ni 1.1635065963955633 7.567711577703611 3.8748358628593236 1.4331483287197253 1.2511785024797162 0.04417309497278844
Ni 7.240674059252654 0.32964181173116275 3.7330594458449875 -1.3197086861406304 0.4811444185285004 -0.0017799747185582248
Ni 8.914079772283731 2.088409432153073 4.401253773317032 -0.49162449212421777 0.4448365852364016 -0.7868776378711158
Ni 7.539714256048558 5.997626641882515 8.773739690809213 0.9340918057974944 -1.7628622272476542 1.4684449471384902
Ni 7.1162477526587535 4.812855546674797 4.206087006272796 -0.45028578127643093 0.548809425975642 1.1668674018354612
Ni 2.024354103717163 8.572604089291891 1.585726592445148 -0.4648891330119026 1.2179660202834894 1.697681162564631
Ni 1.7603245857043301 2.858270319667169 5.02624114530906 -1.2129631677522594 0.15126031297129433 0.5802056808987363
Ni 3.870737256953709 5.441495475059096 0.6256148336764142 -0.23070714354471233 -0.06170081944390663 0.11753361014281048
Ni 7.705874713125592 1.0902684456933671 13.319794975848469 0.22787327364034304 0.6160126632950166 -0.8828412351526345
Ni 4.5862118977257245 5.703654764504457 4.965172571895404 0.38061942712854446 -0.20881394301604683 0.8476027236653145
Ni 2.016910594018625 3.602770907806348 10.336597128331316 0.42813444199037237 0.6009686244777005 -1.1054100658609285
Ni 0.4898063160208812 5.19440087672472 7.993193252374867 0.813586771731186 1.9911934143610224 2.5747520708923917
Ni 8.929892554821706 4.931100747853201 10.49483810253939 0.3777999554018784 -1.203500993898095 -2.6328168362456075
Ni 7.713346276252642 1.9616733932783454 6.653985227865314 -0.18869454655835244 1.0691981347167456 0.5966913372585853
Ni 7.872418567058957 3.276182244211583 11.838399084039734 0.22565569716373396 -1.6867449752681016 0.6232176656838879
Ni 5.655655348320294 8.928835875681084 10.694562616602557 -3.672777414253475 0.654625233460892 -2.1958010326052055
Ni 5.300714019642656 3.7938895651162925 12.5211559462524 1.4814827541590552 -0.8356103271901286 1.4708640981029444
Ni 2.4659057173544205 1.2446184093668156 10.749883042514089 -0.3627708289828978 -0.7141025628909186 -0.5861325879061324
Ni 9.232607750752692 5.788301309468232 3.4265402050077625 0.3616539417696352 -0.08073109660248032 0.11362193379323013
Ni 6.333846982599759 2.7787482009782676 3.095973565249985 0.7902013029277101 -1.143862713410172 0.8454987899484341
Ni 6.21189872885776 7.8005456832110145 8.379012054701466 -0.03552596082075172 3.5209540296898587 -2.0032084365440275
Ni 5.804740618576308 3.417758546769199 7.746853291267467 0.47854451901180817 -1.7721739915668835 1.249128561929223
P 1.9905310200744355 7.104951572111224 7.483897284452363 -0.10623078353548157 -0.31700570693264113 -0.24188450031777056
P 3.2694587725115216 0.8399383519372652 2.2580690868798454 -0.019533442047237327 -0.22351731066449246 0.7859623251456981
P 8.46857262522627 7.694831013434671 4.594901914764483 0.23343971198452698 -0.3331581483227875 -0.7959955410119839
P 1.5157454447932042 8.918362595703242 12.010286180990368 -2.150334929852606 -0.07453705197662647 -0.1396201576292047
P 6.08850104797597 1.9805627018098106 5.228689647280749 0.4183765912726601 0.5348647908700918 0.47476294048218887
P 4.758777887646349 8.12677900337796 12.674840108555829 -0.10822338848547812 -0.052629710380573874 -0.14006033049041686
P 3.8474435601458477 0.9216710807929182 9.228084602962262 0.5907667442440342 -0.3873084091129459 -0.9045968816621711
P 6.986528699218909 1.0563892551936152 11.241578289388116 0.9984873984647448 1.7067813250936865 0.04354137492606049
Ni 3.3524127606217338 2.689818832594983 12.41403299436475 -1.2410100465871468 1.4940317944686592 -0.1725647308760254
Ni 0.8897518898318768 2.164480979134989 12.144658363106082 -0.785800088536221 0.6760458652285132 0.46580675973016555
Ni 7.5306062429249705 8.942151903081482 6.023907093712628 -1.2896910567326174 1.2864802631048038 1.257834317233337
Ni 3.8490145521425236 3.0025865070761317 6.103766788657958 1.2369073372726826 0.09060798939656008 -0.12979160157455713
Ni 1.1144692033564523 5.64331183977498 5.518922002638146 2.235689127049395 2.8762995342884334 -0.7414040789193489
Ni 4.824656688935544 0.7882508450180467 4.1086265902789885 -0.9136569349819104 -1.578870742591926 -0.6259026687152188
Ni 2.6393694169874307 1.140764617015106 7.0467696964914595 -0.11772361466642951 -0.45107948082231986 -0.18399225598667668
Ni 2.9390080869249275 5.023396527657936 7.077659326626108 -0.1853809088040872 1.3827955872987863 -0.20638167942547037
Ni 9.32471650770068 4.120842923281714 6.271164401932373 -3.8009834165084673 -3.918201038072756 -1.275249684496307
Ni 9.3192647914265 8.233269818009806 13.673327087300516 -0.6342415275982174 0.2455138695402417 -0.15088261791690144
Ni 2.603591944491695 7.43511237226986 13.432255560067683 0.2502889223313819 -0.8137402665899146 -1.805488546558613
Ni 6.176074500647837 7.530335059782688 4.528660289133199 -0.2911064705683761 -0.37289917566615133 -0.7352138909482371
Ni 7.280547332311152 7.915359014968109 11.596137156323707 -1.3467767460020161 -0.30294794328799435 1.8049758685882529
Ni 4.636511695047879 8.457341902678603 1.1241766247359146 -0.33482293761972015 -0.7922430159480872 -0.12652810033193693
Ni 1.678717162162698 3.1191298002581376 7.566918600791003 -0.18138155783670698 -0.14599520791761308 0.6576719907070157
Ni 3.1714587955759987 8.885250198916152 5.466639763034471 0.7584530639818358 -1.951333344941291 0.5612206551558012
Ni 8.367814061153727 1.8754184517465455 1.8397728303648166 -1.8137276466389536 0.24498679339217808 1.8867474906401054
Ni 5.068871135276012 2.4750698373350324 10.518502104603611 -0.076061716151269 -0.6394048169667117 -1.0455928365929799
Ni 7.487132779874089 1.1989380766063167 8.989394811810104 -0.637273886666638 -0.5371021648410427 0.42078854314826236
Ni 2.850845512254306 0.6146805423566903 13.23944247567561 1.0204528469922425 -0.3264838216264055 0.794658053147483
Ni 9.078575725935714 3.3958955748154533 0.4926238153577775 0.6123763520940099 1.8222721937748552 -1.0507358142465
Ni 8.938607819946123 9.195446309117028 10.687267790075133 0.548231699095301 1.993362396987883 0.576584282096065
Ni 5.024284886227484 4.573569152609616 2.8640586770834946 -0.7874391668015406 1.1929769544383195 -0.5436332810913412
Ni 3.5829745384196587 2.7305617619373566 1.221792269700822 0.06647355824220164 1.132474011957256 -1.8134731074259867
P 8.581188438416586 3.9598536481937407 2.7735096907607795 -0.1292131033632678 -1.9344900481317069 -0.3889991665518075
P 7.765282523571334 6.559031853266203 13.283307751611376 -0.08504129394205999 -0.11991650855269025 0.37947348644955936
P 1.8175255264404557 6.477405727438895 1.6058867212882106 3.9129709000220676 1.9099496397881817 3.178039059090623
P 5.191268243874205 8.367224939154974 6.338678718103822 0.3570840630107657 -0.632267434590982 -0.8779101163996041
P 8.022457653884382 3.633068610599391 8.793557567824429 0.11577369002891029 0.19883703430899305 0.05798583248616466
P 7.454721718799802 9.21434496879133 1.368825899218321 -0.4796032992936256 -0.3887374282499885 0.7895605840199176
P 0.4556503316931435 1.4750586223078548 6.349559707909373 0.8204194783823031 -0.2523895136141524 0.21376203104994154
P 3.9060845768789263 4.020514511779689 8.768880836990922 -0.4751174956081301 -0.3268625451220629 -0.019947132545888226
