# total energy = -340886.34764371597 ev
CRYSTAL
PRIMVEC
9.10711696187749 0.00000000000000 0.00000000000000
0.00000000000000 9.10711696187749 0.00000000000000
0.00000000000000 0.00000000000000 13.32918623519955
PRIMCOORD
 96 1
Ni 6.249394757355358 2.456071062687653 11.375393846998339 0.6590814694600327 0.08471373539931217 1.6530357559411142
Ni 4.7641787954577115 0.6341276460779904 6.51510673511585 -0.4063597693174421 -0.32476915292814396 -0.8838359949657358
Ni 3.0698269987457834 1.89075588195861 4.994312909941532 -0.1260349627456023 -0.8512477766170695 0.37196792210113355
Ni 4.035700506536164 5.084466993270962 5.56420259554025 -0.05834835803190597 -1.3591949171607107 -2.3420785476499275
Ni 3.7466679342708415 3.1090240303187096 2.8345446310212155 -0.9598550308045275 0.28687700586806075 -0.8670042681203777
Ni 5.276126270560048 4.776118225846211 3.3634204152052787 0.6639807065338629 0.86549323079249 -0.7106053483709375
Ni 5.555796726548193 3.1796224013115815 0.8026156855810642 -0.653475950347797 0.9856164560393477 -0.5824695372322485
Ni 5.7985469302137 8.102101104483186 12.85738680018928 -0.3181557613766843 0.23838008670893784 -1.3264292926939156
Ni 2.4114188680310416 5.445846502993376 11.685644180452927 0.04544784792015399 -0.329815971323432 -0.951080369935691
Ni 0.5530087335253963 7.633011721988236 11.646536398626614 0.7956674682486039 -1.0678976707377672 -0.14003076280406207
Ni 0.8276092574790052 0.6305157634753366 4.840254186615072 -0.8935285396631515 -0.34539737070145676 -0.11928761671943972
Ni 8.892689931352539 2.483793126839137 1.5785092684573705 -1.3233195434203402 0.8154731901206214 -0.7595869204759628
Ni 1.5150326629593933 1.371176642809315 2.6622652987105653 0.49469233241626415 -0.729669306980924 -0.12516695831835217
Ni 2.0609041488909927 6.774492909407346 0.3942680413486474 0.30935513236591883 0.2287183952494577 0.19525265939184439
Ni 7.949165288682966 4.118101701162519 4.2839741766628645 -0.5222573865187263 2.6915369757946355 -2.430617313222285
Ni 7.896152760619305 4.045326729206374 12.674217177368662 -0.060373101771418594 0.1829404176833946 1.3087863828011717
Ni 8.486330370761472 0.45076222024184703 6.871328884480516 -1.22454547327322 -0.739502748131578 0.549793387155466
Ni 6.750286192418304 1.142506042027578 0.6535886443977361 0.8731785152518897 0.46944692758591405 -0.8639639386321571
Ni 1.6140179176448326 6.9866431999490075 9.555906619843885 1.3744405304658716 0.5506981583579226 0.26253662935048333
Ni 0.22343491921777894 5.1595642800623995 1.500453079352261 -0.0073854938307937315 -0.17093927945746046 0.219015566139397
Ni 6.269585235746895 2.422292765730408 7.411041227184241 1.3499384315594494 -0.5326089049563796 -1.1714545069855116
Ni 3.430523474693112 4.4230899424138475 0.5502592949027507 0.09857866630686249 0.03513258203707498 -0.6688120664842352
Ni 6.335630048239195 6.224058757858174 5.245488107544797 0.6155899739353011 -0.6863539320227405 -0.726274165256446
Ni 5.16299766317183 3.315983264169718 9.371444697120802 -0.6165042582194544 -0.2587365388781028 0.9835343766993384
P 0.43361351892869193 5.588846454145346 12.524796708730884 -0.31431093370929736 0.620360398740751 0.6023544490816335
P 4.270081269677618 6.317251886130885 13.011845325952091 -1.118571028722919 -0.15977040732483452 -0.7988538363963854
P 2.475924577750148 8.734781629669694 1.4923887272477476 0.03536475265253909 0.411402216837356 0.21628865412653717
P 6.677055864612101 8.377891928628845 6.164415337905978 -0.569655930407348 -0.5375564787696419 -0.09377044628494173
P 4.734097988002931 1.433587715618158 12.932789175400256 3.0362252362442095 -0.8308946668820141 0.6267351919188432
P 4.217451240528004 6.684013702000976 8.365570910037997 -0.14771116216745528 -0.007501193473051597 -1.6002165552575538
P 4.866770468475604 1.7193963684650755 3.934309151539022 0.9545001942505176 -1.0775750459265312 1.904190111596585
P 0.5370949572775964 6.067124917694452 3.6979293762158165 -1.119827526837839 -0.7895988934570208 0.21848926132228175
Ni 0.6583580415712355 7.675286959107548 2.228533387260858 0.23825153155087356 0.27395181316596046 1.052682910670542
Ni 2.225242075176645 6.716225574834024 4.824619088147507 0.4775911539596033 0.6685719254489713 -0.5143355605684884
Ni 6.5778702533526365 6.090247887760357 9.320513145291903 -1.0947289319979985 0.48254746952361416 0.6190799893664306
Ni 8.799715373887855 2.741615609141537 10.605553764792694 0.5786946435708484 -0.6799763106311709 -0.31714583205493124
Ni 2.418750097216963 5.644418082086331 6.969564623436761 0.27784317780056667 0.3808906785120602 2.188007761813032
Ni 0.9113400911875276 0.5286672312047374 9.256307059722134 -2.167018818266191 -0.9556425353850768 0.41091782100176966
Ni 1.6108850693964392 1.4512099870153725 11.66273158478975 -1.2398656485700583 0.48413049774001793 -0.003680277065064629
Ni 4.408591412148025 7.429485871246659 1.68911429372457 -0.3583631868335054 0.016945112494770816 -0.4215382768300934
Ni 5.891129881647335 8.391743853587585 8.326463128211682 -0.8604302144472858 -0.5336928820491776 -0.0012179315675011283
Ni 6.78360002640849 1.0337033152149049 4.83928063580765 0.17494557240337613 -0.24502510282928125 0.6930413713452451
Ni 0.9560013929611401 7.568706368843155 6.720215402792225 -0.9334312893953602 0.3699375219346661 0.24066348342647584
Ni 5.337836095359803 4.726557295125984 7.400417775202406 0.49368574552862077 1.3658977831021832 0.7615494435189722
Ni 8.129294955848604 8.082611874100737 9.241764815294706 0.6514769176398973 -1.0127269391028946 0.024945099981111878
Ni 4.75565453394464 0.6632267063200473 10.828871202201158 0.25473950190356776 -1.1972354726043573 -0.176108996583858
Ni 8.285372727014218 7.760975822971317 4.7187315494869 0.5904852084478733 0.06499080304908808 0.47117805134440793
Ni 7.749874247346922 6.640682039309531 7.209916923195866 -1.0727845665164233 -0.0006528030926504886 -0.5566268651375317
Ni 2.8018136525191024 5.385293282052766 2.571399949543346 -0.9774107803001038 0.745836917879722 1.1332779959157901
Ni 3.4224272476790945 4.894692889201113 9.203216210452263 -0.4933211631003504 -0.11350186327559808 0.6195556434512685
Ni 1.162723841770119 3.2277444075456287 4.254329600112439 0.09139140452980389 0.7568057581863998 -1.8835256412686978
Ni 0.6698803660010835 0.27393388298912513 0.2887511623499872 0.27725645205916116 0.28285297231033224 0.3213706687695562
Ni 1.3130550221080108 3.8184320162398597 8.224867773793715 -0.5574691585331689 0.08413755118086799 0.8438969926789529
Ni 5.669653903296502 3.245785606324896 5.235344600628923 -0.5676648681192482 0.3356143231727639 0.4402656780362676
Ni 4.512622009652098 7.283216465091278 6.157830892314151 -1.0957203493769903 1.5096427615330388 0.8525734374070285
Ni 8.400113294111637 7.514783129079378 0.3065792545914276 -0.43112797740105746 -1.130552626564827 0.1408658571108477
P 0.2985076167933133 6.0031838492294165 8.279010495077218 0.6039498185932115 -0.6069909194123805 -0.3180508603677038
P 8.847518631026862 2.168541164727519 8.285355423491916 -1.0356264694088875 -0.32685586025384356 0.2936901721351523
P 2.226189215344764 3.300355451395754 10.29980872211857 -1.0898780316636003 1.640296453997575 0.7845523321720488
P 4.247113120600733 6.662539120112277 3.830955212828134 -0.6968502035683741 -0.859932191764945 0.49503557468829584
P 6.8367491612271705 4.493342242960676 10.89422387380137 -0.8879505313547418 0.05815861061860307 -1.125094174553417
P 6.293218204364865 8.136680827736532 10.698444536780967 0.8768361666091351 -0.16095131500681312 -1.6809707917884855
P 2.5121344749466985 8.825169765906054 5.79505070799696 1.0743745367113626 0.13468903887617448 0.8237696258014587
P 7.1480668487942935 4.5572013473727 1.8354957174190658 0.3421400401064237 -1.783191939943942 0.6781901652650255
Ni 2.929604718279162 1.7448143320152698 0.6403277713323696 -1.5986265850626147 -0.2006550613543383 1.1732280539461666
Ni 1.4834582883164253 1.5989638532419408 7.107908105666047 1.086697834163406 -0.22498849589338027 -0.45153816562629334
Ni 7.092431471034302 1.2171479729689583 9.403594641558245 -0.22067058524431674 0.10640664699171352 -0.3654936272306995
Ni 2.9133849429001235 1.469897791101721 9.56739706936423 1.2664415992863738 0.35845703209889235 -1.0316841969316877
Ni 6.567205819344298 2.678202753462568 2.9265957268219833 0.30084143846795286 -0.4859793780232985 -0.8831698221366467
Ni 4.277376070395535 7.043690180844176 10.451175381659493 -0.08288156728657985 0.7133309748322166 1.2142088672339022
Ni 7.282096289700137 6.481817490341566 11.763873404781059 0.6158085177040105 -0.637789907071108 -0.7147767061398077
Ni 7.413694130366674 3.849123000533717 8.875198802440142 1.0315633550831071 0.026502160055586615 -0.9300700862326111
Ni 3.568660225366471 8.709290809183491 12.803269578833378 -1.5812487559057993 -0.8136163394175407 -0.016940998729712758
Ni 8.97871575854535 5.108546210621988 10.260261066541101 0.7796358687070379 1.049734369565179 0.6241707736257767
Ni 8.48361644989513 2.764920721547466 5.927342510978986 0.7065702590696153 -1.7449079567620789 2.1881828539383155
Ni 3.5258476683440914 2.7937629610900907 12.028084529659761 -0.5804553350156971 1.3025419445533568 -1.9649709903293833
Ni 1.1438265739927438 3.333414286109908 12.851375192256825 0.2098578108995289 1.3835905723962558 0.7051628371991275
Ni 2.6979743044720528 8.643455460382219 8.021690725633281 1.6095211204879312 -0.408065182044323 -0.2243287508221943
Ni 5.809721362774105 8.073705113673617 3.5880966344703142 -0.10993780007342356 1.5058552694661484 0.504499548314673
Ni 3.1886475542597155 8.898636878754287 3.6221126271812887 0.23001885922843612 -0.7722457468905539 0.4579324991884113
Ni 3.8334496521747474 2.805738819946596 7.209783959287649 -0.563039710642411 0.5937708211776807 0.44675308553282417
Ni 4.686832050766991 4.616552428869159 11.500662241349081 1.5480606991896049 1.4896493491302474 -0.2044685215631575
Ni 7.893994373890033 0.1385119638938067 2.753063255211976 1.0463960492205655 0.5423937522572853 0.19096508776008403
Ni 4.686759193830983 0.9363755558236738 2.1072511780215173 0.5694954935700837 -1.3070819985155553 -2.259051455924419
Ni 6.258447231654496 5.953932560487227 0.6200015968975152 -0.6747484865733283 0.34375289311949836 -0.6103256402125682
Ni 8.114432140902736 0.13273987313848135 11.318918793050841 -0.3091371028178418 1.0277915467455008 0.915353863068359
Ni 0.32219522811329004 5.082927890497769 6.0658590284312925 -0.39161423557715136 0.16108964035689033 -0.6204773839345895
Ni 7.330200081700182 6.50022297380088 2.890887631772196 1.4041817662840463 -0.9429855087426986 -0.7704534308768214
P 8.507094597524082 2.0179823064645985 3.7194157973566164 0.14576278019183284 -0.4805592354489917 0.4050932439001927
P 1.7964790067627623 3.397655889435981 1.7528276842645767 0.44933498732738747 0.6677196047510049 0.08762319573662329
P 4.883318100066684 1.306388612463173 8.627649148115031 -0.07326435591178995 -0.6820025970325803 -0.04179328188670221
P 8.526629363491537 1.8366960354398165 12.620073545373458 -0.26262610374049605 0.40046011600355547 0.6184732090203671
P 6.719795564698473 8.218817915969854 1.3607234939154014 -0.8768983873056381 -1.049721771159689 2.342431817224288
P 2.0698928733711224 3.464019451023321 6.070484533156175 0.3288466654316272 2.001438232017482 1.676091352208997
P 7.192272794717849 4.482213345985277 6.348211530376275 0.3146058392418969 0.6527421575055662 0.43758530299062703
P 2.2389573933803684 8.79442413891019 10.9620964846758 1.3716670814857925 -2.2933571711848244 -1.739470330686275
