# total energy = -340896.7850425233 ev
CRYSTAL
PRIMVEC
9.00624057939389 0.00000000000000 0.00000000000000
0.00000000000000 9.00624057939389 0.00000000000000
0.00000000000000 0.00000000000000 13.18154345269572
PRIMCOORD
 96 1
Ni 6.297820798536982 1.8617340068762427 11.431838090508622 0.008048324225773236 0.32247778579080594 -0.37362062721320816
Ni 4.556446189423341 0.31501937885367615 5.884083117167917 0.23604449659722573 -0.6342299576339917 -0.12462908353701116
Ni 2.6645863081445325 1.4309024810778581 4.919325630806967 0.07744008455603436 1.0840290290819912 -0.32366563545132
Ni 3.316719174995196 4.279008951464873 5.058825991459787 -0.33244852385027257 0.04486420750254209 -0.4946151993214256
Ni 5.177768707595027 4.650264196494056 2.6502411683094325 0.007803812315134947 -0.46487524905483163 -0.4526730505616849
Ni 7.323640595346183 6.0254360614872855 2.4658843263264414 -0.039209323209609896 -0.4201455102476248 -0.2127644430233626
Ni 4.986287028769026 4.576422030805971 11.43431660788847 0.16685842451986746 -0.11347049581703039 -0.5053487836888457
Ni 5.615922306902915 7.737306226791416 12.341839436004781 -0.1802273896276057 1.0513492794607828 0.3521190056960065
Ni 1.97061945426848 6.497354056351293 0.36613429669277 0.10965857827010791 -0.11579682995736185 -0.27122670092531354
Ni 2.8601568201480423 1.6134679818295579 0.3975066347776434 -0.07713977970679618 -0.4338314923751497 1.0768857331689905
Ni 0.5290959137936272 0.1901766745805812 4.654732192395734 -0.07494097228326448 -0.8429603397972966 0.8643190079787308
Ni 8.51201402656254 2.3181162369138146 1.3183650031713483 0.7218585526872535 1.1381070418733172 -0.03458725105656624
Ni 6.966345023059596 0.7360710281158132 4.581469127970455 -1.049823843955192 0.10178457483866987 -0.14362902167828165
Ni 0.9727730403873421 7.096692341513513 2.457606690702107 -0.28131082463419294 0.8994996696449217 0.3991519387150932
Ni 7.563098517204315 3.9614579184125245 3.7265274336432332 0.005223196072152295 -1.5258720789077076 0.2343388267600287
Ni 7.6397776486433155 3.921911516468826 12.388752942660377 0.5477570734517276 -0.6695494588708921 0.3695256312082281
Ni 7.797062632370199 9.018128716525665 6.7657832525825725 0.430990937602561 -0.10544094064433453 0.37687770069792514
Ni 6.95248441896227 0.6479638781328917 0.4494195055231849 -1.4098513058649977 -0.6669444171478771 -0.6250930283297299
Ni 1.7624492118347186 6.508332663495308 9.292698367515587 0.7103695782110475 -0.21916957521875802 -0.521654719937721
Ni 0.4085239687557182 4.993122765292657 1.4300784100740211 -0.8633417316671261 -1.5543979542615423 -0.10396435609880804
Ni 6.224618075922912 1.875675667137879 6.888147439475821 0.08264965378143185 0.6027149177448459 0.46332384540731175
Ni 3.344701564163739 4.115428605643103 0.3083376490422369 -0.6052582529919899 0.6259384070491607 0.6400583913903106
Ni 6.072682799040608 5.607519484535921 4.777531380704123 -0.32512010850965944 0.19076685570634888 0.5888404737555987
Ni 5.139429141875528 2.6961171560618378 9.201732636804604 0.3307009450315466 0.037515994667587 0.4220967204367247
P 0.3478291129190129 5.394386803598178 12.408722479674669 0.060393413486392766 0.43804064536049075 -0.37182959675105637
P 3.9849191748605626 6.094207713785641 12.671522775606515 0.5523899442380487 0.3133881647847119 0.05486297058646681
P 2.479535085020603 8.443053243214123 1.4923619667312384 -0.062420471218750564 0.03655414497494995 -0.552100695132404
P 6.317733596236257 7.650720230825414 5.843694631739423 0.03531950123690046 0.19579336238666278 -0.8489900909311444
P 4.7902662047415605 0.846193932949878 12.724103909395605 0.1387763215716707 0.926368726121624 -0.42349874299057383
P 3.994024483984926 6.120866185603758 8.208845959555301 -0.3050603616453069 0.9953385684231182 0.17540220032482048
P 4.753295587574883 1.1099200704029744 3.758203282032252 0.02566629441785257 -0.2662547016320188 0.5529740988762928
P 0.042548181895380295 5.556661244550481 3.6960386077493586 0.8803673196908451 -0.009200178442029317 0.18506749132872644
Ni 1.4260481174596271 1.082739236637071 2.568726586357207 1.313811089709273 0.7593444654478535 -0.231952071695407
Ni 1.9021630203868922 6.429870296441448 4.687133043143321 -0.052503983435986994 -0.43676692085438973 0.2687430152715114
Ni 6.038495110181971 5.763885831733938 9.179666447006777 -0.9396340757719623 -0.6846834862988531 -0.3813311084835884
Ni 8.483761450179625 2.36623657979361 10.283963020854605 0.21194374689428014 0.3833422253763462 0.23698886278836606
Ni 2.234160063167707 5.2289421659972355 7.1308061792002215 -0.26499177575919525 0.3017235839625901 -0.24050253236857935
Ni 0.45552483594396226 9.259586023770154 9.304798251599252 -0.19104659173029678 -0.43813191952271635 -0.504211584760609
Ni 1.4080356365014406 0.8694210271454595 11.535998864145528 0.21261814725348546 1.3647436148930818 -0.8385640105018137
Ni 4.146716285067472 6.817471867940184 1.584909193270353 0.5319969824039934 -0.05619017403832258 0.3169979936231573
Ni 5.564892948348373 7.849136714820317 7.892462135269043 -0.3482052724638971 0.32436677528340263 0.4448880072996273
Ni 5.2105153979770105 2.9240651025876883 4.905023720926168 0.09871981987041709 -0.26308941653015977 -0.6899925572165924
Ni 0.5431582576776833 7.410775971981411 6.852570087711258 0.14734246597412687 -0.28530169096114094 0.07234004432530768
Ni 4.869313977426563 4.57941210264503 6.91062161196735 0.556313447662171 0.17299950442059883 0.6332979327380255
Ni 7.986409832202656 7.403724085686281 9.070246028930082 0.6328587883180778 -0.01839881422216186 -0.7979968877127289
Ni 4.383526372224751 0.18629768680623573 10.43630267793442 0.848659704174919 0.9979212415486298 -0.052568775235651406
Ni 8.035412786649403 7.323694632789058 4.51554885140778 0.31457550022459374 -0.2553627373098634 0.7120670205181285
Ni 7.288552282439636 6.0270121535711265 7.060997007998674 -0.49944810193369465 -0.13630472010272654 -0.668989472602364
Ni 2.6047578526419155 5.021087141980242 2.6342523895868983 -0.5002202042130288 0.5299290441313713 -0.03906611276352627
Ni 2.426614415965451 5.196906968613101 11.40104665493465 -0.5321661609920061 -0.26615957081505126 -0.1472761315125657
Ni 1.035627592690934 3.308847720816469 3.94308698908327 0.10762200745605335 0.45900824875109336 -0.753936921279037
Ni 3.6459422957084504 2.789917150651594 2.7627984599449964 0.3034760478773225 -0.6971201694003091 0.08159473015435625
Ni 1.2127172992313449 3.1710522414863416 8.324184378250811 -0.947703225933342 0.7754020331313484 -0.2803821421723365
Ni 3.482479031012908 2.7379151181253096 7.210475382478281 -0.2029410291750376 -0.8522674761308354 -0.7025932766997385
Ni 4.135989852656873 6.838618520585095 6.026456468533566 -0.356728736553876 0.05819254918033204 -0.4508768778932106
Ni 0.6759318573166678 7.303898916216011 11.262138904905354 0.5024192687468767 0.4008820340323225 0.2167018304045558
P 0.11629668268248337 5.634349074923139 8.118407093912344 0.48383173555267645 -0.47597495851241906 0.14172049180165916
P 8.482455545310154 1.7576939168617574 8.057179068639275 -0.3008992882890818 -0.4232382902403356 -0.6687377616028741
P 1.9122319972425186 3.1962156773849286 10.418862993870704 0.10035581281194329 -0.3206774993572735 0.10174215163650864
P 4.01534225519894 6.071881243637969 3.901090889729258 0.3016261391527773 0.5749362049696808 -0.4258767563044472
P 6.77708788563193 4.009821429785255 10.34210730938763 0.29559047448165865 -0.43433491437412935 -0.19898384429950247
P 6.152613183292561 7.832078895352914 10.124519241284881 0.0510821633877959 -0.2343588813646867 0.49680449366326046
P 2.22846811918492 8.246618132124619 5.782228841717707 0.8186803842040093 1.4366018344859646 0.19155361327370238
P 6.97324380326658 3.97094148963701 1.4777304284489035 -0.4172992990480813 0.5588218159063215 -0.5988014416230526
Ni 5.321427249477045 3.0134880643046054 0.19115385167256282 0.8813361113620176 -0.4912961622505217 0.6945053574852813
Ni 1.3815122582905108 1.0001069802413902 7.035253570213234 -0.43524868443765036 0.3325315704823821 -0.4219529957700088
Ni 6.801873059430394 0.8317659357023707 9.111741381313454 -0.791778931827475 -0.5187974529945839 -0.11636221554252864
Ni 2.7108963966880295 1.4613345676567144 9.198753372454119 0.15581707910404133 0.01982757624888843 0.2001819783726617
Ni 6.234407859323686 2.058763529837366 2.344284769249868 0.3958159323633248 0.03961838572257048 1.0364268538229957
Ni 4.158334335285503 6.837519759246646 10.544074954003442 -0.5948460565197304 -0.654243167531125 -0.8594189995739521
Ni 8.338851040871013 7.170867738099324 0.04596334828505246 -1.1224359109949638 -0.3470757868451442 0.9455658678753652
Ni 7.4714780328104995 3.7689495281719063 8.183537523185002 0.6804936165872215 -0.12864540378525585 0.47169664285203927
Ni 2.944356162387085 8.40185869926275 12.41404786966996 1.3446607281002778 -0.7305195707963613 0.2802183629009626
Ni 0.2490360586076473 4.7543673301918945 10.233477639225 -0.49535927657630174 -0.3614284560223905 -0.23623655800337376
Ni 8.409541022391416 2.4232550882667496 5.721501563415277 0.3633886650725548 0.06223509468082184 0.47877437563442704
Ni 3.7152182974736356 2.544929397139299 11.485289227127993 -0.19395965161203368 -0.3835502276220943 -0.6361366877384013
Ni 1.1888597682022268 3.151760874380124 12.551531733079509 -0.879397499578408 0.6338993137674502 0.09574633906438994
Ni 2.919399870019518 8.219446304599195 7.9373717534180415 0.8686849982569104 -0.06200035296219644 -0.13710973250252517
Ni 5.72968913663482 7.7682426628371015 3.5581863891042134 -0.9539525492771636 0.29735399413998465 0.35168680325459434
Ni 3.0986780929963484 8.384098393037977 3.6182544106035737 0.4955706212561594 -0.507862551249635 0.4801234334631537
Ni 3.431044391636806 4.31331372144974 9.153830244944402 -0.17696465971593395 -0.07725239402526049 0.8625560025410371
Ni 7.440073272259901 6.186458635012993 11.101890868060849 -0.41297856018554036 -0.41560159963068427 0.9995523493941495
Ni 0.5535559623107965 9.043436252271915 0.5268164343283687 0.9830864905286425 -0.1807467524661855 -0.006468381333163054
Ni 4.575287244505605 0.244410453497585 1.7814721929746593 0.287223333463886 0.08272370155247688 -1.09851899516805
Ni 6.223276146091528 5.727455588996006 0.16733144498131322 -0.35345983599461706 -0.6287817900352267 1.1169664032399602
Ni 7.786741480781159 8.88854692851247 11.155869770372295 0.4334905640959631 -0.5279405529464327 0.5315946047592522
Ni 0.20386525948475506 4.920658554397873 5.794514254355239 -0.8802459636216324 -0.14056683781319018 0.23315611930583716
Ni 8.101149335906305 8.719526813441327 2.420724334692124 0.3502444143811129 0.3116693823213923 0.8981899496945627
P 8.57855213122208 1.6587333464774805 3.407534501490181 -1.8820688542175135 0.6957736826747437 1.0496281830046181
P 1.774787761291076 3.21318343444754 1.7430749873160931 0.16844093851563893 -0.7902365270410197 -1.2650730010736213
P 4.601666522868869 0.8760748376114137 8.047780156075294 -0.050812454666177 0.8731026677086319 0.5105375269786369
P 8.582109596211321 1.4556696423953646 12.429734038712395 -1.0021496778076804 1.344901383356174 -0.4656607210706045
P 6.503415256193723 7.7024340636563675 1.4895934484079654 -1.269418936747143 0.05407621301911333 -1.7417365010126324
P 1.6177189273356898 3.238463951472355 6.045991904756768 0.8019910964737865 -0.9602697497444431 0.48340698931043197
P 6.7454039316264796 3.9414460520679793 6.100893046093272 1.0619998171960934 0.2721150170675378 -0.8522577059388224
P 2.303949420640201 8.475394652774545 10.128064998161502 0.4209340675871912 -0.8952586349803807 0.5016649070793554
