# total energy = -381163.81552166416 ev
CRYSTAL
PRIMVEC
9.28782556854112 0.00000000000000 0.00000000000000
0.00000000000000 9.28782556854112 0.00000000000000
0.00000000000000 0.00000000000000 13.59367154735112
PRIMCOORD
 96 1
Ni 5.019048144086724 8.428413923770304 1.2741317965733063 -0.6934139241933155 0.4258669861124343 -0.8338192967279768
Ni 0.23557734049747417 9.266798088581416 0.8174391890163518 0.15248004431100837 -1.0779213735223565 1.4280655148801793
Ni 2.8701146180305614 4.106835052579439 7.237135105368578 -0.37070679600052286 2.23529960492046 2.1448183709097512
Ni 5.774807811239115 4.1496240656992365 9.740069465059326 -0.1721078458442649 1.290413793831255 0.8581121078370706
Ni 0.1509745359591112 3.9399142486313155 1.982636863996827 0.8149479137447706 -0.058162467273344995 2.336344473379628
Ni 4.8510128010514775 4.804508657641269 0.7816197603213632 0.8372157240040357 -1.425565888386777 1.7927988669060866
Ni 2.778174431168639 2.3952745277875267 12.502412797277955 2.130267983899402 1.9722245865680037 0.7076997446883683
Ni 3.5802803486938957 1.2463333341753131 3.6308014767306096 0.4074882264949305 -0.10808506313540095 -0.2031639438191211
Ni 3.9603474652285704 1.7445973208993837 7.51454109780578 -2.5007636923303833 -0.10905899701289604 -1.004521777584283
Ni 8.845149376271326 8.505995132059793 3.625786050838556 -1.1067084729573777 -0.4888448724965516 -0.47347558912933296
Ni 8.241802929283008 0.4047262938372713 12.060006723252773 -0.20014495448713918 -0.4461447625248639 0.517048074403645
Ni 8.762933542944552 2.1210886245295386 0.15473424781300615 -4.091551498074869 -0.33928045917044153 2.11629892331382
Ni 4.77868850212292 5.244547264888888 5.925386685822297 -0.1405940915066998 -2.0159263983313283 -0.633329043086277
Ni 5.241277950233327 2.629206994348922 1.783639625121303 -1.4231678204682456 -0.926606810274359 0.32914774161181376
Ni 4.41262742678309 7.864475721337511 4.067933923308555 1.1446137326435837 -0.6615772392986928 -1.4498599850474516
Ni 0.8376671446650619 1.176488884715604 3.144555936496016 1.1885052918202113 -0.43035947466614916 -0.6233323368848813
Ni 9.074465793446887 3.2239250512377633 6.836788021361127 1.110685969547887 -0.049201915645947523 -1.6979071625325082
Ni 6.583461645901219 6.520852412682084 0.4044012199368605 -0.8971139430215647 -0.30345367927981937 0.9586360707957619
Ni 7.194674881279481 0.7941629689643602 9.558920640881505 -2.6271863774327073 -0.5312485342737432 2.270089458906136
Ni 6.142865769110039 5.285051472880084 3.666049704143447 -1.737396221766066 3.604770192975566 1.9654160482866023
Ni 7.354174712472511 3.2517328014614826 8.17164548009633 -1.1748193096926864 -0.5076221531040548 0.4544106020780819
Ni 5.524863133126052 1.1276349213967118 0.09936766109502514 0.23042149398349349 -0.4725157963192249 -0.782039335942208
Ni 1.9080816293288783 0.11180870365503581 7.993663804491084 0.3014217364514551 -1.215155547417888 1.000183298109929
Ni 6.0939467910110645 8.125064247732597 11.976908546482026 1.0563657588387676 -1.4752288028295433 1.202603164674174
P 3.138783552807291 0.8277105954867628 9.785758137370788 0.2654885128899557 0.7022718888045776 -1.1787302147113183
Ni 3.260732704590001 5.532915678030517 3.828195636885822 3.2354654195288926 -0.12095034913384331 -1.4118063727088395
P 3.3219116126473285 1.410430639102725 0.8420231349305677 1.328867469821763 -0.9715322100321396 0.9922771558889749
Ni 4.857607157316955 5.919707180390833 8.291622826477406 -0.8962531376831661 -1.0741156266230212 -0.21296550329057515
P 0.5130130539769984 8.321808260086987 11.581210019250449 1.274417675513315 -0.3237648800333456 0.009222547039532503
P 1.2442993003413136 3.0048623936637346 4.272341320669489 1.3611147598912428 0.7313574933166244 0.22822525766312307
P 5.73829736831011 0.6753438144513205 4.268250033437175 -0.10598524318357876 -0.0030043340439625675 -0.21166966729728703
Ni 8.131361393574842 6.524093863860467 2.1919798119485705 0.8604952633572666 0.22182989565974054 1.4262598291300084
Ni 8.742881127202065 4.779812329035768 11.61303289653553 0.5076483783562998 -1.287444426790286 1.4466769593337796
Ni 7.868989604640359 7.71121730903237 10.537719083801235 -0.9045662855345519 1.363505885831239 -1.909894361070214
Ni 3.2336029656442813 3.0399146479537533 5.405292593511778 0.42931534967235097 -1.475690058736678 -1.9825385668995017
Ni 1.8194293327739683 4.953438943158082 5.277199545011302 -0.647993072856355 -1.3169221245344287 0.11413126932948087
Ni 8.51684331250779 2.6019193623658596 3.8775409261856204 -1.6608261985198107 1.346918928006835 1.1393131463662765
Ni 5.373768784215076 3.0189148739872103 12.158778105936186 0.7946086879667864 -1.1402348868495975 0.24216989276867326
Ni 7.267519298448697 7.069688610484362 4.927148823657995 0.16628609695616522 0.041804851850928 0.7609899714710765
Ni 5.00029602394588 1.943830470548349 9.47538779386678 0.9038880285206045 -0.5004860562799058 1.8529433976064669
Ni 9.317268133576635 7.78732175303142 8.386792390344269 -0.9325648276300067 0.8147923620035128 0.028712023222711845
Ni 3.0992174152144236 4.964751514892381 9.91742606999321 -0.08126742872192456 0.19539201318318608 -0.583672042180782
Ni 6.104274853218405 5.45593817841322 11.997163436825339 0.6046496728737135 -0.3370379429931679 -0.37555435390081127
Ni 7.2880732567803905 8.602421338747385 0.5912379085892999 0.6604878628892561 1.517901144887089 -0.7506232835247718
Ni 7.445139677633202 2.433614672384558 11.30279815528712 -0.20414944766084195 1.3979743519217536 0.331851513696222
Ni 4.658439022448071 6.924659211772479 10.50301419419337 -0.19661585828795816 -0.8660889553949601 0.40386914168510446
Ni 1.5099775552342627 2.611727306332542 8.191696038273674 0.49446324712459366 -3.03002759207393 -1.0745761111992074
Ni 0.4722404278223207 6.466834418259522 10.362482889480601 1.95882939620802 -0.3957781371468539 0.1761488486828579
Ni 2.6915097293190984 8.2186390919223 10.516553986536769 -1.9503108172140473 -1.0775452211298604 -0.35337190426650106
Ni 3.92270390756099 4.582009504548611 12.283364071442515 -2.075133247708788 0.10381291812260832 -0.2100478154231479
Ni 8.38384164811111 5.025010928202831 0.4484385168342361 -0.5679638874169057 -0.12841246183884336 -1.7315402772059212
Ni 2.7899885454921427 7.247420443577578 5.590465832576686 -0.8541752346765096 -0.22741741704984705 0.7629332112403763
Ni 3.9891583006307 8.941315523838592 12.254029402669437 -0.07720688549930574 1.2464173336456468 0.727833796434082
Ni 3.216420488051135 3.4227216730776053 2.675533740287763 -1.1103859218089651 0.12639903095324037 -0.03750313915178057
Ni 2.4398653790981735 5.527240816511915 1.266318877572574 1.2983528461726734 1.257680565264292 2.1472442067424247
Ni 4.296984708668351 6.720234167542666 13.426061988601695 -0.42946395943507326 1.030449296083322 -1.3810842610346343
P 7.278850445834448 8.1019747129777 7.241729792755243 1.6638685848905603 -0.07494508604832255 -2.003683062187601
Ni 7.449021988786679 4.461917917911106 5.707289962123775 -0.9334793690244764 0.9142094650512707 0.024792119343015367
P 6.7903851152513335 3.548339516022095 0.3967749862332212 -0.7220416152323371 -1.3626574217880145 -2.512221813568654
Ni 8.351687195447612 0.8450732568989944 5.571733216869866 -0.1689926972540509 -0.31869774992308336 -0.16088420921430355
P 4.504697643205178 6.582848649403302 2.2380752910268336 -0.19901598308901855 -0.9684026632642228 -0.028970676200737202
P 9.137836628375558 2.4095777794056055 10.029601642764426 -0.2930188570997405 0.913304436738498 -0.8646743344356205
P 7.489916285458369 5.590667378394941 10.335064299154801 -1.5616561784858525 0.7498884622412764 -3.0658304607051523
Ni 0.8108374024902931 0.5546299434901718 10.080101408801967 0.40712518672855685 -0.20085277918744118 0.11800077958721612
Ni 1.5979889918140768 0.6233598538627579 12.679279933796078 -1.006991065060382 -0.6197417913201455 -0.6436857037302527
Ni 1.9743224024068895 6.640971862796767 8.536309666446966 1.6532596990264623 -0.3426671162544873 -0.6576815037887125
Ni 1.4544920843469884 2.410422971546674 1.0489103817603502 1.7688840079617019 -0.29099051381580204 -0.13924554789860535
Ni 6.719500429310309 8.337569700344053 2.7355228778695864 -0.6618207227680667 0.4565024516101041 2.4738151887659976
Ni 7.420434061201975 1.4041427810862064 2.1049389531571263 -0.09796674375447645 -0.4153725143390137 -0.10260038587174589
Ni 1.3442920321077003 4.791422111193299 13.202731575106556 -0.044841324684406644 -0.30828401078892714 -1.7202929864268761
Ni 2.2283351481879508 7.839853695337817 13.423546845395087 -0.9977052688830816 -1.1562983680703636 0.1663532027486748
Ni 0.46720456871366983 4.256526939805786 9.111715547303683 -0.9357509386674723 2.0497515744108896 0.4934052381737245
Ni 6.654578527485394 2.302814222684946 5.838074622519653 0.4082155915792582 -0.86999600375885 2.1242737139891803
Ni 5.509501069375206 3.064313766136021 4.254724172832364 -1.544550114933185 0.32919427857903305 -1.9818561961204966
Ni 6.189369912520247 7.693254654078237 8.922491887439657 0.3410064407226127 0.5038030364682807 0.30548305100502227
Ni 0.6170497050644964 5.950031931386305 6.764387562261616 -0.3038925665894508 -0.07625172067488802 0.36279654001451067
Ni 1.541611889657104 6.860638229042988 3.359268176499974 -1.3087179914570815 -0.12982245481249252 -0.9302220384294431
Ni 5.192841939072106 7.3276765456761614 6.413861304231137 0.8910070587928783 1.7320560405000751 0.34111879793076094
Ni 8.664686922414658 0.7992675579833836 8.14240554714566 2.10955003462576 0.6182032431884321 -3.265434969307789
Ni 2.306445762543822 2.7795490293760903 10.292203769776915 0.1871228311958584 -0.07043485688279483 0.5619439064750709
Ni 7.966521062589349 5.8291230160849095 7.90512760575775 -1.6541068775181063 -0.3640844055879988 1.0407565915466013
Ni 0.3172052544557913 8.184469181076254 6.035373118069887 -0.7189976861996907 -0.7122572821520636 0.7439628407854607
Ni 1.4569533581643852 1.036772122319008 6.113033272878046 0.01565004783243111 1.447224090086501 -2.2434962817986395
Ni 0.488841487525018 2.868795746777466 12.158153035264824 1.9078619040212175 -0.19097640061399368 -2.960417802195592
Ni 6.932498136685244 3.958239128788763 2.3716611596616803 3.084737324911984 -1.0391051719861073 0.045027729663599865
Ni 9.042088432965963 5.348162248688425 4.2973943017828695 -0.5848663195991992 -0.07781238029378858 -0.6822342534274122
Ni 4.064120342065449 0.09112285819803262 5.687768810012816 -0.40858403066227045 1.3151118107985675 1.2440891997331025
Ni 8.453909005388244 7.023778887920619 12.56664275608628 0.23936841876413617 -0.5349439808474593 1.7741424281471636
P 5.795296754790727 0.792658341196744 11.503263799409929 0.35776489112787413 1.8434298016890769 -1.1860799702081701
Ni 5.845868965868933 0.5264116713693623 7.299638457374437 1.5073750485447848 -0.8403982354970753 0.39713593672632896
P 2.890269199856036 6.239626337523769 11.6697592209398 -1.2548238125417874 0.8817834833120813 0.13204671615732097
Ni 3.983204804340318 8.363872822800156 8.288986012753789 -0.07732618468598941 0.17511500810170488 0.1681740580074975
P 4.920727220951022 3.614747469963175 7.689042625111484 1.6317045985635061 0.9504381083660018 0.06821985150934702
P 0.5519652662893753 6.846102781781759 0.8558489923063287 0.15896128115997785 -0.4658119019364881 0.7523569783864269
P 1.476132718288627 8.704253060007526 4.364071602670004 2.47593891997722 1.3512496941717052 0.2243367212419943
Ni 2.882950393183928 8.754258713716444 2.1506545601631943 -1.0185119212157878 0.49086858779479986 -0.17816742177478348
