# total energy = -340863.222510915 ev
CRYSTAL
PRIMVEC
9.26910258594799 0.00000000000000 0.00000000000000

0.00000000000000 9.26910258594799 0.00000000000000

0.00000000000000 0.00000000000000 13.56626856978603

PRIMCOORD
 96 1
Ni 7.579789931436778 7.564931560324782 3.4997581576321957 -1.8658734754045736 0.02180089792517536 -0.11595238169861967
Ni 0.6921118247350937 2.208873442198625 5.965576679211494 0.11291359487229584 0.009760678931189641 -0.9369755551031927
Ni 6.828983369713227 6.987929937291843 5.667512007861363 0.2837207196272662 1.1547454217609467 1.9424812938673
Ni 1.790067589451681 -0.02361211139781699 6.4830484191317135 -1.1660101960414886 -0.4128705738527664 -0.25262836909783587
Ni 4.589809231840792 4.2772272923461765 1.5093834119706124 -0.32954574838118084 0.03023823005925115 -0.48344144209279327
Ni 8.547975482130104 7.626895509721972 1.2217752150131482 -1.6718431184556046 -0.15354936611578718 -0.0066802402336530115
Ni 5.4148334963053015 5.171278562219945 6.798057009628899 -0.06355201372003248 -0.23165536639059456 -0.3320266058215056
Ni 0.4740079919593563 6.423830904769135 9.721615321583856 1.1458368064174071 -0.7183744507933951 -1.4915002862960571
Ni 0.9564786743898623 7.033969568803563 12.959340589540073 0.0729023445866809 -0.5990279558115619 2.07430226716706
Ni 2.7258390891290043 4.523581495349702 9.774455693510346 -0.6240977542959961 1.5590907317515215 2.046594516839146
Ni 8.55583568094668 1.0289723240885067 11.289197573565703 0.559154773765708 0.44364924979651976 0.23941212751787797
Ni 4.7827270596349205 1.912336318920396 1.4483751070285964 -0.11515765371146619 -1.02815355807061 1.697107035228716
Ni 8.446386120066794 3.153283745292281 1.5572045649593922 -0.45850482675211357 0.34277818791105485 -1.1470146287755922
Ni 0.13209583180991188 -0.014111281460326837 0.09132753882058217 0.9041906473626878 2.070092085740454 -0.22735391080176331
Ni 2.1724087934434193 1.3363635662514197 4.524350830847079 1.5442212708388565 -1.1606453321851495 -1.0476646315203442
Ni 0.8720325171747364 2.74377480223051 3.1002997022789334 -0.08265839553218023 1.012056138288115 1.5498828400000082
Ni 6.842293800728092 2.3702485146002874 5.605378433890654 0.9848214709418781 -0.43947814913796573 0.014589724888716809
Ni 5.415343296936094 9.010985684117918 0.05898764062360349 0.3002223168267152 -0.06612208844005386 0.717170660293281
Ni 4.106508964747451 9.06689690966225 2.265458531485841 -0.611019066735167 -0.3189024097347217 0.6180140099957615
Ni 7.518725084970256 4.878300774254883 9.697114303267984 2.01563072146778 -3.3155961635432125 0.011923748020779465
Ni 6.826202638999815 4.0995107924520315 11.986530683670345 0.24706347341554868 0.37022908503315594 1.9322593590289758
Ni 2.746435034613007 7.178215340010609 10.756083296472303 1.530525518519319 -0.9604772377695588 1.6305823120336047
Ni 4.953093161343281 4.279618720759711 4.382528929911891 2.809222538134278 1.7140097245213255 -0.698205689155004
Ni 4.124861787455969 5.2982096501848135 12.376574511738232 -0.869724238154702 1.0503653182809587 1.1610153139300585
P 4.386611969509417 7.6406972031628735 12.227616328882192 0.23405420564007434 0.23713155901381744 0.028002655860513065
P 6.702144972772139 5.5630557124325275 4.356114768865193 0.24891106814724875 -2.0536869049095534 -1.8656585311802905
P 2.5871362411440257 7.0070520954977376 8.717385939383288 0.015028097977716053 -0.8984452602384786 -1.8140950572807015
P 8.011220301622611 5.6464590956301235 1.0518243690913245 0.9789421293429657 -1.9097259538131497 -0.6476161491329105
P 6.070140496227916 8.296671578456706 2.0790309291768145 0.3068303090615361 -0.8481071741055587 -1.065245834937217
P 1.2601715447039377 5.091026673830882 4.024691524966737 -1.7922517361533652 1.588258097344097 -0.8088654549961166
P 7.4332361537376 8.548865315958396 10.747780961472293 -0.267614558094023 -0.7835130922742571 -1.18201685588239
P 4.06760654206682 3.329962105720085 6.0481412086438775 0.48250350365955613 -0.6455027023343335 2.275380789212062
Ni 0.03231765235127138 0.2041723719015445 9.066418623979542 0.8189518926978411 -0.20062857899177705 -0.5670174643432364
Ni 3.023414351873574 3.1249388302202368 13.41032413119238 -0.04916720575327017 -0.09124973674561705 -1.932610828831123
Ni 5.165281452981354 1.1855645396631005 6.717636423576557 -1.2932443213015148 -0.5244934749380966 0.4920204420110559
Ni 1.96582830874406 6.507725550392768 6.454491241615212 0.9569499413425906 1.292084753775775 0.5044782081584345
Ni 5.825352771526279 6.2740514794424 11.10629686471152 0.06921769664624208 0.1179059058805647 -0.8425718461096264
Ni 2.8413877193736403 4.6794692591435645 7.338835907478699 1.356999966391921 -0.9294923593522703 -0.042660257872687825
Ni 0.16876996227886165 4.4522835598578245 13.147925111972471 -0.11376925800437179 -0.0150653789735547 0.7926286814222802
Ni 8.188232349736026 5.98820163120605 11.473250431845475 0.6765086637975446 1.6000219227482444 2.1797380656050716
Ni 1.4609217640075103 1.979991497177704 10.264374099701604 -0.5800709550930848 0.8697473780831538 0.22933134624310827
Ni 3.635295607155074 5.8999783147718725 3.122710538008556 -0.9174032893982201 0.4218804906608605 0.39288898852451687
Ni 8.34500994735818 4.873573532042083 3.0757310195157026 0.6099394605177431 0.13201329181622426 1.0650514595382239
Ni 5.064572655643958 8.100481757523129 9.690968888391346 -0.6582309485342792 -0.4864804860294331 0.8903812522834214
Ni 6.173008994419395 2.893878646140476 8.120062736296736 0.9108402914687217 0.48366975605351537 -1.448177455138706
Ni 6.559549101788384 2.846912104390952 3.23440229475369 0.49026283589000086 0.8889152092608562 -0.7715476923822647
Ni 3.274690448239838 0.7882296356646464 11.106826130457307 0.47438833075158937 0.04119987127707743 0.5808757103825674
Ni 1.0096555147326731 3.919115521970633 8.589862555776463 -2.3703321431789823 -1.2461831061476538 -0.883368311300698
Ni 5.6554130485273095 0.4611211589231684 11.378205982971298 0.8833515991301496 -0.5025761060397151 -0.1862005764919051
Ni 3.6991504534373854 8.484352363407243 7.468176035151619 0.7395644546074488 -0.5394349267392774 -0.3652072063385323
Ni 4.061535280009205 6.7070297897253655 0.9055486644634883 1.988733382856304 1.1992532743653348 -0.6075550194459666
Ni 3.0331191020633805 0.30981789316548375 13.491178511236017 0.43907474305195987 0.030453945614483034 -0.2634187748451205
Ni 4.928131468639221 4.407087416662505 9.276315593509764 1.0585735651233639 2.7559778198775247 0.6296518513450059
Ni 0.838557153936448 8.231519057841467 11.081755062345184 -1.913789839469878 2.4345858109517295 0.4580024331943983
Ni 6.0414989698797745 2.7608484888108578 10.507509143449237 -0.24906482011629366 -1.676420453413642 -0.5562607400473647
Ni 8.813933836663182 -0.2070448667284988 5.229321681311226 -1.5834542481975504 5.385866940953376 0.2726503207457175
P 6.243908358509016 6.012060300727122 8.777226337425672 -2.2212238435536844 2.78645747652362 -1.5160741189806795
P 1.9026779142424792 1.702910219790979 7.875136901969667 -1.0031434091795175 0.6422695401090165 0.11661444076265078
P 4.843393334699187 0.7611823949255281 8.813678936347785 0.19995932083889434 -0.5196430888243309 0.6064353040192265
P 1.2492061965907175 1.3002140669770672 12.568116804739462 1.5859759861781395 0.49568992044284305 -3.261974521563014
P 2.9223904050553244 2.730798058901255 2.1238674311998658 2.0147169514042593 -2.5555654706616115 1.5499257774228017
P 4.092531158361369 6.377040475964793 5.327758621655764 -0.5076584056586289 0.4783653131214665 0.41912092563785236
P 0.24576005354109284 7.779891313573888 7.380728542586485 0.17037749341671946 0.6211795522079366 0.08650605141304457
P 6.433387349320893 3.3362836335419077 0.7045657906902271 -0.5861688404607066 0.4302257773017623 0.11695871147594697
Ni 6.2889561960662865 5.924226286592823 13.441987384915764 -0.2214097774031864 0.6288656079982847 -0.2637188225840426
Ni 2.8376986166271805 3.807673104079468 4.337013929594767 -1.6104945401447939 -1.4114919267922141 -0.486044426933279
Ni 7.6853835457274 8.306654401717854 12.778759937011115 -1.8543243371143936 -0.6283454738287565 -0.8986488916088523
Ni 3.823578883760183 2.6175945115582624 8.707455023095457 -2.0248517258454157 -1.6066018899586074 -0.49574854159492043
Ni 1.9910866127242168 4.346921673126653 1.5122586875282802 -1.9665841004527747 3.671219582848052 0.13390870906672422
Ni 7.225543376752876 1.103773980279283 1.7610645681107966 -0.7643509175235095 -1.5648790562985244 0.25072472431721987
Ni 0.3848114197754853 4.528086279105429 5.879932953969125 0.6343713683078622 0.13416890470664636 -0.12179572785327411
Ni 8.635086506278915 2.101620658582334 7.723873493352208 -0.5295094400954494 -0.04406279464716928 0.2776410890920896
Ni 8.684082981449231 5.72239158231102 7.62783817743382 -0.637234034567638 0.17715466423955295 -0.043858906166479306
Ni 1.729197394135098 8.926043629925566 1.7356950349021034 0.9496397808344225 -1.6599522805552895 0.32992472898715436
Ni 5.901211105388152 7.784942974369919 7.560494441016414 -0.5243106695033293 0.6306448113858946 -1.0134890140798998
Ni 5.052532091654885 2.213980717608925 12.830285023310159 0.48802700458094667 0.657710557254435 -1.9776257029789168
Ni 0.3439615586852289 6.981172761658252 2.9628324256409475 4.207206660248045 -1.9163588857486353 0.2696081914852841
Ni 9.046532691737697 0.12403263965125559 2.7966457621948453 -0.6445277400155738 1.6987597403407906 0.48774778277763103
Ni 2.2747396836969713 -0.08011841331481939 9.175680948991392 0.6423973239361322 -0.2647755459833311 -0.07178057227741186
Ni 7.414076919122193 1.7816697826971777 13.205147915503295 0.4261058415961178 -0.4540869001900761 -1.2476982572405995
Ni 1.2130566973163646 2.105606372604891 0.8930455722657512 -0.8668104069420167 -0.6180600327423486 0.40464201529538696
Ni 6.07210554593206 0.25910663405523143 3.821061395554308 0.8818261636245588 0.2619717579859488 0.7434445063881454
Ni 0.07984775552538065 7.141991687917232 5.299377557084447 1.1089774714972127 -4.961202459789475 -0.16497252035106424
Ni 4.055297174108785 8.652725608104324 4.918776163609066 -0.6814276983657168 -0.28341990055739574 0.06891430647321034
Ni 4.748681646600383 1.9633627275115018 4.516278369586045 -2.194278425313092 -0.37602897954438463 -1.1223718905262479
Ni 6.108217968796901 5.77878480117901 2.276283916153153 0.2801898236558723 1.1158795979336846 0.7439888089273896
Ni 7.09671212280051 0.935113393408482 9.085533366903533 -1.4248246393453783 -0.746766885893159 1.0269505389014444
Ni 7.794592109945457 7.715285669998955 8.774214806063046 0.33371350660562527 -0.8002208919472412 0.9685505016959964
P 7.757497162228545 3.8731129668684248 6.844195820536065 0.048264748543658816 0.6590932965345745 0.36842159951077197
P 2.099053117223617 6.579338635365497 1.3471444592273172 -1.6420594594352689 0.5903592243929704 0.16747086129288577
P 4.0708136514896225 3.6268236475815456 11.24259716136011 0.3888952939840915 -2.318702077707516 -0.23494277889261472
P 6.723612213879678 9.173259859450248 5.961968217655723 -0.1507949432991016 0.08853568024856366 -0.2331221807441082
P 1.5055524919577687 8.567737208400082 3.907898981182968 1.197090462386061 0.6510357163374207 1.4649438759637674
P 8.41818024153042 1.937881965074272 4.088520417762391 -0.03277899420323387 -0.5619523911155031 -0.40955950720166234
P 8.610810727150831 2.6267616538101435 9.829602218108489 -0.5402250267407406 0.8792982549963825 -0.2183195685136369
P 1.1424910209123524 5.475583193290971 11.518263973723947 0.46758313490429787 -0.5086912177985176 -0.657576602779732
