# total energy = -340872.1513050225 ev
CRYSTAL
PRIMVEC
9.18118877785377 0.00000000000000 0.00000000000000
0.00000000000000 9.18118877785377 0.00000000000000
0.00000000000000 0.00000000000000 13.43759782517017
PRIMCOORD
 96 1
Ni 3.5430482169287907 5.312097995070638 10.820061040493844 1.2583372250116844 0.12713230957483912 0.6409253673762961
Ni 8.230008262715634 3.4736200688801477 1.6356645523199098 0.5781058609469141 0.2942828114138286 0.7695717996028166
Ni 9.160760436291307 7.002363993999921 6.05554565852656 0.11168023668582702 -1.0865168285008513 0.4879820102756241
Ni 8.287216248763121 6.317502412997478 11.005714772906753 0.8786667920599707 0.7017679525849656 0.05823780059597067
Ni 5.994728547247927 7.409861867973866 10.419566577169396 -0.9470406526486788 0.33584160869222157 1.3537241238541267
Ni 8.02033745909399 7.792230828801935 2.0643507733008186 0.7335933246256786 1.1070090349169321 -0.5736725077659087
Ni 1.7548740229729627 6.570737956435414 10.039162390697639 -0.46659197463562224 0.027224125823275696 -0.8122536547420591
Ni 5.6233311067740175 5.90260450102734 4.504497694524649 -0.10742711783642789 -0.6366151700367165 1.0609963156322437
Ni 6.457754249759058 1.067377440847805 11.04903804746337 0.9959566616230913 0.4943226077816713 -0.2631467521306565
Ni 4.399873460051189 5.3003001677442025 0.8437613298906578 -0.9501961675585248 0.15068232898063727 -1.358407902483041
Ni 2.952000020845817 8.317000024519507 2.8707951622044745 1.3895010243434198 -1.743154721516398 -1.097577200080071
Ni 4.93033499268891 8.371591371821442 5.6504422385345086 1.2701547864719027 0.045220562400696315 -0.43469126927228363
Ni 6.4778518715626126 2.0609289443167236 2.7541297989071842 -0.7487780027859168 -0.20948731493398762 -0.12865517397726878
Ni 4.15513969723915 7.9852377751492725 0.6445479000626417 -0.020711007295106266 0.08040919448668733 -0.06924597878101624
Ni 3.901555268635141 0.972260327149849 1.62675512692102 -0.851770739000075 -0.2108001202081402 -0.5867733068139249
Ni 1.2399103366597728 6.327730257076582 1.2882841830547331 1.5602073618544678 1.3760155882624754 1.3072758596939162
Ni 2.1374449699498084 9.155058918182577 9.33121562912742 -0.6787568364017729 0.08193591554385889 0.29459442911697653
Ni 6.267602653060374 6.785017716724661 0.709999675336904 0.30224628923527946 -0.06601513054854437 0.852716390742796
Ni 8.624175050870136 0.13174730177910787 0.1983054102773667 0.7794173249383286 -1.1573967433408647 -0.5929066734051724
Ni 8.387502371632113 8.916586725982704 9.274132507244635 -0.912134841910429 -0.8637862754037123 0.987098697011829
Ni 5.521906516520994 3.9990411289869643 6.498422324578082 -0.027944548929068003 -0.3779148837131878 -0.8705760446320361
Ni 5.538524467852394 8.190510789440673 8.177759036620682 0.32138943782263363 0.36624876022916925 -0.34611188026997813
Ni 7.560800608243596 2.939284074661293 9.897865734675555 1.4821219304049509 -0.5157427253286602 0.005458194901093826
Ni 0.6905153569305523 2.332444234219199 13.364013234169722 -0.6251722183070975 -2.2112356219927207 -0.24770470654397336
P 6.730077484256652 0.9480036269191541 8.171349648872367 -0.9696198235007752 1.0827424490600837 1.3048263697121592
P 7.603998100516655 2.9773217389518942 12.176545846683956 0.7050628212861535 -0.01078217821716853 -2.3239306730963074
P 6.133933728511287 9.068360954413293 1.5643248808087267 -0.1974499241534793 0.18443345728915334 -0.44696443021268184
P 2.000498361077346 5.804310696080398 12.46666406088902 -0.14478653232149255 1.382212975322439 -0.213401048166097
P 2.8172752596099286 0.3951473390949406 12.86723840055412 0.9196964563077709 -2.0719062561310575 4.045777634273865
P 7.0950113679696205 4.550821381509499 8.257793293717961 -0.04158193720684452 -1.512834528997459 0.8827108802223572
P 0.5952816421376192 3.093876927986214 9.781200371378265 -0.27893461109253254 -0.831028364246401 0.09987553074141509
P 3.740159154571785 5.241935351935524 6.89910408414958 1.0649748406640174 -0.03901263381777152 -1.831876549633839
Ni 9.11176961402371 8.799453122067789 4.545199739741423 -0.9751322686785723 1.3873803784559913 -1.1986927738761743
Ni 1.4213214418294553 8.119365759127403 11.82645610866856 1.1781190634898808 0.9274367623748221 -0.0578117688021456
Ni 4.653191634186352 1.3842661647170083 7.486730451248459 1.687146324471578 -1.0528078662841804 -0.48014914449476664
Ni 4.968207395585055 1.3606062417440707 13.094159739400384 -0.8951408784555939 -0.40250157191361646 -2.847157622617155
Ni 2.713316661308582 4.377076568804854 4.823331912254142 0.7319071951725074 0.4180809144091122 1.3431509763239704
Ni 5.147782263038561 5.724370087106643 8.354316047387652 -0.34873311994290906 0.5743535929933333 0.890712410370595
Ni 1.913956477513936 1.1196367662501954 3.3779832999085135 -0.8204482747377095 -2.368965344738443 -0.46766618153640743
Ni 8.965522461118814 1.191929445136074 2.211250708713817 0.12719838692608418 0.2436297651436514 1.1039108556075827
Ni 1.053770919370935 3.0373758934594552 4.05972694926889 -1.6709388614737801 0.4097952773615523 -0.36405098124690205
Ni 6.212368622557778 8.074001506349257 3.6489660808732984 -0.14015366153517153 0.10131020630541261 -1.1122497144905812
Ni 7.21188789860427 4.046269163047031 4.23840665083576 0.5580538273920453 -1.0410664094775361 0.6858661937530446
Ni 2.953983157579288 3.1793262501084993 0.2944645888792529 0.48739939829927664 0.042829436460700435 0.03761266814645135
Ni 0.19815208442806598 4.928719103498675 8.632259087415603 -2.1989748023474966 1.0487720056519099 0.19636723261226183
Ni 2.0947157182943754 6.287002504531782 7.204071034646506 -2.4384216397580523 1.180123495514419 1.1533187166167491
Ni 7.1433227822822305 1.8717138288532895 0.3579268005880377 -0.7652685442417724 -1.0049184988020694 1.1717800086457304
Ni 9.172980598292463 1.2542146284687896 11.157142870527842 0.41618935381335426 1.883581434207298 -0.4870522993725031
Ni 7.3523049967603065 6.500740574694755 8.918533137961852 1.208033848771442 0.811435786826454 -1.7050545722105668
Ni 8.006675850485637 0.24053887774943206 6.657577310508845 -0.584424089855458 0.4899792432113109 -0.1842244266021408
Ni 9.131105197175053 6.890096420032875 13.099668452548915 -2.1554084877207718 0.20269163216839287 -0.3237839061967392
Ni 6.085227523089698 4.606101317955 2.2011054953319404 0.20773433679862288 -0.10405871558482722 0.3370518269502389
Ni 3.4608398543755574 3.2143800281103134 7.339427461656759 -1.0107621020670399 -0.1230475979825042 -0.7436651070393838
Ni 6.358652500216999 4.929536229282373 10.47709315046064 -0.5090632564259555 0.07380403046534387 1.045742731907283
Ni 4.504942982170823 0.8253310119333918 9.816434100676265 -0.48500518703548734 0.3314470791689518 -0.2689970402638464
Ni 7.322796656661347 4.883593561623631 13.074043755219668 -0.6762068162864097 0.23353612835307522 -0.7384838199487604
P 0.24404609178732967 4.802165600099772 5.388463449210998 -0.674138106682839 0.4912863920585087 -0.24056038218970824
P 4.608782225020618 6.541780487651307 2.8074899488204226 -1.1445381422106415 0.20525887867493683 -1.2581600760038718
P 1.431530923531398 3.184247367187853 1.839607212385939 -0.9462747210169317 0.062357222080982926 0.49129744780210227
P 8.020787337334454 5.641675121558623 1.574684934003396 0.7876934489041918 0.3717478356705275 0.4917041963222177
P 2.5273425054142002 8.742272679586044 4.976171158560114 -0.15274409660567242 0.4748349313707048 0.8308576429964916
P 8.058953538265188 1.8541869398523825 4.194425085057894 1.2172083161818585 -0.13167416330925064 1.014613614602646
P 3.720759303100377 7.646479460080403 9.529043617598582 0.8059585657619669 -0.26649844221170876 -0.8044966365044597
P 0.1706415709643058 7.1304507558918315 8.44696801195164 1.3066531385082527 0.69245927358953 -0.49016924773493
Ni 7.945758664251472 3.362077808810991 6.585471009751158 -0.18329780102281334 -1.1124479465443164 -0.246718174260988
Ni 2.4731000432783383 1.582561475686936 11.398186713649224 -0.5595198704146106 1.7851922582034225 -2.42153437708441
Ni 0.5004941331097171 5.009192221410121 3.102969977156721 -0.5613726073526333 -0.6394729512004858 -0.5851308861144955
Ni 0.03131244365510411 1.5892086562194958 8.206555834604623 -0.038900790830255584 1.4017875550202568 1.2339423411070878
Ni 3.3560274055361883 2.803026054932397 2.9687951691168277 1.0936686090542844 1.2770959936764263 -0.7709550531035884
Ni 1.2690697915926594 7.06156429796946 3.909870671132847 -0.17090688355762823 -0.647157207218621 -0.4316236860905534
Ni 8.015710140049226 6.3966901645076 3.8643035140870623 -0.6840057435055381 -0.2491003013399194 1.4958572777131722
Ni 1.556661342700263 3.8568336990576557 11.54434756338146 0.7871895126845797 -0.5185082038889393 -1.4913627322769283
Ni 4.699593361274139 0.6741829405640183 3.7329243779700483 -0.7392060428267656 0.31018996956238837 0.5335504429340423
Ni 1.0340772698649394 8.880963714288875 7.07134777252125 0.29787618519204184 -1.6975400090010764 -0.020791225713738384
Ni 2.8025853578805147 5.165263246096564 2.5163517045640242 0.5050381944269625 0.16450715067887153 0.7630077732320536
Ni 3.2710004180886236 6.672355351648635 5.078323817067601 0.7823275566065881 0.013045777440364628 0.3261086976751738
Ni 0.7186446825046642 1.5998771973504828 5.7456612634257125 -1.002986571886679 -1.1075104000333829 -0.45194542836704105
Ni 1.007497728923281 3.4353620560636053 7.006551534111663 1.661844612481996 1.1582048410644568 -0.18635124313715648
Ni 7.2246497507316985 5.617905024322715 6.474248255044616 0.2947715781247891 1.9551948847792262 -1.588910386216115
Ni 2.2744925718966607 4.175255681419866 9.026867490740848 1.5485566649894171 0.31493365489496083 1.0675613704442712
Ni 4.95765820990562 3.865886350998407 12.273081454017658 1.0041975614756449 -0.09545914684127431 1.1577281585383545
Ni 0.57339001608536 4.517677290732508 0.0007849916236655627 -1.0024929200797121 1.141949041327227 0.9903035771023718
Ni 6.297257892176629 8.557556346527242 12.611668998978923 1.1109767613154287 -0.24394755349438632 0.925041008449136
Ni 5.508134733649669 3.22078849773977 8.859717525793851 -1.5035759865136686 -1.112075393696246 0.2815291112925861
Ni 3.375335445121787 8.661441495319943 7.188576860797406 -1.4084611103856906 -0.6630232277166 0.5536536414418207
Ni 6.189213664956789 1.5655946391894628 5.471278688329427 -0.044953681892554845 0.47107443588700804 -0.028197545480138538
Ni 4.122555658965593 8.430396884682002 11.557019439860797 -0.5337666727099065 -0.5097764804428964 0.2944710161652348
Ni 3.063762629440915 1.809676537612258 5.2838786938484334 1.0392956907303585 -0.3624766947812467 1.2829961612109453
P 4.724713093231436 3.1694289288183066 4.58653436885142 1.278485160714469 -0.19240773374388154 0.30513029565129385
P 2.154788235179098 1.4979200981597685 7.661459487368974 0.8990972920001805 0.005861600987099582 -0.27539600181165474
P 7.07932989787347 7.899889446101376 5.634895731910498 -0.45151811102163525 -1.9449780921472248 -0.6277636331833575
P 8.429240054920811 8.581445799214702 11.635480959354172 -1.7435121048558169 -2.0631465076605564 -0.7010498434720185
P 5.0694299996893 2.884059225347277 1.0726804953721234 -0.17158308368904643 1.71655768775416 0.8609493201755494
P 0.9627669781572151 8.424713728950437 1.8578823682561882 -0.10528281779991544 0.8138518524671146 0.4537146044523218
P 5.255128719926255 6.208585972862453 12.272772966081341 0.3000765352774703 0.0162992513806558 -0.4518929778625507
P 4.087915034449919 2.913879725857988 10.632190051038652 -0.2077939863919647 0.15743687409565144 -1.2213583337944902
