# total energy = -340857.7685570568 ev
CRYSTAL
PRIMVEC
9.45689249899882 0.00000000000000 0.00000000000000

0.00000000000000 9.45689249899882 0.00000000000000

0.00000000000000 0.00000000000000 13.84111808962770

PRIMCOORD
 96 1
Ni 4.868351544580057 5.836557660979338 3.4998928534855565 -0.89568106722978 -0.04779732198893704 0.2507337231782843
Ni 5.565078646479829 2.559167521154069 6.756888258832488 0.8028205343536174 -0.7644658458348189 -1.8075611128169253
Ni 8.874168290140481 8.176391473167403 0.7229122916878963 -0.8570001057198143 0.043656046127053844 -0.12910126037575184
Ni 0.9376329284668781 8.015009601762028 4.881873009551368 0.1948993898174837 1.1544947392027214 -0.5874487356143947
Ni 2.9524040272647225 5.160711377835093 13.026264249700224 0.1859972022318474 0.1752780160421304 0.07222460179336594
Ni 1.474982074493112 7.6499451785647405 1.8314293771967227 0.5902468671848222 0.3890313053413235 0.6618605748670665
Ni 8.505652101161598 6.274818432531597 4.470736497217678 -1.3681477554786243 0.9492497444848554 0.5167552257535746
Ni 2.157041536044232 0.8082427788767531 12.168211072061135 1.0656842080262163 -1.3858446585377553 -1.000642497134535
Ni 2.9991021626880894 2.073310209385973 6.879602787969929 -0.5374734321375324 0.47754230299953887 -0.4707054825833635
Ni 6.749346387022011 5.288842815026504 13.930947473136301 0.5641020904686543 -0.2516372088291602 -1.5256244816732756
Ni 6.983130227807963 6.362162292144842 2.0495516582267745 0.06920946911612597 2.501834813907375 1.385108551702679
Ni 4.442583328089416 2.2546934085395094 1.3220943839782322 -0.757073924246122 -0.29894653543808514 0.8137834611230242
Ni 8.084035460501426 6.928772009417217 12.098106181881516 0.34159393779496655 -0.6142082630964261 0.4839782884328696
Ni 3.689313465619311 9.1065903383989 6.2995359125956005 -0.6037125057714249 -0.08244293708726447 0.259662650236798
Ni 4.842619339945189 4.968991795121869 9.544765997918189 -0.5977310913770093 0.5392945445066712 0.8706485497411844
Ni 3.5719723428300996 6.657869865363399 5.850031841487886 1.2607566330864546 0.6429817356846927 -0.5208257962785224
Ni 6.73048934327268 2.423706992234609 0.711042945845477 -0.19962662008982396 0.633650688091754 0.16179386551276653
Ni 3.5300121105754467 0.15623921323542242 0.2249066557470878 -0.19523106212528957 -0.820219189446039 0.5531129384470024
Ni 2.400272812489954 7.928157500561501 11.462494248101125 1.6022364139010599 -0.0794925962096889 -1.6559033072968967
Ni 6.14873914102404 4.141523153686245 5.0949292332411416 0.49411640530813616 1.3344894439942308 -0.3237833919761069
Ni 2.5091027319820762 4.918170454545691 1.919319845199493 0.8528071506843893 1.2149310901119075 0.22625990640663615
Ni 7.299066094195937 1.2832719486724402 4.995744398463133 -1.6134086284677955 -0.0606428104930375 -0.7349842914359341
Ni 5.171312554386247 6.410676150938255 11.667398630410796 -0.17528367246908524 0.1867623625326461 0.2327977075251539
Ni 8.900742158212507 1.629432043657635 0.9954533152210301 1.5534381614514343 -0.128379808828695 0.2759660153825118
P 2.3844987157126813 6.605431396160775 3.500917034948973 0.3882679448127378 -0.11849006051880882 1.402488180631707
P 0.9159539479799351 3.4510659715486622 10.883270927542464 -0.14445537423431895 -2.6829847153492503 -0.12406524061374116
P 7.002611426465747 5.412444400685352 9.385094878375527 -0.7153089244941938 -0.14667732158630223 -1.107697062122892
P 8.220838868163316 8.152730328001493 3.395696811344072 2.3935908565966066 0.3686501705818103 -0.5252581210182632
P 1.727935036482621 0.5951477819275154 5.865187457492238 -0.8084689908886463 -1.4948995417855933 -0.8024436106301728
P 5.16852277108331 0.2581485787577549 4.823837005647023 -0.12143268808690054 0.7306684376693996 -0.5731472313900581
P 5.698903132987739 6.377066354807302 5.477096446619302 0.2276796695722982 -1.540002604771819 1.7377278940738718
P 9.71553856362802 5.898377367593867 0.43072551956656885 -2.9808992099783955 -0.46833543968929026 2.5701197143267027
Ni 5.976519670753703 2.570544162894512 3.4886949470143516 0.2847501893330451 -0.5324266137422443 -1.4689910494499474
Ni 1.0709268833026016 3.9730202421889715 0.47411090552885654 -1.0413877973726968 -1.6112373318480895 0.6778055282320972
Ni 8.361018386466386 8.384632247169533 8.870703284709311 -1.7490206933788717 -0.9776894878827871 0.4617109923942371
Ni 9.299539317143926 1.8087158126645557 5.990491283810504 -1.0322403265454738 0.26652106791952807 1.765429473754198
Ni 5.1293996065943555 1.095874165855627 12.736680014409295 1.5749945474659712 2.1206294323683736 1.9118818238138877
Ni 8.404501178421961 4.513264143025471 2.1691662179855644 -0.2631421241449661 -0.7579696965875139 -2.0978312035269355
Ni 8.417012647268685 9.018300789530421 6.154065262909508 0.705437945237385 -1.6525040518073604 0.45520224474144183
Ni 3.2505420218692267 3.1222687312895308 11.3765547370319 0.7037811263602525 0.3980574200993338 -1.0184512431811816
Ni 6.2746765791433115 3.9631188756866904 11.432140460075937 0.09426821185696668 1.505240518700285 0.61881105197576
Ni 7.629168385627289 1.968565667476455 11.042015271614996 -0.2251867279471154 0.2843696660651748 2.1065963513140753
Ni 8.559452362891758 1.349403998290828 9.160231724334182 1.1355518795516313 -1.5525475313163648 -0.8365009573251981
Ni 1.9470606938124744 4.978335204963563 10.027848657411432 2.0123633635704183 1.730786429759032 -0.34633248092121643
Ni 3.4748027718549905 4.151084072056642 5.4407498257837075 0.934732524705287 2.8096629681058065 2.638600275696604
Ni 4.570393230934048 8.210729450024884 2.162827262907743 0.06469666884743697 -0.3602804584608763 -0.2689119367492078
Ni 0.4498000718446023 4.648857068440664 3.775663405825308 2.0427905697120234 -1.2529733895966098 0.37333934852736345
Ni 2.1628575249639104 2.1395179141447795 2.3032450949031307 -0.16913436503823773 1.0860314042240005 -0.10025785378149829
Ni 1.5973448072276064 2.565985940684293 5.0198831167029345 0.1885369379345656 0.9025885929828907 -1.2547142835471166
Ni 1.5312694989645326 7.07935410952784 13.34013851351179 0.5281678384658904 1.9188536271460308 -0.8576745060790197
Ni 1.6654817180670864 2.6728866540957408 8.704236442178551 -0.2760331211750214 -0.7165158003181015 2.9661742450633946
Ni 7.466717885363501 5.740201382763729 7.131774610634615 1.662508214207924 0.9696483627458655 -0.3336579707773415
Ni 3.208856039498591 9.120047496500854 9.154875340392547 -0.3054056607998676 -0.9975641153195272 0.0006155220968118431
Ni 4.590564782748151 7.492629770956864 8.019751287687761 0.15185783734597716 -0.9847857326079362 -0.06646558782240165
Ni 4.827450484291265 3.9143402239018132 13.602649556803932 0.19999583050378458 -0.7558814465999175 -1.0621571687095643
Ni 4.721807537589276 5.8121115937315855 1.086343509541397 -0.7213888121396866 0.5630723636525593 -0.15296366881564624
P 6.188798537875675 4.352752305734909 2.2513683651181133 -0.7767233230459333 -0.20659456676722487 -0.6437893191876526
P 7.358275698466025 1.2372074250500795 7.219707634653872 0.8846530915503925 1.2717342151438809 0.8595604102478229
P 1.7085956912131226 0.37579799624417215 1.3359941246516354 -1.4390592948875216 -0.7932706858816532 0.37030493257641384
P 5.665898577980135 0.4441836233577783 1.1596476664714659 -0.8467558022839868 0.0458499684545791 -1.142859211846322
P 9.031871430343005 4.432757616727554 5.785102708602154 -0.0071929182040134185 -0.20530104476678188 1.0595372145882138
P 3.3518442548897003 6.866687509811222 9.62655298746769 0.5841412685077165 -0.3213274742364466 2.1719453090335303
P 0.5376262329780168 6.8476413282108455 10.88815730392425 -0.566934931931759 -0.6487150386240441 -0.21939608940726732
P 3.6631840714972452 3.8374935150216443 8.07922663063857 -0.8630452834726297 -0.4781647670748862 -0.2826843079429519
Ni 0.29443183841324877 9.13619986898022 11.064880146428 -1.1327583759668942 -0.3258186772385808 -0.3197210489812752
Ni 0.47110455938647333 4.966296580744458 12.306539876491714 2.0485207873275817 2.5178183338198252 -0.37906776637070844
Ni 6.113190681919861 8.945813708116875 7.152813359495767 0.4548152937156683 0.22318589546700274 -0.3316067446752676
Ni 7.142185703645467 8.954220885595888 11.336954945158306 0.8782181345583262 0.8448943235952159 1.963795996184676
Ni 3.92247315149681 2.1981601048617287 4.695336749646072 1.8445657150657329 -2.2088504095899957 -1.203754504669798
Ni 2.043842532192938 6.714053264016745 7.928828939932717 2.9983220334405334 -0.4296377660087762 -0.3529988371977985
Ni 8.32059962769776 3.7615924953967084 13.19891779133871 -1.821959804740759 -0.7962781052494093 0.37632028553255836
Ni 8.499741543316397 4.651769791346779 10.629258793587097 -0.8717060444714213 -0.9077881349059592 -0.6808353161973564
Ni 8.656820528610465 3.2407068536148116 8.003999887452613 -0.4835170325257351 1.6617595089673574 -0.7670040388756404
Ni 6.15924574864967 7.971252559922433 13.880703948695068 -0.37866975960134136 -0.019619316892824274 -0.365738396251654
Ni 5.521841733730613 4.689483878845439 7.260704209557442 -1.496914515333093 1.2235391434958929 0.5943819723991183
Ni 0.13496687912822927 0.6830949912855998 3.7120081163663734 -0.2623188569127224 0.17910793131118183 -0.15414303383572808
Ni 1.4778002284737037 5.928109837778367 5.635009529836485 -1.2958473061420006 -0.7885979629963322 -0.5420939616286793
Ni 7.310764270283159 0.4345489412254726 2.4247425219690877 0.6319049090452407 -0.03179297614088074 0.7391134831129593
Ni 0.9636384372965084 9.028788483370947 8.233098783668146 1.3033122470604779 2.211350293193714 -0.49503557468829584
Ni 6.28342420475421 7.9043545020073065 4.116777302944584 -0.6237480842660612 0.5886352997233282 0.003021303324827055
Ni 4.5366510383073635 1.1559727180256334 8.043073876100298 0.5888538434920374 -1.8411476905231194 2.1189093643534735
Ni 9.666740998058037 5.679109856875729 8.720818157579794 -2.3392706458874875 0.2651740669733304 -0.23116248591457608
Ni 0.2627569224985014 2.0550867774376487 12.580039828929653 0.8100149952195276 1.507091712976411 -0.8054158058846195
Ni 1.3872221116075638 4.015528974211659 7.057613659239307 -0.0902608904697865 1.3319985592515768 -1.0448101927906845
Ni 4.58225217419466 9.308551735746288 11.130944106420012 -0.17474065548142162 -1.4248292673310687 -1.906958932590974
Ni 3.1016054210627075 0.21899798928039702 3.766417401976903 -0.8105346151684235 -0.8748798142137126 -0.007041994448445936
Ni 6.249246995070118 2.338576045478606 9.083247890512004 1.366473195989679 1.117339727418979 -1.484581961909669
Ni 2.567517957277769 2.532574739296939 13.422839984571102 1.067744947209987 0.644836015284612 2.2767226479519374
P 2.6043903813392726 3.782142322912904 3.6450580455422097 0.3301571567129346 0.1523687155441247 -1.2021413945464072
P 6.19989147283955 8.63448334840188 9.616034085881742 -1.5221586346118623 -0.7955630814602557 -2.448114441565784
P 3.601109028783804 7.407470453523204 0.11014631893540494 0.5414856386207191 -0.6194857094452815 -0.32743512979608125
P 0.2978372654213399 7.363259480841099 7.1482040700657645 -2.5680957419181385 -0.25432092630891034 -1.4677368653278722
P 8.325621237643045 2.735737161998473 3.5060663129437124 0.21587007853187987 -1.4589058972998037 -0.11125240511978904
P 5.327266169466588 2.1941692962046484 10.864945361154575 -1.2552786406910188 -1.0885672832719768 1.4400409420745004
P 1.7710111820584478 0.9743814672359462 10.035059537982578 -0.1157783180146006 -0.4396740671988557 0.11443594505409324
P 8.71190692772774 0.3339247674010007 12.962304448301104 -1.3237900552988555 -1.5876880837732397 0.13220201078826263
