# total energy = -340895.1979463146 ev
CRYSTAL
PRIMVEC
9.00434331322864 0.00000000000000 0.00000000000000

0.00000000000000 9.00434331322864 0.00000000000000

0.00000000000000 0.00000000000000 13.17876661188663

PRIMCOORD
 96 1
Ni 6.224972708066711 1.8561193267325875 11.286441082532571 1.3889410380748919 1.5206123731706649 1.004089575142871
Ni 4.557764505421376 0.552720813095664 6.03957868050322 -0.5055171909459101 -0.6469366065673826 -0.03260775873269223
Ni 2.6551107321071434 1.7480311888134563 4.851644662881341 0.1995042355793467 -1.0171484652093579 0.40499734175227675
Ni 3.4899124110991915 4.288444594961429 4.759195268542513 -1.1160937708270198 0.6321324516750145 0.53120225441684
Ni 5.074442732840374 4.660612115494044 2.6986161175761594 0.5008735215263116 -0.08840686798018323 -0.07562180040037299
Ni 7.2685941143565405 6.155108007790592 2.726330586061772 -1.0151355485443874 1.364250220196431 -2.1378409111506538
Ni 4.978762580097231 4.394560781680602 11.567820510079747 0.6157282992853783 0.07491808946512904 -0.06931282746320966
Ni 5.523327258960377 7.577524131339835 12.271645910718089 -0.18475304541210116 0.8531257103660727 0.5350727931158398
Ni 1.8050556954314052 6.351879923647537 0.5065708519762937 0.284970018653335 0.42676327267445857 -0.7721166775118574
Ni 2.8563488022799732 1.6036105253608621 0.5206545454550768 -0.28680141543511894 -1.1120684517177106 -0.9292205937481223
Ni 0.3254863031538962 9.029915713997108 4.605266918916242 1.3722882600095592 0.28318438750782193 0.4875546929302184
Ni 8.519954726738696 2.305922295877228 1.4771688343327205 0.6784223358804896 0.7675601684894264 -1.109469580642283
Ni 6.734456465126048 0.7012168423615037 4.871728850787758 0.25262194133993265 -0.5558100256631912 -1.011877960839038
Ni 0.7121697256474777 7.409809231566282 2.4085384943250614 0.5285758725375864 0.6504919280188088 0.03652303462669839
Ni 7.706295246000073 4.1308955988625415 3.6983305446822783 -0.6012475891707 -2.0410900420811493 0.8018810532584836
Ni 7.569348187551883 3.8489245859553787 12.684879540098404 -0.35838581254132473 -0.5234467788411372 -1.2102951340017931
Ni 7.901653479946547 8.777749077673777 6.993233189923757 -0.06999879778664074 -0.6793602743137267 -0.18246759181203412
Ni 6.828146657982475 0.49432314411244804 0.2722499237954092 -0.37508101380881853 0.17215849657654222 -0.14749390395032663
Ni 1.9415525367106543 6.314655968119572 9.207305780731184 -0.049377007771231086 0.8715026702113636 0.11602900057282597
Ni 8.834170293285347 4.862687589601103 1.287459925422107 1.248668334463353 -0.141656214222627 0.5271095724047051
Ni 6.507745107534587 1.8507797511089583 6.975218200125788 -0.29449364187305416 0.8690840334675419 -0.5258749286666556
Ni 3.459720847750071 4.1783124710953095 0.5670440221083233 0.35273761311661184 0.13353461355675714 -0.5870543283894535
Ni 6.043364106459668 5.6967599167794685 4.746925950254558 -0.8254133320524688 -0.32331467986980444 0.8110727470600805
Ni 5.33325457457726 3.173400736990947 8.662957206109128 0.528460944226277 -0.9117941707415587 0.7653081392304563
P 0.11920580068893695 5.527424235197731 12.315307071327558 0.5324448685746894 -0.9682622810316163 0.9784909007381599
P 3.7849397219056167 6.012128039278606 12.619236075998266 0.38214306286192246 0.2739896083824313 -0.215694472185964
P 2.316610451467865 8.509068475593725 1.3066364755159403 0.0028665229145176437 -0.09187580036539016 -0.28824251875701973
P 6.289011598176747 7.737216161162877 5.817621616215767 -0.04961689169617907 0.3775533866087111 -0.017265986169299294
P 4.645953044473355 0.8234075828805133 12.616310564834494 0.682783698172979 0.04276875842609409 -0.5331267251330625
P 4.100415896525299 6.005266729623959 8.249737083243883 -0.3519829943387744 0.36387640334225074 -0.24715191936429692
P 4.623658290267443 1.1037614157168436 3.8268243255664487 0.29101185397204077 -0.7968488901512147 -0.3756474278352498
P 0.24695492237568056 5.664470341423088 3.4156860068903807 0.847361811299102 -0.9680167406797135 1.2260616528074304
Ni 1.6299662384306135 1.2546922194323114 2.7642856942720955 -1.1427707658975739 0.04023802158444038 -1.3132711580454026
Ni 1.8113047097362933 6.553352106748216 4.8016309380181275 0.07621983899568809 0.17492320380587295 0.08362075944544953
Ni 6.068243107215295 5.611029563469901 9.1429139203607 -0.3070115718344067 0.09088772542050799 0.23949106038492946
Ni 8.617048561392311 2.4514324848786573 10.088108849176852 0.28469979571108384 -0.09302251237532368 0.6821653478626897
Ni 2.340895165560492 5.404172783028699 7.072174268325707 0.47108986250597573 -1.0776370095127181 -1.278534525895166
Ni 0.4902684882889739 9.212073580550259 9.10683081513883 -0.8183471692343067 -0.8903208313591312 0.9037748999815081
Ni 1.4464577203706428 0.9388558710774765 11.356367012343666 -0.4133984213317784 0.7742645770927956 0.30964129614777
Ni 4.1298691037173585 6.624252306512898 1.6202631580056173 -0.329714155638245 1.0698931039012411 -0.23592108364548398
Ni 5.527397222167595 7.991795961511726 8.120940756422183 0.752557267322691 -0.21123617930429428 -0.10425900452109142
Ni 5.332210070745319 2.977322155574169 4.735697534061193 0.7842713105965203 -0.7171002120666617 0.03778621760983815
Ni 0.9154085609190779 7.429393678415175 7.053881944751673 -0.19126050751331578 1.2926599095529543 -0.5879680984529745
Ni 5.008053709108471 4.535955985757918 6.769694962938987 0.3867823614061468 1.1352659728800962 0.029537861558116867
Ni 8.146940797928472 7.179451114906408 9.11091608572979 -0.004645212081495226 0.4074440035205564 0.36056096581577257
Ni 4.755067677537671 0.28547100117850316 10.448363623419313 -1.4169213253379018 -1.0301970708632 -0.952997641563062
Ni 8.117199451748293 7.089650798389623 4.751617213154914 0.28808002503722646 0.045540921854592534 0.658320422924292
Ni 7.191390874226698 6.105521088803533 7.034351523963052 0.07047676586432379 -0.12784399092988302 -0.5998594505739218
Ni 2.4009991576139913 5.1350329594363275 2.648036019514419 -0.46881160799476035 0.35532208601433646 -0.5473881201480831
Ni 2.1073134939710076 5.134663781357798 11.36233689200381 1.505652152316407 -0.7061306004290355 1.0342936095300768
Ni 1.1274698518332276 3.5375093701995355 3.794785971390336 -0.7471427811753389 -0.513123285427942 -0.4375050845719949
Ni 3.7033243535201614 2.7605425887295274 2.665524255224727 0.21080371975256598 -0.5289851921608631 0.17586037090816165
Ni 1.3264388274746002 3.3940251584583363 8.224460090510911 -0.8129933611215612 0.0872223607537788 0.07252002154659769
Ni 3.469103373550782 2.888350238648233 7.051734408855828 -0.2917117082525427 -1.2747673455432498 0.2857714315087078
Ni 4.273470371922482 6.914768441286544 6.177427974157965 -0.2872788692921698 -0.030622352871547263 -1.12461183560036
Ni 0.9401705052107815 7.234152500932626 11.27912685440597 -1.1262128615388927 0.923849559244196 0.06260559064636313
P 0.23898787935411717 5.673717802073116 7.885607740045522 -0.3077564204202313 -1.633922175040115 1.18547961762001
P 8.530129634756742 1.6842084029445126 7.785514558612429 -0.49267067400054504 1.0018858826233326 1.3408408401335552
P 1.8758838604490562 3.0588925022427302 10.441655387602106 -1.1479060302416102 0.675325699233037 -0.37198669115421096
P 3.8290429957749854 6.261197181479629 3.958137366362522 0.7863161089406909 0.03502665258683 -0.7450000238007235
P 6.713854527475349 3.789126741576759 10.22914748125637 0.8125953543521941 0.4728762649824372 0.7035114176386336
P 6.296332129343711 7.723880728618871 10.187424055342015 0.78718617025047 -0.10040363533074322 0.25875325104865116
P 2.4326674332772353 8.508708301858574 5.780206768608172 -0.5295359224580106 0.4828961111122845 -0.657098634702049
P 6.866604208553336 3.9039861457167486 1.6554116123847682 -0.8509094194410441 -0.019087355648754224 -0.06546285758950016
Ni 5.470732889284799 2.712981647002699 0.41050711420521396 -0.5053313001873491 0.1300461407875244 0.01434752697092368
Ni 1.437336320527917 0.9663641400997145 7.164768632592935 0.5276896132778912 0.8000874516931704 -2.238982967309318
Ni 6.801295706026889 0.909960933174903 9.212050169257473 0.30732653197166426 -0.777052424250578 -0.45747021484001216
Ni 2.6336893992089747 1.403939210935943 9.221473214603389 1.1455251887142592 0.3245801768457894 -0.35848557134398257
Ni 6.364098817612571 1.5640274318676515 2.4889157654959315 -0.07371044231027306 1.6626213427470207 0.8193977219860082
Ni 4.083163574611516 6.624864601862656 10.476460776498525 0.29670530481239227 0.46866814043836064 -0.6121701496204747
Ni 8.045731978350746 7.069859251643018 0.19065166366237382 0.2739024479852638 1.0081843140375346 0.7616530589763721
Ni 7.80735099174036 3.9567245848863877 8.200712035283662 -0.1300271146241309 -0.6179515321889422 -0.6859464121716767
Ni 3.018715122086519 8.16874931759193 12.13195072667069 0.35878741885511756 0.3234128960105656 1.5511506509688382
Ni 0.06298268063170154 4.980590461803128 10.222215937723366 -0.6641583697623078 -0.9364307383433162 -1.377898149997169
Ni 8.633319409877805 2.3070118214260633 5.52716130837107 0.17877960143748564 0.6398527031374076 0.8483020637251842
Ni 3.6703324393802332 2.4210158129450665 11.409293642289922 0.10541471539208941 -0.06679108948262047 0.3098428706356148
Ni 1.0620442928428573 3.16698964450524 12.5567819503229 -0.10187404922868262 0.3650989628954422 0.42711474247660636
Ni 3.166665488143603 8.28269928305066 7.85405742128054 -0.36352853308452876 0.043973063146840394 1.1860666004717315
Ni 5.413339204588318 7.779491553326349 3.472025282977203 0.48723201948347705 0.7220349303641178 0.698905543435506
Ni 2.927546145376156 8.39681132669021 3.458872638603788 0.6201616524663836 -0.19974823326935276 0.7977690879726389
Ni 3.517708819109551 4.270291838709765 9.51524081777112 -0.5132808940517289 0.14707018614934672 -0.18676904740086547
Ni 7.183629130234172 5.982386693098425 11.393070516824334 -0.7500190742818695 -0.1777259633619907 -0.8742115845020944
Ni 0.36990382860718524 0.1364239060978808 0.28220062366332255 0.9624518449974263 -0.4926591040363193 0.7131188588214106
Ni 4.5977888117401475 0.2523287145041492 1.5908090503792203 -0.7414439310183489 -0.6022775730971112 -0.14163487406638833
Ni 5.9697716080247245 5.561280566302024 0.37891447502635167 -0.05210134868092963 -0.33391945196884426 0.6464828068594156
Ni 8.150560543966751 8.835538953478924 11.24909196663164 -1.155091749356772 0.18379942324958023 -0.17680807953341163
Ni 0.12068251300306035 4.890114819532932 5.771904764012917 -0.7395006912490489 -0.04533934736674772 0.07801292634036887
Ni 7.881474746434653 8.774534527087544 2.5018568077999443 -0.2558607599922045 -0.16998257197114594 0.10689952746773203
P 8.507051502676873 1.7184879381876093 3.4627733201554842 -0.6066728739513293 -1.0526050062447552 1.243558524040613
P 1.8190034233251684 3.1337906304675993 1.5710274084103317 -0.970492970134348 1.0899299679474583 0.44266246040321827
P 4.637110779275373 1.125362835482588 8.231352014933044 0.36331307463961304 0.0838920108289652 -0.18829242602392732
P 8.362288674175886 1.784255662226374 12.44700279671723 -0.3036328851701609 -1.1042525552177176 -1.3149940542737804
P 6.245250489355772 7.668711116736956 1.339279021132771 -0.21145935105869387 -0.7315225581395788 0.5752591355267384
P 1.6982641829588214 3.4013546939686807 5.8834100502443025 0.7025721936538157 -0.014486366541633114 0.9539792887500409
P 6.89969517047043 3.836615648556557 5.996140827609544 0.9682910773870226 1.0113727390678453 -0.39341297934878694
P 2.33280026086295 8.39951262970385 10.05065438245839 0.703796295868904 -0.6044722667555849 -0.32712659741672695
