# total energy = -381168.39293181285 ev
CRYSTAL
PRIMVEC
9.23535449062938 0.00000000000000 0.00000000000000

0.00000000000000 9.23535449062938 0.00000000000000

0.00000000000000 0.00000000000000 13.51687482097071

PRIMCOORD
 96 1
Ni 9.062431850647403 8.099304422269999 1.2420452971162577 -2.2430604798128018 1.2449183805026172 0.9273334040277385
Ni 3.0917011990281322 1.3320059630389658 1.4442783222141116 -1.9579405658451636 0.3188077931383864 -0.0027654785602791083
Ni 5.08192012195554 1.53633818424439 2.2843520384204283 0.3201630216147003 -0.8445654795008875 0.6648885630601129
Ni 4.042933490641126 6.341243844050475 10.445219334659031 1.063330105971743 0.556787559085112 0.6842376570106861
Ni 4.63610184786517 3.9156887745386024 1.5145796887343344 0.34441752328669073 0.34936304021742415 1.3413010675994255
Ni 4.57102953913688 1.1352836740492827 11.305784455720062 -2.6030930839289295 0.8507181293658446 -1.3009098082665724
Ni 0.7808483104947566 9.008885264498293 11.479747136757716 0.12302368672310426 -0.9688019555851702 0.27347384508827743
Ni 3.602721076811623 5.004767969370224 4.4657455728108255 0.8313826622620262 -1.2493892717897772 1.4086685984108063
Ni 5.285458102662719 6.2979485015415015 1.4099320383423388 0.8803693765733742 0.19935254049283085 -0.953217470883352
Ni 8.39098462757309 0.9049834826931055 13.09747373075655 -0.28466122916366454 0.2048351608739569 1.0532742643976376
Ni 8.636774355715968 3.3132573566199124 7.107213074699624 0.6089344162919964 -0.7541670350119721 -0.4999533237048874
Ni 8.896250879421622 1.9481795886482174 5.088035773792026 -0.23024948718200344 -1.6553312368435105 -0.10767857172560165
Ni 3.0272199529962105 2.8855496129604497 3.4439911897019346 1.326354473591922 0.10324676120649315 -0.6922407298208207
Ni 1.0034766927591667 5.4013525679240475 5.714164188157766 -0.5725005989449946 1.8163889955212007 -0.9134666733479753
Ni 6.733783357276027 5.242116583380592 10.486499522787572 -1.1838508237673353 -0.6773280743750463 -0.6349807197570871
Ni 5.265749855880692 4.013740534653314 6.576122000697117 -0.6542100003003443 -0.24951013518382834 -0.44626740414565724
Ni 8.547542359273626 6.333255262294873 9.896069448211547 0.048529572169271264 0.9629822635795998 -1.0858411425900654
Ni 7.5901131447033965 5.043870460876835 8.09037660494845 -0.1833253118266391 1.338029338826689 -0.29690867907244994
Ni 3.81493105551708 2.9457548897983328 8.468524665052898 -0.037843038989702565 -0.3273353709934234 -0.3609864833889654
Ni 7.739430358373422 8.242886480714326 8.430799164921732 -0.868940308800826 -0.07054952808378817 -0.0886331250583764
Ni 8.108336599098875 2.9600419834121086 9.920399989986267 0.6379362028409852 1.474076691502971 -0.6264739678376565
Ni -0.04063186623346369 5.160863933339222 1.2028800051981579 1.404015158799195 0.10190773068009547 -0.0010158428590240568
Ni 9.424864107776699 6.594541915508155 7.415533541976408 -0.7714289074162133 0.5744099001525657 1.2669167391505793
Ni 0.20398681894223394 8.021708972662406 5.404073303398267 0.33879452067295845 0.5867519666576864 -0.22216619595323672
P 3.7516873470056793 9.149946071128424 3.6763739535273463 -0.49494661451891536 -0.5762053014900915 -0.49613806372385527
Ni 5.662214394824314 6.711729330417788 12.489417058332267 0.40747639942038855 0.5473950621266186 -0.08064162221246758
P 6.687754349796351 2.4353076040019483 0.6384585363332602 0.41752684167785514 -1.2574260260513248 -0.059870965324019476
Ni 1.6719778377062686 8.289903671139491 9.0622268257746 -0.3154532748438567 -1.1669424780477708 1.286237036745746
P 1.2928480594045704 1.9442730336394085 6.97980304574921 -0.5482340130881461 1.2813714811233288 -0.515140572968287
P 5.096401158016562 3.536328112371135 10.670099296382418 -1.3232524376278307 -0.38340058941810745 -1.185297583516191
P 5.116737408913481 2.5558659233518064 4.343323558896482 0.22990521646870724 0.48290125331860706 0.1986514006607482
Ni 2.2653493727321896 2.1290724798007887 10.010003247684764 0.5081111769253314 -1.7547018029240489 -0.5706216367547269
Ni 2.28496526596791 6.24375544056824 8.493625435403823 0.1623145139029269 -3.1647171451707368 0.546382304591388
Ni 2.3300522672752493 3.584758312054807 1.2443596769867245 -0.8966555153279073 0.37533683857336647 -0.10818173661426529
Ni 2.8793988667763677 0.6051253708644811 7.591468894763191 0.6685305306880744 1.0632678852752397 0.8567656211115051
Ni 2.1054576780099516 0.21748613680600654 5.321999630330223 -0.2747650530958752 0.3602004971525603 -0.7822661072410334
Ni 8.567592314176993 5.518133627229926 12.378119029070664 0.10142050663103179 0.6344315321218365 -1.2535364611889315
Ni 6.145121853111791 3.431109717062959 8.72076344133443 -0.8695347478517154 -0.2690194088613496 0.4443725011157896
Ni 7.022074187429633 4.3766992069965625 1.377288753864477 -0.33929717134098986 0.0034848732248069013 1.0753261019913545
Ni 7.281818536419578 9.095097299976379 5.791994215772979 0.34194823581059175 -0.8380495327592407 0.5194021764581183
Ni 5.844769649810421 1.5077270555983153 6.4425215135377085 -0.5058095253753483 2.2262272103055465 0.6330994435739742
Ni 1.849305881971369 8.518644934633997 2.1848133862101653 1.920887369746608 0.28869631846498667 1.1810550061897531
Ni 4.70349223060578 8.992252390808305 5.724802393156931 -1.258408187458936 -1.3303679656266894 -0.8997074147803538
Ni 3.2710148445388447 8.029891496865254 11.833672708736625 0.7795080848799221 -0.2764372985919755 -1.1210703981060048
Ni 7.9735743043269185 7.895147672802558 12.423725057308252 -0.033550839372251895 -0.4919646490724559 -0.5888399595349665
Ni 4.539804805130302 8.963789027836322 0.5069858748807776 -1.0070638272798462 -0.8492135197958601 -0.3074843977057672
Ni 7.044312921380487 3.2770547664673577 5.27867750529282 0.3012733837990489 0.03269594757112433 0.40856037651318666
Ni 8.485942543886498 3.396467901843002 13.182899837555556 0.11458429770649943 -1.3576214020260038 -0.017494300130021484
Ni 4.7061797188033285 2.352623473992811 13.324246016643778 0.8714245086752607 -1.0725467394740045 0.8001445301833511
Ni 5.52945617200723 0.44665037954260106 9.237216478247193 0.4111088539666533 -0.21085771291895297 -0.6051672359400804
Ni 0.32565061024139313 9.248376480782996 7.3683593505225184 -0.033612288737806625 0.16806067235808475 -2.4815873765122487
Ni 4.016178668275832 7.859877853467711 8.579553021959281 1.8311823517802917 -1.5402933965393601 -1.2275017276880666
Ni 7.227385356225917 6.579017284373858 2.8533173017636564 0.8256987245033716 0.007634119506490078 -1.5057107734684845
Ni 8.461394971277956 4.443775587679726 3.668574696541675 1.132439816285211 0.22406624118942703 0.22658078008116464
Ni 6.367915548224091 7.552469839228445 10.332880480930543 -0.45828139788739786 0.5482982906671783 -0.10981464423199798
Ni 6.059583998521751 4.60227274385272 3.6355666155558986 -1.6231104291365919 -0.4443599027102992 -0.518685610007068
P 3.3307583536451904 0.1517664297181006 9.756507539637989 0.29009037059903586 1.7006716126515224 1.9332170949565546
Ni 0.3277414945297957 0.6866125989134727 9.421248466438758 -2.176455023978426 2.6936871893684193 1.1808238640155535
P 5.839828735082968 7.949728618670313 7.231609607434024 0.631265475689029 -0.21612513196547942 0.1512140331143912
Ni 4.2998518211140615 6.403388545360816 6.186700343194907 0.6355720734841828 0.98544496345849 1.0983881260171406
P 1.244510213267206 1.7569985124369865 13.430867262320366 0.13062361055754923 1.2705299104231345 0.5414249605861127
P 7.455572498442577 6.285942540521522 0.4198964807127708 -1.665165449325113 2.227239196509829 1.3444429556625168
P 7.716896093074383 0.13050571982264267 10.5283753912898 -0.24487289352213312 0.044846466890729214 0.12414340214984426
Ni 2.952081107720399 2.841764796656047 12.07197533488035 -0.5416566169809446 -1.3203200944723843 0.6111625342915668
Ni 4.495595162512885 5.22051508889926 8.426109451840235 0.5632590257420687 0.6741558472946518 0.4020341453588947
Ni 1.3766589026786595 6.41569003772898 10.733101962137956 1.9356652993867312 1.0256924981246271 0.9799402315901768
Ni 7.131651670123524 2.2252494629254573 3.0107348449803153 1.0871230946262826 0.18200016525731239 0.07205902274977911
Ni 3.3958676037920035 6.263426745931746 2.617637516335065 -2.1447785188107518 0.4350440246260121 -2.985315593878536
Ni 6.127805563179128 0.16832449703557878 12.365007596101385 0.7998341980317838 -2.1733162212391277 0.7503481754865141
Ni 6.032201172041566 4.252502157922187 12.37309037847422 1.184022316348193 0.3344051333560112 2.260704932367442
Ni 1.0176991388905274 3.6917591308067186 8.846443688362504 0.22342089429594425 0.6863534178021082 -0.45272318707333
Ni 2.9319203285614637 4.557647510276918 6.774481718062833 -0.6344780690890557 -0.7522561911425045 0.491346812982799
Ni 6.6885855317131195 8.662624113327446 1.1212034523792356 0.884431976678522 -0.2890426460608119 0.16578447472939836
Ni 1.6618558890309625 4.493895857260826 12.706538398630357 -1.603380297697516 1.7086787992267154 -0.2834582099944989
Ni 2.8791125707828145 4.459235571331607 10.434419510953825 0.03454122830997922 -0.49007360269733025 -0.6221753404623027
Ni 7.336704248990148 1.5567760240422477 8.276314770335802 1.4791366225243816 -1.1727122906520124 -0.8310926418254332
Ni 6.699963488618208 2.1722385273449314 11.607116530147755 0.7308787539079928 0.1230087743247688 -0.4450648991971238
Ni 0.38441147761502614 2.1178699946336845 11.391535647002074 0.5616325458822392 0.9045817121535196 0.8418498803419373
Ni 2.285353150862402 7.294618737937803 4.43333224866327 1.4875783255338315 -0.03994208761057637 0.3244757900574412
Ni 1.4760867306333532 3.3714677968575524 5.1044045163395735 -0.14732523958294627 -0.9849006609192458 -0.1787747163414792
Ni 5.114197686390025 6.844312081496886 3.84087409021033 0.005453566915403511 1.124088101886406 1.2221021539390502
Ni 6.476587966164169 8.72883237067532 3.527580384464885 -0.01776323752069199 1.1971202871827318 0.3082099630178821
Ni 3.368429365184034 2.0286934103191276 5.766339324144209 1.7491839584296134 1.7596069535351502 0.4552127862644031
Ni 0.6948717765597556 6.617362476800747 2.866618059502868 -1.5449627769905716 -0.051534420433866086 0.8250335801155467
Ni 1.2967546144133792 1.3606447977489327 3.3855849599461223 -0.43849058841371585 -1.1075631076481893 -0.0777604440099306
Ni 2.1738085376321594 9.036859153674845 13.456589572037942 -0.5933946687851845 1.75553921122368 0.4788671924585495
Ni 2.335538067925917 7.734470972936707 6.830996547190266 -0.4782506419204731 -0.9248042098479814 -1.2277878914699178
Ni 6.6448561275365 5.784425842653077 5.606002485328769 -0.07500653541387728 0.15556819631802885 1.0145123131380915
P 3.0740986131019157 6.9116193460458195 0.3354604039301796 0.8671832169004032 0.01982089138066909 0.40741443583420156
Ni 0.9411565197108412 7.184976607761496 13.204973258658521 1.3875968653421715 -2.529994564171043 -1.582147870681301
P 8.407035673921339 0.38407161656461447 2.828838994314844 0.28742413662078237 0.40669864071409956 -0.04048099083318189
Ni 4.044254146353324 5.03914195930589 13.077698065885716 -1.8696820505173863 0.5303275651213705 -0.1437786598822685
P 8.33375313492631 6.522062852366 4.62552829034842 0.5409158821601782 -0.8401778919561531 0.12641728578568553
P 1.8196788643159112 4.9492265466208725 3.3431420406695675 -0.5838522765123881 -2.176061902305065 -0.333257135794497
P 9.594979340075179 4.560427352020775 10.815824880636542 0.34914295378681803 -2.061921119893888 -1.1300852000101054
Ni 9.368528444529101 2.737682349967453 2.0090535051613667 -0.4659756812078619 0.04009583957962127 -0.90563432178775
