# total energy = -381173.2650662833 ev
CRYSTAL
PRIMVEC
9.16358368948342 0.00000000000000 0.00000000000000
0.00000000000000 9.16358368948342 0.00000000000000
0.00000000000000 0.00000000000000 13.41183099880161
PRIMCOORD
 96 1
Ni 6.528869889673893 0.15627850011153363 0.21727589290938656 0.7927533799256026 1.3424716908687588 1.123800395442658
Ni 5.210853364337638 8.611248395848023 2.647562671286687 -0.05249729856776766 -1.701617778614876 1.2533881085365253
Ni 5.149796408247786 8.501771065155324 9.492263709526872 -1.3041738237298248 0.07197031969071477 -1.4176787723292166
Ni -0.05539752699168335 1.3591243603984007 0.04114907118737454 0.6740746004347552 -0.04038868822969173 1.3081569767472891
Ni 1.434054981732141 3.523223703194066 0.09796420452861515 1.8162570979290267 0.2320973390240196 -0.07721202770562831
Ni 3.4704048085667356 9.006528728714873 11.228598732716543 -1.0462813780195723 -2.3529887668045286 1.5738059264745088
Ni 2.148127216956762 8.948770662643383 9.178882903157552 -0.13888456501476082 0.37267189014669366 -0.5057856141159482
Ni 3.9943235249829367 4.895571114416068 1.2357770298951662 -1.4301874463191886 0.36179638088477045 -0.2723988668565438
Ni 9.06033729034771 0.08414918621838559 3.9491534734065143 1.8136209458577606 0.09245018481162143 -0.1927229509914552
Ni 2.8891495509147247 7.486226100169332 1.6052618755351016 -1.0514441531674343 -2.4399326770859395 2.6887997793691305
Ni 1.7740055981243514 8.382332919323849 13.317665738402901 -1.8780836443175204 1.2752311725535457 -0.44175486098728434
Ni 3.123810594220879 6.154601653507333 3.566956904895824 -0.3921423401664795 -0.35075246436578306 0.653971659037293
Ni 8.491379561597483 7.891989572427866 5.852520461809242 -0.8758295797214916 0.9541368973738278 0.546719890436465
Ni 1.21667645668885 4.655219485828239 3.3297144801503014 0.08904630133639503 -1.2191045047633067 -1.0899425663529487
Ni 1.4889540097877163 8.877331366579076 5.786319986365761 -0.6653135664126735 2.0102625151773315 1.1812234134468174
Ni 7.164236107210425 7.231203574583176 0.8501248740902416 -0.9849320283778135 -0.5447763935568489 -0.9909728352552546
Ni 3.5988874111985534 2.71653513070393 6.228669065286268 -0.09219230316454446 -0.961147781474022 0.6420923911012038
Ni 7.0731225976199426 7.382595135675841 10.161500363968598 -1.194602920077517 -0.6598255467149088 0.7585109138029646
Ni 7.184441808572894 5.941530012654681 11.877825786480228 -1.0853698593806018 0.24504207211014573 1.2990123341335433
Ni 0.5716124188566709 7.426580335920669 7.784454005054307 1.3557398687325748 -1.0078762958788128 0.35572394943844543
Ni 5.243833100937874 3.633883136143344 7.625859867421552 0.7990363847208367 0.39252492031687886 -0.519007512122861
Ni 8.373728314525954 4.001077085937195 12.1322884171216 1.3624321931510857 -0.7180281231975698 0.3575144656799649
Ni 0.019340659090986017 6.438388667336929 4.295433376842288 1.1968580346602808 -0.19683954426299002 -0.25438288989509744
Ni 4.119992907515763 0.8782323334050249 7.606090352628179 0.2976309019504551 -0.7361274039014419 -0.4555130911136413
P 2.357405134288298 1.272033663913642 0.22744747046600292 0.217975812020973 1.1406688890632228 0.31954878506946904
Ni 6.471597493521774 4.402707782089392 0.5775779116398756 -0.1100648125695911 0.34385522302531746 -0.24243960149029212
P 1.6465493168315797 7.4951972483026 11.294062456055924 -1.1027988534903266 -0.29991249889578026 -1.8139487615108243
Ni 0.1423214462588468 1.6580771047290779 8.87873889298691 1.4108077562409962 0.19663874110609358 0.6975109770808245
P 0.9222963404669576 3.0076530112409974 10.5752288229048 0.06967972388432517 -1.0014585652779269 0.7468604740482299
P 6.854763569154527 0.4098275214894879 10.134542018010212 0.7446464971160466 0.25588878501666257 0.14408487826877767
P 1.7055627938267233 1.3541851889542418 7.2978594801208585 0.3122741057849267 -1.1691708531576575 -0.5910305394283821
Ni 4.598762648597325 1.4622513278057523 4.290310017372104 -0.8308694700710336 0.2945365792958476 0.3125844379364939
Ni 3.3294414053654475 7.571337462643073 7.643938701080515 -0.11514685507818878 -0.3393971872539639 -0.040788751881587815
Ni 0.9440231966712256 3.3606800611226593 7.18312133620721 -1.2041856786699456 -1.4063936863337005 -1.240766820228089
Ni 6.80771773205933 2.232917854012052 4.270903380480751 0.3473670928333179 2.1282442686011542 -0.6696361050474274
Ni 7.118793897207489 5.131075207393582 3.763372816589101 0.0673004250188712 -0.18755709051979955 -1.6233366862147849
Ni 8.188449822078002 1.5788212720379295 11.404186735735557 -0.8916966286607353 0.6723180227549647 -1.3731647490772416
Ni 4.61076694283081 2.478089527460043 0.08254555912612625 0.4662230213319777 1.5285748225508515 1.4445051484934412
Ni -0.2734843970305839 8.512437476214695 9.645574124980218 1.0139690390401117 1.6892489726368778 0.09539692614477119
Ni 8.716143934848551 3.725793877488265 1.1834199798704066 -1.500893811695815 -0.869853821754031 1.3512360673249502
Ni 1.8862778217492737 6.632904051836293 6.012657746883921 -0.5517271138430692 -0.5534404969897501 -0.3909089819800107
Ni 3.2280830095512734 6.810934149827233 12.587285073829173 0.4089550408484441 0.09195447612212551 -0.11039802753929374
Ni 0.16885735102321583 6.325080958789576 12.75840582994832 0.9739531607688064 0.028448228038363912 0.5689717598561298
Ni 3.5561576218773805 8.115370244587899 5.263660346306569 1.4758587231040583 0.7651165920449404 -1.2327244095395866
Ni 4.364339858459164 5.848556295637177 5.667021127001728 -0.5665405247068178 0.1521098054557832 1.1135059554951854
Ni 4.021970056053488 1.4032836687275305 9.900452782307239 0.3105987749650328 0.9628028005789417 -0.07790571133854324
Ni 2.886327167232348 0.601848578591636 2.8175709683829755 0.4529137058175813 -1.1039823322754665 -0.2518246422496179
Ni 5.487492783127449 3.7173542171912892 2.5803560343876057 -0.4072046338162406 -0.4162191786100251 1.3253306603130983
Ni 7.543076971485771 7.707948163736799 3.252221720902299 -1.4795343721834326 -0.7199945028953213 -0.2947150138552408
Ni 7.6840861926039805 3.130463355757909 7.3110834473027975 -0.5539719440131878 0.5316699380818779 0.16657148940706798
Ni 6.479597301816302 4.940252746998105 9.783903914316845 -0.5570117592807762 1.8767705819330518 -2.324820017679796
Ni 1.695317907603032 2.159242643601966 4.650338044959401 0.375751814623598 -0.07490574816995488 -0.05227875479905835
Ni 2.6905288810591754 6.197542205246346 9.448902549310517 -0.6814971181510715 1.628017893740538 2.176956903315509
Ni 7.73567716705781 1.0316362174088913 2.3818874800162364 -0.9934742615208697 0.6415018087050565 -1.0577181591016043
Ni 8.294829861586795 8.464420299280757 12.126910310033331 -0.2805441216714975 -0.7054983661616753 0.22848133953798716
Ni 7.458350479514172 7.365560034164355 7.965822396472163 -0.6515959597162648 -1.0819196960484723 -0.7352575997019788
P 5.4434892557158525 7.240183886299828 4.43314645701715 0.9339683928457527 0.7162440347139536 0.2713832811078358
Ni 8.70729191329928 1.6345541861814799 5.685274985103332 0.6530774293577979 -0.1477355876474875 0.2830481190402738
P 3.6036616381417943 3.71345053066956 4.390416667695977 -0.20253428065492218 0.1076826854906597 -2.735101747759464
Ni 9.075997854351547 6.161730921380348 10.084570248740395 0.5035202151205392 -0.17784860498278401 0.5250290357265925
P 5.279983437389092 6.248913253698951 0.014557268564361028 0.457104089749845 0.21966836923204747 -0.4259317779120987
P 6.047314419243491 1.5837421163153198 6.459968906207047 -0.6755375581335268 0.8507757220766573 0.28558476941919847
P 1.4146098577905737 5.573777084274386 1.123490144536829 1.1339482825099374 -0.23791214593358384 0.11568755807300721
Ni 9.184201446953823 8.554718249950035 1.4749932905016758 -0.18929952713220302 -0.728707714398603 0.2976656118431325
Ni 4.787514139147941 6.414792440122255 10.604492726442686 -0.6483316871426964 -1.600063317509141 -0.8354293215275741
Ni 8.775753044763677 4.090477005434806 5.183807047978761 -0.22473292823914845 0.5371880396866296 0.3957894500007635
Ni 1.1828261796671014 0.5106260223588791 11.39186171608362 -0.0856483313984396 1.2346378245122158 -0.4239869954809021
Ni 4.126948067304476 8.736258000377175 0.4210593256436723 1.610438232985562 2.608642552992249 -1.1296198303379126
Ni 2.1409338040000563 4.461739586251304 5.714915511918314 -0.3099575418366081 0.8458368900141433 -1.5390260997911624
Ni 1.2681483045586825 4.498421410538813 8.943370562954993 -0.7934537484267367 0.8268117550618922 1.59085928241237
Ni 5.596493607484163 7.944964247972729 11.961354598103492 0.4276883555918892 0.07010986944320828 1.2888775596923867
Ni 6.0655224594281725 2.3016355658112104 9.227178653026371 1.7879734204929851 -1.5718194921720996 0.46230980232050056
Ni 5.230884957615802 1.114740755121462 11.922084977868247 1.7343000993392454 0.361935477565796 -1.6805997816023122
Ni 6.697278225111276 0.159364794995379 4.912740004244966 -0.4213557285056421 -2.254027520347267 0.3548068369408147
Ni 3.0572554881004246 2.6710379392006867 11.901725328304922 -1.6956841867392602 -1.9216648713425806 -1.6922124261405758
Ni 2.8934106171884424 2.7156645902824175 8.528757818222202 -1.3197750206021917 -0.11814167604045461 -0.16096031386787765
Ni 6.874657708681927 6.079304488838218 5.803204805109744 0.046366760189997566 0.20940658229472323 0.9316878243416923
Ni 3.166567874292205 2.7738808355231237 2.0220885420135475 1.0797813095492308 0.9093058571020662 0.39239122295249196
Ni 5.5406049124230785 3.942338516443581 5.195782935103754 0.9012385067128995 -0.5836990387639753 0.27087600245411414
Ni 4.4097637412953326 3.7258213682384183 9.910216580403251 -0.9558957890464633 1.702481669277068 0.9652222086537118
Ni 5.279928455888785 1.3791742808433345 1.9774270693149558 0.5128502342722135 2.63676090849502 -0.14111679677938924
Ni 8.113116003075351 3.513491977639898 9.789308595796928 0.8550203562856242 -0.06593336946801548 -0.5066600463011017
Ni 3.36864321508365 4.889587294466094 7.80009257645802 0.1835402560509226 0.8407653890285068 -0.8596953931637904
Ni 7.755488834334751 0.6520595173877836 7.582338344495972 -1.606129321197563 -1.3269152311913988 0.2350109131263888
Ni 6.0681982257764 3.7573440950805446 11.59070506101541 -0.506648733447192 -1.5653547103833623 1.41335906190794
Ni 1.0796350671760593 2.0419212855322724 2.280199195200226 -1.1716067162926596 -0.8417910020795437 -1.2879596758638077
Ni 5.309215268385133 6.371586144465097 2.4634048850866397 0.9586568967313682 -1.4195932157431101 -0.5009064316467761
Ni 8.628650040694883 5.902346530103247 1.890840369916336 0.19955642897352083 0.3645641734378947 0.7452537916827423
P 5.1708268321148445 6.358564692475952 8.288055224390753 0.1144140906772223 -0.07413236033904007 0.16749322989038895
Ni 1.6874372258925006 4.789218565657428 11.440787920489283 -0.3937865606381218 0.7389934125953274 -0.28268070839852605
P 8.861148478322333 5.355583000309888 7.067673014581276 0.20203034443531012 0.7111699626251559 0.22921461815958585
Ni 3.7952446759581706 4.70996273296628 12.341083413608782 2.2015214800287506 -0.8726997758432583 -0.4632685666893441
P 8.751927727964395 2.7181112670460363 3.542989552554085 0.320406505084074 0.12647539271713057 -0.18258740521935005
P 7.072820199368259 2.2844263562154214 13.282272313939231 -0.4070161719545184 0.9394152748929369 0.03802250199036032
P 1.8481298241202702 8.130444339255137 3.6964878214668104 -0.2595991439887142 -1.221566078929922 -0.11377440021069439
Ni 5.4621554750697525 8.185654929145779 6.857415510185955 0.8745597118701325 -0.24917846287602247 -0.3912864199240874
