# total energy = -340861.77323193004 ev
CRYSTAL
PRIMVEC
9.33840944088675 0.00000000000000 0.00000000000000
0.00000000000000 9.33840944088675 0.00000000000000
0.00000000000000 0.00000000000000 13.66770615763069
PRIMCOORD
 96 1
Ni 6.14890358338447 1.3116449474927332 12.029849918017714 0.5316668527580843 -0.6852185328667166 -0.5115649398018868
Ni 6.143365906701478 2.865416169920796 4.819110371362683 0.7565298788171939 0.26971694914900646 0.4161456450596124
Ni 8.395500726196945 0.3077061877076546 7.770063568455846 1.124953535210495 0.04114253567658076 0.15453409862655965
Ni 1.9390833263352916 2.0449902255963828 0.28803015942592297 0.14104634855276998 0.554761786904335 -0.6525107582210504
Ni 3.449841835775383 0.5068944569289822 1.3810396004421286 -0.7205066666450495 -0.7329322940029119 -0.0406573685100461
Ni 0.5044776766160671 5.494197049543025 8.951677704081794 1.3263565304744511 2.4326585120220297 -1.1412435306197701
Ni 6.300335227720759 0.5845227853107473 3.9906692703822615 1.2723299397463506 0.6288129003834785 0.9324758674606264
Ni 4.47591822851949 2.7456510713383517 10.064051270510909 -0.5001703248117 -0.30289909232793 -0.3318846809270026
Ni 3.100389223373541 3.9793576552623464 8.125068798995475 -0.6669696139588578 0.16230448660059787 -0.39699735426593563
Ni 6.428122019845684 1.2764391446345802 8.690638348900148 -0.4995771713123912 1.929754590329251 1.2062075941959807
Ni 2.5030858911684515 8.457087535175598 3.6137281165233213 0.8316305166067741 0.6321928725993048 0.3467999074759382
Ni 6.928502002484522 3.029538712422663 0.45098259924924217 1.9362965052128265 -0.9173950618681039 -0.38533045945096867
Ni 3.5104294349646925 5.75532698729436 9.695528692587414 0.2481711046574307 0.5781043182850173 -1.3508290616945187
Ni 0.5343409755444722 3.9120277245972845 10.411743592769843 -0.18010474800681242 -1.8633550798580945 -1.4679001303786139
Ni 4.6708948751707835 5.768083254324662 11.753393783011523 0.8408867450977195 -0.8122060893335753 0.29687114096629513
Ni 6.514931872198308 0.6648825983970245 6.466820387761914 -1.6972625869699736 -0.8114465854597316 -0.9206976438787756
Ni 3.9394452941441114 2.5460425737009458 5.535980827874196 -0.26646707475314113 -0.5177754394879729 1.2525285887497075
Ni 1.4910731427491133 5.643770350439321 0.09875461161943087 0.7186750127529494 1.8239117862608072 1.0069465849756918
Ni 0.8998463134405229 0.4383673421985581 1.8542158631058767 -1.1749733187720475 -0.4629903733272929 -0.3579728933736222
Ni 2.324021893872673 5.482159840024679 11.629262978106485 -0.36297985966991037 -1.0678513908808642 -0.06993014933223439
Ni 8.411609482146632 8.95043569565205 0.4528288027572148 1.4998355456346297 -0.5660471300101672 0.8521006115356681
Ni 5.4181263678235245 3.9958306091726334 7.918849641452689 0.6407703298556706 -1.5591377829393729 0.09570443008286098
Ni 7.2330835584584 3.1001370863238935 10.727646102272882 1.5540552262101428 -0.5709270838102877 -0.8287611654787792
Ni 2.2020809459358657 4.047602750033535 5.780196104957899 1.0538252518051012 1.7052818577300246 0.8827263068413249
P 1.9791357635922198 1.3903210453919213 3.341330454175528 0.5642656126297121 -0.11301078257179246 1.1736443155479788
P 9.131442082071036 2.4013345840219165 0.416076559327892 0.12547137693264843 -0.09407717889208313 0.21171157627881604
P 4.614677651508694 8.79687489400763 10.21108825945594 1.7245581894611333 -0.4292904099716865 0.7642727559874063
P 5.088228384383213 6.187480551980499 1.4875927176230566 1.0652946858972814 -1.081967775677588 0.8508104319693346
P 8.748613995023296 2.1523632551091265 9.210488914817299 0.015574200289173178 0.2101303478346252 0.2736440521175545
P 6.903110867744119 5.283653274678325 11.162223917999334 0.06934573758367411 -0.7617371340497463 -0.35670508240479215
P 8.237270719929427 -0.16362106992534672 11.98573060353407 0.06506459370981697 0.499976463633339 -0.6618824292439375
P 7.919652744647861 3.5644147788169422 6.142362961548437 0.46227689220003615 -0.36377021678168964 0.29775842866725494
Ni 7.155752191490664 6.938363362648503 1.8513723174904104 0.21850083128650757 0.20227794166974195 -0.053170156265076166
Ni 0.5997359878137227 3.5358579233420797 7.581066305244891 -1.9209524186565885 2.2138887433448513 1.3879977003250161
Ni 0.6349529967629712 -0.04618310292705463 9.760847129900844 -1.1787209587399377 -0.1085144373633357 0.6414455015458244
Ni 8.482842867876602 7.047762826967671 10.396518250334847 0.4395059170521076 -1.0934688343386523 0.9437154449301877
Ni 6.856979126067918 7.388633441272261 12.731331609932424 -0.0804755289482485 1.9616529816997441 -0.394286897313308
Ni 5.094755932446303 8.654043924587084 2.636240400928089 -0.875948107577227 -1.278160944605831 -1.0659330908122286
Ni 3.426990748349945 7.646205445100796 11.715534004245603 -0.7135587745723065 0.580315209893407 -0.26926803453704595
Ni 4.13543982740324 1.7224695854605654 3.33467403606484 0.3997756883420212 0.6845081370632533 -0.47007556230884845
Ni 1.4559233703464372 9.066642860311694 12.612408835863986 0.9612328849886606 3.8283052442518715 -4.227149936139191
Ni 6.312624574288751 0.27841346558419194 0.5664268158734718 -1.4910739973919158 0.214996674787991 -0.15222010578140235
Ni 0.6665028124012391 3.8959469838753376 12.555701345716471 -0.9764880113755182 -0.5661643723143217 2.5776486757138963
Ni 3.3050871540501228 4.750037893532282 1.2082528818416423 0.6770822769128275 0.020343339543042384 -0.1374282921842085
Ni 3.9181817362905265 7.3363943799490485 6.495276388416918 -0.962903073602232 -0.5446840909533588 1.7201520899736373
Ni 4.027366417197032 6.472311372398677 3.759876088908114 0.727939725884327 -0.6944626771728041 0.12792832311357324
Ni 8.515331193644112 6.775305398800702 4.4738096157116995 -0.17149258085776917 1.5523765529561393 -1.7600460979550978
Ni 7.718027150613278 4.14270510979678 8.702625131008562 0.2882764573187487 0.3121676621140495 -1.1324202759011854
Ni 4.603284792228336 5.192052818382403 5.73546138930493 0.4266876822415168 -0.9823966635504693 -0.019487676410966437
Ni 2.790550142994055 0.48773017347394193 10.631247571306266 -0.12299643302959463 0.944651840701528 -0.015970150176011205
Ni 8.257254915716283 2.630340393966343 3.083694015323194 -0.8823717517153835 0.5454775333889316 -0.979486688992526
Ni 5.419938019217287 3.9096837838764897 1.939597872684757 -0.8211242177588116 -0.3663726874015432 0.441062205795634
Ni 0.5266358540754372 0.18516197853354344 4.6616311731985585 0.41621249374180574 -0.1636831121156794 -1.825451105723469
Ni 6.41311519618705 7.445849874723694 4.255112475734147 -0.9803503225444019 0.480741783773443 0.7016478820673335
Ni 2.722547846863267 0.3370175866496098 5.905200984968384 1.3443527099415555 -1.2586326447649163 -0.3588748363626013
Ni 3.249420896533558 7.273976452547485 1.6552825324569702 -1.0995479506531969 0.010474931389394863 -1.2736674276108515
P 1.3778916226852365 7.069539997329796 10.62326509908262 -0.29850250592213107 0.7325715682293835 -0.7161992975189472
P 2.4042481677067293 2.8193217818815803 11.241605999637535 -0.11193426167816208 -0.578835540024087 -1.5224311715469587
P 3.7966796935882905 4.023500315769107 3.9098658828567907 0.3421055873240624 0.6831094569435139 -0.4703198171091707
P 3.4320241509336435 3.789535810514952 12.900797590204963 0.3858688484529419 1.0488491387467485 0.15368794857618048
P 1.313316522747802 0.06164657479782801 7.686047768149685 -0.6525647513874374 2.195019931464807 -1.7146460725537438
P 4.72758835770443 1.937122260393591 7.441273120352134 0.01852968337307131 0.4879660694360241 0.39434911800981115
P 2.07846842274399 5.811955100963283 7.17129503984003 -0.21708003967958098 0.2137895418537673 -0.11448993822048023
P 6.333477242135504 1.7584598146953987 2.121242072455259 -1.0024389269133251 0.6801218350700996 0.891500196379213
Ni 6.362062112838105 4.956612844467349 3.693588324714927 0.6774671710560719 1.3998700262825698 0.728953511860822
Ni 2.183021252664383 7.883036841993533 8.599638352318756 1.232431046668884 -3.8039723239334617 0.722259387670098
Ni 0.409634924629867 7.819983902763228 6.202746983416179 1.1474234341782368 0.986798906383223 1.3355801059552481
Ni 3.972269802644485 0.45374490070426654 12.703394824831507 -0.2140263404549217 0.20531621427543348 -0.8060367272980699
Ni 4.585149601472226 2.294157661103343 0.25106873562948534 0.3680109943359146 0.3235234534465009 0.7485190926975754
Ni 6.084795403909346 6.867961095341443 10.050342485737495 -1.3101336408576856 -1.0730383343984424 0.2306482652823189
Ni 8.210656253577772 7.13622557775687 8.113054935500246 -0.009594585666970572 -0.7235207708810248 0.1392072384615022
Ni -0.05744709215981437 5.528926593529621 6.133766021996389 3.7731802782532697 -2.5809985660227355 1.3713688335190835
Ni 5.638671578990898 3.587023067601979 12.126890931540467 -2.135231755662581 -0.9145753330311216 -0.14771733281504237
Ni 1.9858033877940025 2.029740603297347 8.861169841667678 -0.02857601186547982 -0.650814087244918 0.7078275285154842
Ni 7.207300210529657 5.569651396252275 6.428769171606446 -3.8532907105526157 0.06670675729893029 0.25924176064929544
Ni 0.7520940023472343 7.135235706376775 2.4254846441735003 -0.6145368500804385 -0.19775871364314973 -0.2870780661352733
Ni 1.2149924117946207 1.9031211123281968 6.471494261589635 -0.009960196536505428 -2.1946075265177365 -1.2737065083789032
Ni 6.026943958629171 8.182781101977882 8.278447501659597 -0.8111794478412739 0.45354105498893504 -2.4782883940460025
Ni 0.8461859462300403 3.062129760691882 4.401712427126455 -2.2465561516708856 -0.6396022776894984 0.5303689598822672
Ni 1.6732094766868897 6.229400671086667 4.601096802941952 0.496771583542796 0.2666887038456439 -0.044480084690245975
Ni 1.9339658780683773 3.4595257661636865 2.5295920319728498 1.2178788598863217 -0.10711190058885423 -0.8549442516320501
Ni 7.174513055666267 8.931376002380567 10.103044732159317 0.08255195186130299 1.3220057097049231 1.3601174289749802
Ni 6.40290831488096 5.293159775290951 -0.3968263625077867 0.6257486596358577 -0.1555067469524741 3.1582135397242643
Ni 0.580536218403547 1.6437467955151464 11.590323679231702 -1.1340858365290662 0.17363610956333322 -0.2255608234570825
Ni 0.0901744812040274 7.2323364857187045 12.597060226426942 -0.5462254672985496 -0.13350350320850557 -0.742893776090998
Ni 8.290686420817659 1.5480374391508993 5.3093432385146055 -0.4320615449589204 1.7902514178938846 0.363999044963044
Ni 9.356058839669751 4.53240626604972 1.457305454914874 -0.867168561612384 -1.049265914569193 1.0669489336712528
Ni 3.970579550570924 0.12977680713528883 8.329386656415737 -0.7311242942598957 0.6370028923934384 -0.9574230243242672
P 1.4055146372354796 8.039090998906689 0.4740017780411115 0.4439441553291193 -3.6720343654398633 5.5622489886929625
P 8.095877865532797 8.885841918896123 3.024280254176131 0.6962380239056718 -0.8267981282151373 -0.08320475495395348
P 7.551803466031016 7.943194874357517 6.260643253060735 -0.40747125721406596 0.6687681006201773 -0.49280925646093837
P 4.700852492032575 8.188589592529015 0.17443681551428913 0.025097052177943877 -0.378299006525484 -0.3607396574854819
P 5.509147842746183 6.025515182014504 7.809357726881983 -0.5926037974527729 1.992418545017375 0.06032296525977354
P -0.108587022714749 5.070746882274338 3.5896452929183105 0.9389043966947894 -1.5697662091874967 -0.5319776991302838
P 8.530767584128073 5.549060203864418 -0.20633588765836475 -0.21332160107841325 -0.2792775962542481 -0.09121991194894612
P 4.5489072351877455 8.529086670463757 4.9472856413122495 -0.15391420565437364 0.9509808682433494 -1.8158729751167308
