# total energy = -340892.71600197867 ev
CRYSTAL
PRIMVEC
9.05349343292129 0.00000000000000 0.00000000000000
0.00000000000000 9.05349343292129 0.00000000000000
0.00000000000000 0.00000000000000 13.25070278022396
PRIMCOORD
 96 1
Ni 5.949059538978116 2.030752881140076 11.252589610598312 1.3370906290625038 -0.04292225328482285 0.733032567026202
Ni 4.740744101457589 0.4519051209602369 5.884001135708151 -0.21656530482669153 -0.7547221361844938 0.1055602398310182
Ni 2.6975245599636666 1.5899835570100724 4.740306817728402 0.6025781350566654 0.03724602883565198 0.12018955970841881
Ni 3.3107086116017688 4.115826722427632 4.846682648635874 0.44227448093618027 0.7553294307511895 -0.5732055954318193
Ni 5.291821188660407 4.796042838887723 2.831939965149932 -0.5235151701852274 -0.9543348723172467 -0.4798573242859606
Ni 7.328639910350286 6.202376283132526 2.517063992908391 0.35303277575952746 -0.6275990825810353 0.3450746972547154
Ni 5.049097031734754 4.452480872941633 11.552267483539925 -0.3376809758938056 0.5170650436845095 -0.039952372023221515
Ni 5.63063912408695 7.667783771537713 12.581727538377532 -0.8423957255430782 1.5648361188757307 -1.1545397335080438
Ni 1.8363200577855325 6.719883016964202 0.4350692447118615 0.08990659245416129 -0.6312865587349515 0.43037207307163944
Ni 2.805813394017666 1.67012508021432 0.47953366664058056 0.21425362597437936 -0.4238540694474636 0.6271709939046812
Ni 0.6451093852661117 -0.07530605240178612 4.775804659835444 0.8433979415553474 1.2674245320249333 0.20396484245386162
Ni 8.63240632834329 2.422823464497865 1.319231595346992 0.2092047506965623 -0.1417192062500785 0.4316691946165082
Ni 7.132459762777664 0.6715691249539488 4.781608854427201 -1.0572754151372308 -0.03487161506620446 0.1761881865612256
Ni 0.6983882883280951 7.592965702427919 2.496220135150467 1.163601586599996 -0.48371243636599276 0.9909759205790482
Ni 7.8116618879816695 3.859015329837066 3.709189973606296 -0.37298042252604796 0.27889835853795836 0.2528474270871774
Ni 7.637798601536304 3.7043363958171187 12.66720790661494 -0.6775944406625556 0.09253991631195031 -0.6077205984895533
Ni 7.895497236475946 8.635294392724465 7.013954966818595 0.0807506369865061 1.0978217119907092 0.02411591921159718
Ni 7.142925601099412 0.5525663868601947 0.06101239708831278 -1.2660255947948778 -0.1872992088727226 0.5293315197566885
Ni 1.8076204838409475 6.329686506731501 9.194715179405934 0.07937046880952783 1.114718744856364 0.017531324015543998
Ni 0.1226666868557016 4.9186361924472255 1.398386287775227 -0.5572824964436597 -0.6988289245612996 0.03688967393749776
Ni 6.332746587486477 1.9759701928313433 7.2006045019333405 0.29749154815911344 -0.8054736557057482 -1.649454466347759
Ni 3.7175273356395984 4.360877627146268 0.44995499849094234 -0.550075437172259 0.5308191600458084 0.372294709312933
Ni 6.202430604092673 5.724532903701868 4.8007560875298525 -0.37744437183467255 0.1091351016664701 0.5892675339906883
Ni 5.154696978261454 2.9402034494225298 9.191204234681736 -0.5318774261069936 0.39365209194278655 0.2480068111654245
P -0.05741816022522124 5.521589796590886 12.569656515683427 0.9055415049636276 0.5586338682652314 -0.8665003319007658
P 3.8673173832462724 6.171856957023001 12.558817673435334 0.2517559937952116 0.054546982007944764 0.5433787418783739
P 2.621801141518081 8.510872233506664 1.6309895444760687 -0.7066980428967313 -0.7365642343285445 -1.568785590441782
P 6.251410003158984 7.772940096889875 5.706932007264749 0.3658895771175376 -0.14336805470741118 1.032630362895041
P 4.769995938497007 0.7678086646979018 12.483447341230704 0.12476818021803673 0.5079728515752542 0.10174112319524413
P 4.140352635934218 6.221135121370122 8.19509543867601 -1.3980036624977923 0.005576979867145234 -0.3104074848898332
P 4.828780270869937 1.021025820425376 3.5308615042368086 -0.4950093494360507 0.12209089049618974 1.1106348045949774
P 9.228497384521653 5.699997936701924 3.6711200340362713 0.36015061775123136 0.03503410878599773 0.06316840512836863
Ni 1.7184345207721448 1.0726669465389127 2.6186170279041026 -0.8845682451460701 0.4548469182845522 0.5568132701167249
Ni 1.8818410223891198 6.631783473098349 5.072063933685109 -0.2008376096787896 -0.18022044764907028 -1.3570411040425017
Ni 5.972951707949648 5.604284404922065 9.11332970621431 0.3657579366356798 0.4301558432957753 1.0050928195964044
Ni 8.403199037001002 2.3796654616606925 10.24529793959689 -0.4555238897469187 -0.34429899543095543 0.8150569285188092
Ni 2.4427773638587054 5.186248402613782 6.957718287476581 -0.7617520464480817 -0.48824940500439784 0.3722815966868105
Ni 0.7687945901245786 0.07108169240098383 8.992999725994286 -1.3371348520368778 -0.7360093902663388 -0.26072194473924776
Ni 1.7815464229701576 0.9775509453206768 11.520439022290844 -1.6915287698099901 0.8242110842142516 -0.6146432937513157
Ni 4.1270258937113695 6.732123339984101 1.5182128937645514 0.0635044483115487 0.8012040817961169 0.8172485368534893
Ni 5.701220158305242 7.803242139158811 7.983058097487003 -0.9303127983710364 0.9276486212753121 0.31126880444886396
Ni 5.27462860477373 2.640143519061213 4.959804237444328 -0.3730863519762929 0.4055367591955145 -0.4416859554225619
Ni 0.7111763476961475 7.156614483056576 7.079148267139592 0.22393125827345953 0.5409516204941199 -0.013261235885280387
Ni 4.892009868481602 4.391568969629593 7.236898146106544 1.2764825284621437 0.6032173113025612 -1.285355148361425
Ni 8.33210195366131 6.99494625216432 9.193973698299923 -0.562302061145438 0.9712918118865593 0.129381510620332
Ni 4.531526923449573 0.05570523928190407 10.227898936061653 -0.9060708951045364 -0.09173104725740976 0.8141778683479655
Ni 8.162213150800069 7.435950967121631 4.582980642250601 -0.6294309935834516 -1.5182374451805853 0.2716262503565774
Ni 7.243346949425385 6.1963919240229455 7.098030232886856 0.29758950718955846 -0.9272652697939644 -0.5917131673177035
Ni 2.0844853642192906 5.520367574987568 2.566276972103335 1.1303158279636727 -0.5109262777766234 0.6040079255246565
Ni 2.0553331156068104 5.43194210536083 11.527223710213265 0.3595268681243034 -1.1593718647893647 0.02477489295183475
Ni 1.1346018946003966 3.283267473233934 3.4575716648058292 0.05575205805963947 0.41506655306282064 0.5843842377564582
Ni 3.763021139763112 2.81109158064533 2.7477451929693473 -0.30555375634195764 -0.13149058654353485 -0.4905477141202713
Ni 0.9069246436355959 3.1521909963980668 8.63619883671092 0.6611090414130227 0.8449976819422996 -1.7436427168964097
Ni 3.4570854922125096 2.6436019535239357 7.019109120587255 0.30002896986898653 -0.2666635070346633 -0.0031028072950398176
Ni 4.026704133812334 7.029512489804833 6.1615631350750535 0.5635079085280812 0.015836967032256597 -0.9133797700611237
Ni 0.7888163906856036 7.430410229186587 11.635336001146786 -0.40179323299268216 0.7882698902329521 -0.7707336811214016
P 0.1481857685836515 5.273487864610633 8.068180852736775 -0.04020356880207915 0.49284679456709307 -0.8130416978609932
P 8.565564386881817 1.5177366800139251 8.08730092535935 -2.0618414156958877 0.4020063774447528 -0.41468577268463425
P 1.962643450608495 3.411030371500805 10.551018114005574 -0.7180016408350086 -0.7629946606059311 0.38614627048404465
P 3.8228194633921286 6.0137105350469735 3.8546162374144552 0.09702777687997483 0.7879287048434495 0.6928318264376003
P 6.754385880151209 3.9470786597294873 10.391611445754124 1.0759894466069662 -0.0065910229539563915 0.05543478392953679
P 6.322787744792772 7.716111319082254 10.372332031648448 0.09307342021791713 0.821560533965282 -1.230568025318216
P 2.494029189757852 8.787076208869879 5.907349189728873 0.054397858024590184 -1.1779910225524486 -0.5064049928675022
P 6.913292795569301 4.148826705717225 1.5638216772537106 0.5876276843944203 -1.5948234092664406 -0.2924622132653221
Ni 5.161215493479152 2.592277699677926 0.5365027735952493 1.4219054088160545 -0.17145452853098211 -0.1732113633210888
Ni 1.453719428480121 1.3385680464608232 6.938399038000131 -0.6078951763942047 -0.36577284903401525 0.40928568471498544
Ni 6.625536562681389 0.6760134848433483 9.280911678967954 0.8855851164463586 0.1109857817219637 -0.8439982941435077
Ni 2.697886699697983 1.659161299757887 9.22124372564329 0.9032398534136444 -0.06352450291620673 0.5587241139861926
Ni 6.5426970984564825 1.9784417965180536 2.59798592724009 -0.42713505419158054 0.6298991914691217 -0.15042624710577318
Ni 3.9438375091073543 6.679359580694183 10.437353315595647 0.4517410256657188 0.5318686843562453 -0.37050624995394255
Ni 8.456026170744426 7.324719747726308 0.5223648383675321 -1.1933147973937126 -0.28831656652806475 -0.9093364532296855
Ni 7.341486817425164 3.7324927601602287 8.216694357779982 1.6733112183606988 0.9320536923215431 0.012567295142049325
Ni 3.0658206697635753 8.372951315692212 12.511486010160164 1.1446561558457446 -0.23091694556267325 -0.02445221950509337
Ni 0.05908309765374148 4.837697961827481 10.15470234761226 -0.6730718702018537 -0.7245417559463715 1.505807704057665
Ni 8.478922455446588 2.2720375326218205 5.884292658194275 0.5485433167984488 1.118585426900622 -0.07160085216643797
Ni 3.602964430688565 2.5620390318624957 11.741235618303632 -0.1307555081497232 0.6424438609033516 -0.894693249395214
Ni 1.0700867009319075 3.306987625831667 12.678298435978386 0.18900179338612613 0.20273354114992181 -0.6764554419621059
Ni 2.9183211559764537 8.442808070441872 8.01369330831151 1.2022069576770198 -0.49992709845264227 -0.1019205861959019
Ni 5.944677648192886 8.086697962701715 3.457903022662729 -1.749475007307471 0.09752811355516106 1.0024798074535897
Ni 3.2173399346016107 8.247705288578842 3.7070433903311346 0.8528279766199958 -0.012808464618577943 0.33422798434819856
Ni 3.2564148119343637 4.419182124371229 9.195988100572059 0.7093316238648364 -0.5071277299661395 0.25033828751207854
Ni 7.200714049202971 6.035339330679028 11.254113313530448 0.6525315841566568 -0.866538641337869 1.405405097168186
Ni 0.7740320360321313 9.402686596727902 0.5212639335752098 -0.4413751090503624 -0.8893499828054297 -0.491173006409096
Ni 4.693530133596072 0.2927148312000419 1.411636980653869 0.3801008356209131 -0.6925055534464332 0.33239941577989207
Ni 6.006467740360643 5.692284360360982 0.3419712671631044 0.4812218087336551 -1.101748300738625 0.4873014392688317
Ni 8.185652645103707 8.981807797505233 10.846031627169191 -0.004440038049224612 -0.17516488750303383 1.100972598914865
Ni -0.007840325247952824 4.979240276985097 5.807067265200612 -0.1178197739246616 -0.8413112342296479 -0.19983333678399132
Ni 7.993628050982366 8.999715607367186 2.392401010767269 -0.3102264792272786 0.12279228743858853 -0.46541389516712106
P 8.668484499374575 1.5785218344189544 3.5189624979165033 0.6478547475062778 1.3651570482814166 0.5718434249769699
P 2.0150631771508123 3.497826212323119 1.4281740916214332 -0.5394706650732193 -0.3297095276525548 0.8099445469929084
P 4.692027253698659 1.0825895752591856 8.222153614274804 -0.965534597687808 -0.8980912193331694 -0.41217251934447724
P 8.692385721839464 1.5361424320105626 12.316236561704734 0.5945730053640018 0.5241206649797102 -0.32281999962157304
P 6.3571366985926945 7.790150787763268 1.4456256054181467 0.6057727307345632 -0.5594170262881591 -2.177552627917979
P 1.6212814835483782 3.2761061599878247 5.877058011651967 -0.3467546560602996 -0.008820426505107391 0.03566685727399018
P 6.788055821949288 3.8272104076707167 5.870101307355747 0.6682047719175396 0.866312641369992 0.571541577465835
P 2.3262951183157945 8.419078864350782 10.162692960849954 0.7383426663852058 -0.9249330221163619 1.363910063248193
