# total energy = -381165.0297650421 ev
CRYSTAL
PRIMVEC
9.25078467066366 0.00000000000000 0.00000000000000

0.00000000000000 9.25078467066366 0.00000000000000

0.00000000000000 0.00000000000000 13.53945844916240

PRIMCOORD
 96 1
Ni 7.733998020530511 0.1563576826657298 1.605359844465517 -0.3986708853136166 -0.9963752372177487 -0.042224712997165986
Ni 6.755154023735662 5.118995542834495 6.30057325454786 1.004174421547193 -0.5866995161531959 0.15599088567774425
Ni 3.1705953367621125 6.229986994494712 5.7924239682519785 -0.13395601736489188 1.923819455791738 -1.183258184488659
Ni 4.653653336177677 7.385437715884223 0.5078079323522662 0.23985924235762562 -1.3370237803803102 0.079508794159605
Ni 1.3179037458830873 6.09658143295369 9.743399748960137 0.8842368299485804 0.39688936793316165 1.8487476143575645
Ni 5.448434476167747 6.300339209703051 4.6775444119169345 0.17471211623633137 -0.30060541119774675 -0.45301115062739394
Ni 6.44464219524347 8.77724597817749 13.35999205208404 0.7611964310549277 -1.6759985353848748 -0.9836199944346092
Ni 7.264872243062357 9.238638099904136 7.340891488781758 -0.32384792666545514 0.5312253943452916 -0.3082960949737852
Ni 1.2197806759666039 8.141448818538572 12.483556088530397 0.04890932410619318 0.3205538292952157 0.48722559172557384
Ni -0.029826378997334414 3.9768752017362683 10.22384756143072 -0.6272542976471068 -1.1588936396013654 1.8188066038237578
Ni 7.155287451299308 4.507315178073703 11.358982635243764 -1.3320443248878477 0.009453432103415977 1.8365161052883792
Ni 0.44837719318271246 2.753264701036429 12.295709660914282 0.06470978147355952 0.02134864087910517 -0.4635961252320918
Ni 7.841279366982991 6.487769352022073 2.1032870140217246 1.2590815593768767 0.29338601063117214 0.43575596309137204
Ni 7.1721701327924325 2.6206547069520707 5.345973713455578 0.013909925212872817 0.06150310161080375 -0.7817547148222536
Ni 2.529229204926559 1.8678351249087493 2.113008663326451 0.3022087511291247 1.0267412511041154 1.121602616460391
Ni 3.79465325102307 8.934786836165395 12.375213677109555 1.7413667763780398 0.6705673586124451 1.722656087342414
Ni 8.225751216591643 6.988014768143858 6.387577806718268 -0.9674130456574437 -1.1069804956718419 -2.892887520554102
Ni 3.8048938693315026 2.199864277868344 4.043802776567207 0.1415554269787046 1.2272937254423186 -0.28466457159777425
Ni 4.939928109594806 0.4832045462157639 1.000983899051011 -2.299007684602383 0.7454538235086904 1.0346052272332247
Ni 1.6607470657826626 0.17535324331120045 8.680863905881285 0.1975100879674534 -1.3522377691165872 -0.3629423215637556
Ni 4.98032628498137 1.5323924325130096 5.963386789296528 0.7437005882630094 0.24752164399888982 0.283524287345744
Ni 0.23017986709493035 1.6168520939005362 1.0092689015415552 0.8835647435822203 0.33549656664797706 -0.5251293087498827
Ni 7.710621288402769 3.0232210908076014 1.7030879058889834 -1.9974339959540957 -0.6007038008520881 1.83843337691575
Ni 5.365454940280988 6.821167621069879 9.090974304398538 1.0489733230294387 0.3636336912038254 -0.22941027911015976
P 7.285186965560386 2.4050096722746743 11.285991171251869 2.049003383390955 0.8295278684414746 0.27158845514010643
Ni 4.050687210302651 2.653966781503712 11.908670718640238 -0.07404751393471763 0.38735983117617157 1.4576272876976963
P 1.5885261921296048 0.8343865231552863 10.790095473945465 -1.0834317618176244 -1.2877956394821177 2.458769350176469
Ni 2.927577231104903 4.515825899703113 7.095054669124026 1.3319525365049898 -0.648245040966161 2.627485396730365
P 8.511211920983351 5.266351287220246 7.8469417721018635 -2.1739829082888495 0.34204979438546257 -0.475567181551039
P 2.5979440312996744 3.5723384008078414 5.35741415849807 0.919408492753707 -1.5267755645585832 -2.345172356083903
P 6.5636535362895305 4.189384220508915 0.23469332479383223 -0.03128981125221708 0.03874318220646876 0.23550019405798148
Ni 2.1629814005461023 3.3976835917173154 0.413367599697379 -0.3998137406688082 0.8477600751787852 -0.7839602071140046
Ni 5.962953852587554 1.0712963358865175 3.1418448239881482 -0.2714730126081647 0.24402005860353457 0.3548158358018793
Ni 6.991483812286281 4.1747402288357 8.927472240956293 1.6220935578363034 0.2426324342273886 0.08102188837002175
Ni 2.2565438337633474 4.22068887485014 11.369123345080894 0.2303117078785066 0.5829459626480348 -0.033340266023342585
Ni 6.54925006501019 1.888584634272629 13.564641604447612 0.3261421220162706 0.5243896023703808 -1.3225865219090578
Ni 3.392114619520679 4.713848190137001 3.552063456682645 -0.0005741273359151403 -0.03715835421785214 3.999349938938944
Ni 7.025017905663037 6.344437698841532 13.416952831824188 0.015725895375689046 -0.4672589187956598 -0.029557401942142642
Ni 9.140912813715984 8.111439274010518 7.89687565602712 2.1429417227123286 -1.9603658874572045 4.40110974759053
Ni 2.7110071179895265 0.5830982162625402 5.277247786141207 -0.75746987413296 -1.0756302634953347 0.07338776886353168
Ni 1.0854962899095024 6.328026807351777 0.5865469086793278 0.43764495258396885 0.1184959740560798 0.423629097920851
Ni 5.860140634990516 7.954749488185554 2.609595394226026 0.3487071518009801 0.13340605839869282 0.331079668527204
Ni 5.5300078928287775 2.8112763698821226 10.03200757019785 1.5883917947084836 -1.0019573592912163 2.2477154620863096
Ni 5.762961145080771 3.4206902924698652 3.359193853148303 0.4894241420387894 -0.16930997138415357 1.5814829834037925
Ni 7.403911532290673 8.017220035102309 9.200535969200637 -2.014264694358189 0.19432371981967175 2.13198753769367
Ni 3.7061787492147125 9.256704881797875 3.188190328652482 0.031090036536585167 -0.5256306738663336 -1.1743631959918743
Ni 4.853313015446788 4.924497801249308 10.443579592647112 -1.0836184239071338 0.3997656610396922 0.08367758082531396
Ni 5.177590011096115 4.81986217912945 7.9088711481324 -2.003641153206072 0.10375815362527292 -0.21665632187860107
Ni 1.840961596285445 1.9816475251333645 6.946540726533923 3.037699763907207 0.6692877205690732 0.997244012975947
Ni 4.80313676097078 4.0393549994374025 5.565461523964341 0.009111989603597211 -0.49384078304924633 0.008281523282501868
Ni 5.648658453284026 7.199681965537943 11.621580026040808 0.9740812017062385 -1.7124092128034252 0.639363422205815
Ni 2.3702729769285447 1.0477993435618387 0.1038900088988476 -0.07693254879199654 -0.4772186011115329 -1.9334937456567087
Ni 1.1494747146801634 6.10066102886518 7.530443761037506 1.134475101547685 4.6245023597517 -3.2361722157879296
Ni 4.756485055343476 8.533765333301291 5.140918976736171 -1.0981880941911928 0.401848768820966 -0.6823826060798183
Ni 4.876560236593212 2.896753617551427 1.3723057586637846 -0.6926505636647297 0.10893198451672852 -0.7347629194537475
Ni 8.234613468027487 5.9507243156374665 9.971770162630378 -1.2243927497454397 2.2178230454022514 -1.9099275283009947
P 3.9851916568937034 6.88104794836029 2.9294375638436794 -0.009546248927538397 -0.11077572259368663 -0.2088792490363435
Ni 3.6323667406483295 1.0768375557300145 10.273307805195731 0.23569971166329728 0.5964370551559341 -0.8668690280940942
P 0.4162140660510419 8.609205479918517 0.9301996722121352 0.22101794128140645 0.08319369921035995 0.7004039823579034
Ni 8.980365450804644 2.153453092634914 6.90432477201673 -3.3165518425882627 3.692540712923331 1.4187108131381567
P 0.31248317064352676 3.0115373501359204 2.6902899863709764 1.1945021328335943 -0.07020705714270489 0.947033196449511
P 2.0846087552804806 8.170662795609966 6.563888506212777 0.2513477026131994 -0.8866456965003892 0.7085093850738572
P 3.0265606239687073 3.798954865759675 9.22597655132351 0.43786606745583945 0.4661140065579392 1.2184475879055983
Ni 0.2046060736769876 0.2212269579721649 6.471698889397493 2.071128497424769 -0.3952531178813193 -4.706013271942998
Ni 5.518000374703804 0.5989374092776248 8.743145736796691 1.152310587067209 -1.6018060112318606 1.4029787471148807
Ni 3.2842874767897907 6.95952235225409 8.282032063679877 -0.9337573052762114 0.279925257140576 -0.4609682006909416
Ni 8.850484438112327 4.5685091167460445 0.4761082695180234 0.07159956661485734 -0.019352693494998928 -0.525279718284818
Ni 8.602054623592936 8.223401517359175 3.775897285693036 0.10108009257247752 -1.9056093605416147 -0.1689199350345865
Ni 1.2325190060575812 2.2600406302589096 9.335212588515443 0.657482500404029 0.5696813843286447 0.4911971747788121
Ni 2.579877249405935 8.105435514948033 1.2572241508222612 -0.13694801011368027 0.799304807890875 0.07737760674921512
Ni 8.314567997422053 1.185821046508377 3.550980189831771 0.21785497017239255 2.4669179474255323 0.34458130255806463
Ni 6.374151218269433 0.5910538908291637 11.184959654726377 -1.0460718331119276 -1.2706502380510827 -0.5533661921083889
Ni 7.68804937451607 4.775384407831396 3.961875979942869 0.6689241665820673 0.4543743495235078 0.02462139809310598
Ni 5.729491807194673 5.429544374464206 2.3229515145121424 0.19815672041251678 0.6518566695768193 -0.9150067641415853
Ni 1.234017633127108 0.2717954457058752 3.1354673332367176 -0.2130845453669427 0.8776105828813144 -0.6540588194344606
Ni 4.736651373633196 5.10433304959252 12.957816051329337 -0.022337230044619596 -0.18716011219169704 -0.5711104034656873
Ni 1.8757537963378537 7.409175228602775 3.4764863984565975 1.0803405244868105 -1.3125607622419395 0.5975236033518935
Ni 7.098626396973064 -0.02473844758844727 5.148433388887878 -0.7442960557551633 0.4818406732645766 -1.0373079708763686
Ni 9.155825078136214 5.990576694745622 11.97080361192713 1.160798312823246 -0.13685056530386755 1.0775629617416733
Ni 8.377898867286127 0.7574098212525757 12.452131173992234 1.0845195955651645 -0.8246258031541669 0.12773780436932194
Ni 0.7258526204977818 4.313141213941809 5.93395171847846 -1.719951801037373 1.3438971104613757 -0.8440844260994108
Ni 8.26019188683762 1.2066445621472952 9.019012452708115 0.4108969950661633 0.04561419829468918 1.7618358428656689
Ni 1.0238305612337901 4.191493399347507 8.297602983947947 -0.03347782004247137 -3.1203656156385553 0.22003989363885332
Ni 2.743838151753418 8.09063425994036 10.676945429882444 -1.3220206221032587 -1.970584222751103 -2.2727531217812276
Ni 3.5411910098010724 4.906023984842859 1.5474924878561487 -0.7112535234778977 1.3423940435532882 -3.5497339300360284
Ni 4.477481398448864 2.4931696474141187 8.26632608195986 -3.074957876927717 0.4406629134746863 -3.00361464929804
Ni 1.0295290444117438 5.115896530067264 2.7716219575596943 -0.333123181319794 -0.6477485609457166 -0.31617164106712
Ni 3.67247814171912 0.1426794728817652 7.535236592424678 -0.17797356059642253 -0.19352822050156993 -1.0305775941310702
P 7.900243866619803 7.798679504914037 11.903065668384519 -0.12865465975663648 0.063069160546343 -0.48766010815983113
Ni 0.11113984861729279 8.387399422844178 10.33717337039696 0.4682122838478646 0.13724548674944106 0.5640370415586737
P 0.2905125577415141 6.352217608504939 4.436406065645699 -1.4778459287374162 -0.9424316931217576 0.3903214849076568
Ni 6.72055609015523 2.2033795759326664 7.6196277980077936 -0.40120470747906384 1.7403547901737575 -0.666168201103485
P 4.828058374089948 8.497946296182725 10.35840299547015 -0.7972232427714979 0.9547102533787947 -1.9881173465388597
P 6.023592744197109 7.78045545968584 6.511193263150152 0.4353656696314889 -2.428372997272798 0.9497662791099577
P 2.7489075815935458 6.0897266017282625 12.690669124774306 -0.3787162965685607 0.17183350913695566 -0.050149881381513634
Ni 0.9040800825157844 2.2454798956451127 4.818395004726814 -0.2725837291738402 -0.3223949962690125 -1.825628768951914
