# total energy = -340892.265266902 ev
CRYSTAL
PRIMVEC
9.06317884682760 0.00000000000000 0.00000000000000
0.00000000000000 9.06317884682760 0.00000000000000
0.00000000000000 0.00000000000000 13.26487836248748
PRIMCOORD
 96 1
Ni 6.327684920379126 2.002971597505937 11.37390341346825 0.6656501238164858 0.6005451637870367 -0.17650648913259281
Ni 4.62454140685784 0.345537320390192 6.209422218018614 -0.2140682494364507 -0.24655182388645283 -0.8326587007609725
Ni 2.9330078254925374 1.5437493864117413 4.820629626332679 -0.931869087114563 -0.11985505918713553 -0.1529659828084914
Ni 3.3476029437404597 4.070699608169189 4.818785269428899 0.8661169804194181 0.8659598860162635 -0.4958945802544814
Ni 4.762319852318652 4.425033649988421 2.65517788930571 1.8592811668990368 1.0888310784563247 0.18431004433741163
Ni 7.120694946752647 6.1063983446409855 2.4804923667757266 0.513514864439406 -1.3814239037622402 0.5822821038117908
Ni 4.796587731695533 4.224873344239042 11.637702642418011 0.868260252014666 1.0376872085926578 -0.004291171176186158
Ni 5.693570546276293 7.877207551742752 12.751407815848737 -0.6002790546098437 -0.19662485714902267 0.23447406678631233
Ni 2.164921541062 6.488030681271951 0.42748205230927805 -0.5060134138560382 1.102919438228591 -0.21603900000957632
Ni 2.9275880445172993 1.7625435879555842 0.13778932127547955 0.12037467913603139 -0.10401963481677569 1.1168406762953735
Ni 0.6290843098197952 0.1588439921510233 4.585084857567374 -0.8373815601579385 -0.2521403737178238 0.0524438196220129
Ni 8.72922793585837 2.301621468235099 1.1397473116485313 0.0330157928043883 0.36406615075555365 -0.07066702749825894
Ni 7.004187782142809 0.7348226052744867 5.088075878467115 -0.2551501070784251 -0.32431998120586725 -0.9949487891838672
Ni 0.7913714036305056 7.207230178778686 2.4842726186900608 -0.4555637418459186 0.9802050552157893 -0.7620580077242747
Ni 7.5964212066025425 3.8577149042927834 4.0131964570762255 0.279705427820286 0.07649674680615857 -0.5517723652587078
Ni 7.776316244357554 4.0345284612257535 12.688824752988848 0.4403821490094738 -0.8881647042480769 -0.42425181910651455
Ni 8.125266757917101 8.887761060973522 7.047550561534156 0.2502634684100851 0.449646090809903 0.2165596483997367
Ni 7.1696542391075555 0.6582541510719745 0.40832702372873414 -1.328885724654208 -0.19720592646347326 -0.1320315466486694
Ni 1.8470033520161893 6.3775233410862056 9.155963182227246 0.5688974549747686 0.5287342524923216 0.5700061146579151
Ni -0.04718562824645661 4.748552883587237 1.5335261206256736 0.22349288518446028 0.4266370315092395 0.2736183410859417
Ni 6.398006125373893 1.9090045587914442 7.338953514424189 0.8985069667143495 0.1836176462560773 -1.5345608649309572
Ni 3.440382706020577 4.38348803796419 0.49501995506743074 0.6325703105433815 -0.5113492242466549 -0.12215568229585415
Ni 6.069837481005351 5.625895789516926 4.831280674162278 -0.9077233431062948 -0.38568347191501323 -0.09083476069538549
Ni 5.132052235069204 2.8240593520755897 9.228084334549242 0.7802364784055144 0.02269358494277382 0.6768354510093441
P 0.5150613625432561 5.518306792933233 12.71231651266747 -1.136398800932959 -0.24051487366375351 -0.5953667049098907
P 4.108656201353631 6.255795785436674 12.741326841971215 0.42500720921530033 -0.6927089277064908 -0.6767356922066862
P 2.4525415230840313 8.452139367704609 1.4238516865797683 0.6892687916766903 0.24317622254600058 0.21698259486976823
P 6.614643290342308 7.74212087041178 6.030638325995315 -1.5452792797897257 0.5112011287045648 -1.1522234266700413
P 4.982446341159084 0.9156076471963351 12.543640784058358 -0.9238117640277251 0.2775672984313607 0.6136919855816398
P 3.825749072353546 6.282514036799552 8.134567392092334 -1.0510404899711123 -0.2199704738534986 0.1429767328062634
P 4.781388780699757 0.8164428753893694 3.8025364585846844 1.4141779582648097 1.4479470842954547 0.19762758738192415
P 0.04510925396313387 5.649450991447768 3.806197982855581 -0.5333154441051009 -1.2313442413626083 -1.5075002612687394
Ni 1.4596974654011121 1.2011521612529323 2.2943464545414143 0.8232505200731951 0.12861300788542365 1.0573211807735017
Ni 1.7370216762059687 6.565729313881841 4.731409880719909 1.39428404755436 0.05471307527216384 0.23413699516186776
Ni 5.673414036428586 5.817554833469027 9.027704699870764 0.6941394895054304 -0.060167156408199605 1.542886096967201
Ni 8.600929575514778 2.736989392495137 10.378812593738909 -0.360929662009101 -0.4405613548998154 -0.9351798966553507
Ni 2.2141617919624474 5.167344253660469 6.895694280306056 1.4580219520329534 1.0849101461353636 0.4152799546252074
Ni 0.7150394983969797 -0.13804218396646473 8.850313818442606 -0.9628817334459934 0.2573743684232535 1.689047398149033
Ni 1.5442931771450426 1.1913548648746177 11.164968137919164 -1.5702660316420505 -1.304429905604689 0.4468736702710885
Ni 4.418725677482124 6.724153680850334 1.622334397916913 -0.011895980106637578 1.1385662408979231 0.7957289176141586
Ni 5.836723456817903 8.191853933209865 8.021324784518082 -0.48041191123785004 -1.1041923914037435 0.3495193632896303
Ni 5.293875294120831 2.55006132792276 5.098674359859161 0.022857107103831605 0.7295579782140403 -0.6637117691431924
Ni 0.9175199779417786 7.36625271555381 6.9155381104821165 -0.36653389556975585 -0.20495317450905992 -0.05905181185683379
Ni 5.003862632872273 4.632308551165162 7.170714631037494 -0.491350926747857 -0.5322872599509026 -0.9292370488083544
Ni 8.031707562252585 7.361467357100758 9.287670204150748 -0.1279956860163989 -0.7748042516463495 -0.17464321067160887
Ni 4.365425122439692 0.22294151220315536 10.241401207023072 0.8470643346633412 -0.3219633080482326 0.9393862214272145
Ni 8.056885073204443 7.399007044056336 4.443840652499652 0.9679378078126621 -0.13533798531408303 0.9369932957150057
Ni 7.289668853947187 5.937406311088668 6.922290178753943 -0.1230897640743493 0.4817707392585896 1.1035192765961188
Ni 2.2878182467881305 5.399606339032411 2.5507039073059445 0.6861952949576892 -0.959068273237174 0.19293043901657095
Ni 2.489220208045215 5.157809789469917 11.492173366371874 -0.7979830037556579 -0.010975782285213355 -0.27555078222196416
Ni 1.1522744375080194 3.6398088942799998 3.7136221421004514 -0.5096345555483933 -0.9907175247113389 0.04894866198456086
Ni 3.7409811602107363 2.505697067264249 2.547374095382362 -1.1360221343198305 -1.2051670687466083 0.15023238592741223
Ni 0.9001703345957954 3.519277678243731 8.03412561838 -0.7618932000116362 -0.34131960108765735 1.443277446733927
Ni 3.661080175130975 2.696513235579732 7.022320484144746 0.14164747247187864 -0.31138347564985724 -0.4728870636157146
Ni 4.3001702344435175 6.968388225533796 6.131172544132312 -0.2676649517159842 -0.10819407790943947 -0.9426738910395507
Ni 0.5815968777163564 7.264210384449791 11.402303790832809 0.5231248767253442 0.5326883520440632 -0.02890511307012441
P 0.028272586542231797 5.710890281131944 8.176046842910681 -0.1412360959660729 -0.6263598108572954 -0.5572799253404983
P 8.597050534950561 1.7114272590252466 8.195108520748674 -0.21335245431634867 0.19629472750311355 -0.17455553605380905
P 1.7224027686590477 3.2301532085262323 10.373877692834196 0.4359907048099976 0.9853403195598255 -0.9107022232289607
P 3.9299665663907706 6.047397050077777 3.8647352426597057 0.5635685865626875 0.501082295103008 0.6201140870578997
P 6.708229675543489 4.154869350505367 10.595892041837072 0.12802473948212145 -0.327750604153971 -0.26847742031495053
P 6.037146594755044 7.530531896084182 10.291927523007779 0.7011717137618634 1.5367750989734563 -0.0641960750619346
P 2.308862948166897 8.534251768433132 5.566540124659183 1.521955774572437 0.049804582226952936 2.2690743873780597
P 6.815528650402755 3.8803637883347895 1.728241268498928 0.5235179983987048 0.14460012734229938 -0.13169190392106353
Ni 5.268280876940109 2.7435058181158665 0.49797183243136883 0.514736652661649 0.1176451960200103 0.0538062471871783
Ni 1.4102215718495672 1.0739504455548323 7.022412928569408 -0.032155244576305905 1.199218050252025 -1.8431611214087225
Ni 7.01864355246974 0.7615118544649224 9.331642935481282 0.005716847879119187 -0.03779238825742523 0.6180461487852775
Ni 2.7762601466183914 1.7176536629215484 8.972204511312128 -1.0258814742069815 -0.030526964944263553 0.6470235098542341
Ni 6.738645703892818 1.9241944466083316 2.7275908759879104 -1.041498354808632 -0.26900423935269807 -0.25022773007614324
Ni 3.9619323983300085 6.9109820504549395 10.59731133565099 -0.039471318621744925 -0.5282259453973355 -0.17876597459073082
Ni 8.132897954541098 7.164651364361182 0.2778090908753839 0.36684217083879406 0.08741185105676558 0.3611798303466941
Ni 7.148691106338784 4.026716001023989 8.455762826624175 1.653411137002662 -0.5367596938999594 -0.11396466184462953
Ni 3.227398002144172 8.659767732857997 12.491243827951095 -0.32817586461684767 -1.1282610023171729 -0.23145636300591105
Ni 0.12154810470754258 5.046713342656428 10.33064723585462 -0.2872228192432537 0.08778851766989397 0.20384914281160377
Ni 8.682144721533351 2.556804333015698 5.883385233324613 -0.1795218789201489 -0.9988134143455959 0.3579800924624738
Ni 3.5855657686331788 2.337747299284093 11.150045613879481 0.8905548017468081 0.4358500654670752 0.6715734312794563
Ni 1.2504196016900448 3.292380994773696 12.591672913212987 -1.3803880062985583 0.3235221678949202 -0.8087194163365556
Ni 2.8640642236888003 8.524055692183728 8.075392990812357 1.8166689886554648 -1.1333337888543902 -0.8252294981764368
Ni 5.8692421426693295 7.778699860405192 3.7234248763860993 -2.1175723907096047 1.0779421994579628 0.9655834486478725
Ni 3.303039293146405 8.308116391989717 3.6067074460260513 -0.44901617053538795 -0.6031067538666258 -0.4426652886166957
Ni 3.308132799681662 4.192327468850949 9.093339335062362 -0.7528236336102002 1.2094024469841946 0.4163104527722507
Ni 7.00887344562809 6.084329504047835 11.591911837402474 0.6807198736654148 -0.1058919121388241 -1.1587560855822368
Ni 0.8103850466203912 9.132874734009155 0.2092923647972887 -0.8657305436142768 -0.17659596352260554 -0.7712587003869362
Ni 4.7433596820842086 0.4043781966870767 1.6354134713707018 -0.26010205176706175 -0.8684476854351237 -0.591042366502924
Ni 6.115089933194921 5.446888943292974 0.35725329173917203 -1.1530757473680078 -0.06269275104353074 0.4917841576305337
Ni 7.641791480117661 8.639139937708094 11.395830868470744 0.34659833298809334 0.35699561706201743 0.5213631568392311
Ni 0.10761165453091498 4.911771672187671 5.827154552547574 -0.0900289769646385 0.14489143333047302 0.19146542443527026
Ni 8.209363994822173 8.97309089020741 2.5657587537573954 0.5687750704642914 0.5054097188337683 -0.07012503895185987
P 8.79588761658224 1.829457037688329 3.607211358772244 -1.0402896792125118 0.46137777742453445 0.17712741054604333
P 1.7976271534324166 3.322851402196355 1.3928918674971387 0.05238776957309687 -0.4906528722395679 1.8687286854651814
P 4.696747753061384 0.9313594521043007 8.282616231869435 -0.18657364356060768 1.0214671471893697 -0.6232711446296428
P 8.411010661909243 1.5886755641613302 12.149633582973228 1.0415628894979803 -0.5784529598736876 1.0870511037377666
P 6.518165751075741 7.991766132891593 1.7436550168343579 -0.21794855832746335 0.10067565804520726 -2.330568490127799
P 1.7838420583432246 3.2482886294818356 6.027494309238944 -0.45543544379817047 -1.0344303922182574 -0.6982823080292103
P 6.753871844425258 3.8501924658154465 6.166682985334785 0.8172187120568184 0.11158587719980782 -0.7088009481723471
P 2.2798607757241522 8.348637864799565 10.253910206524784 -0.26383503644693274 0.06329516051422003 0.7817104918478794
