# total energy = -381169.46590633906 ev
CRYSTAL
PRIMVEC
9.21823553127594 0.00000000000000 0.00000000000000
0.00000000000000 9.21823553127594 0.00000000000000
0.00000000000000 0.00000000000000 13.49181949354669
PRIMCOORD
 96 1
Ni 7.987877822769376 0.13280159148090054 12.228917996145928 -0.8187161225379513 1.1727426296693158 0.9152546184863335
Ni 1.3676912014686702 1.4202535817041277 1.6681559083824975 -0.7272948932114764 -0.539778169011309 -0.6109061953063866
Ni 7.305719159176937 5.478314540952345 10.782810950462782 2.0670211601246145 -0.2981278961915317 -1.096746990869292
Ni 0.7685169397274471 3.350054362618208 2.934794965933747 -1.5031203870334888 -0.9369490727406316 -2.04818088748966
Ni 7.2404448318449 8.105594693272145 4.744398249105253 -0.631491732767222 1.5826191538907648 1.091806616144881
Ni 7.852968942596468 2.919111059631992 11.276867826321688 -0.13904757295518633 -2.0191179086854323 -1.0368027491051757
Ni 0.3169386160191913 4.367010130344561 6.65175078232565 -0.18900950669560998 0.24573704129464136 -0.7620500373044747
Ni 7.536479254658207 1.0370883946001246 9.77571408586898 -1.3271977954288239 0.040482533495078674 -1.997512928821147
Ni 8.377302191946315 3.8891367891649553 8.637314514926915 1.6036988573791993 -0.030179866017489957 0.6339718188765984
Ni 2.1146909353129875 8.21419472862008 3.5289747875466695 -0.7769398099321135 -0.79476783925247 -0.4352342862599472
Ni 4.815735410088792 4.114762327334555 0.18163611717984118 0.7330042848914279 0.3606782081199272 -1.027407423933205
Ni 6.535397288890019 6.797858897108879 3.0793590262291763 -0.3884448367102342 0.15600811206892487 -0.6119593191612492
Ni 5.130971417965315 7.0821492875791545 8.054508152579952 1.2555336941246185 0.5441642138941466 -0.499390766333198
Ni 2.571030477785118 5.944287139781201 6.05808349462032 0.560852473183105 -0.06244463958846666 1.2965728714541156
Ni 1.4241897683685507 4.9067009604506815 8.458844861726535 1.7696337416435328 0.5104765918337144 0.7033206417840661
Ni 7.38804722264289 6.163644277642118 5.846612557441872 1.8173277052853865 0.6199891314442613 -0.5198359215614273
Ni 3.397933879093649 3.476049208822738 5.673094018661775 0.05127705300742137 -0.45003561293883787 -0.19998194654671367
Ni 5.666781370821501 0.6158279264436746 11.223345827744858 1.5183235771364882 -0.002968595710020694 -0.2293981949253017
Ni 7.016579976703181 7.766806093059319 9.910483770682093 -0.09175598695807423 1.5970008765337333 0.053696203971875266
Ni 0.851274572979261 6.102730175818914 10.194648793146195 -1.2528566615130874 1.0312458238426885 0.6646857030206875
Ni 3.622416356030489 5.352688424177737 4.058501590916975 -0.3221157744656969 -1.5840543436753944 -0.6699340959038204
Ni 5.103832931923018 6.044517017069895 11.580298961499242 -0.6802542468829059 -1.2303656794994229 2.0914908631312046
Ni 4.832982729173419 6.583562570673649 5.504365275176372 0.78139964547568 -1.2830113307195967 1.3075406833195289
Ni 0.6109238250257047 6.623394567341032 12.4699084896604 -0.423424952329845 -0.9395440871613173 2.772940415873792
P 3.798650587061965 5.325918667565361 7.923826755321107 -1.0057934452078547 0.6431894808201246 -0.22419993855381387
Ni 3.0239316183232208 8.465419307462053 5.92023768453808 -1.742802994603934 -0.9376890362304495 0.3392107822747707
P 5.403619176685788 8.49618056015334 6.384950150540176 0.2332489361299596 1.4836190837757675 2.9147696653391733
Ni 3.0396118373306766 2.621647810277734 2.6584414764425546 0.714671548020511 -0.09879386764146211 0.326862802232379
P 4.826677455921743 3.6343816260314754 3.383546056738072 0.1165416785431864 1.1323230882016886 -0.6486515323759603
P 0.8716219847459613 8.53930346698278 1.334158947111515 0.11101149275357655 -0.6927834896981682 0.8675010052511383
P 6.893258418865588 1.8253397334170256 13.009338443694848 -1.4251838224570101 0.6392299819517443 -0.2866859729031772
Ni 1.8027919287772625 8.443175704601975 10.330591959370034 1.4988832090236897 -1.2290906694417414 1.228574391926955
Ni 0.16110341887460478 4.309221010439953 11.840542662197118 2.568144849988519 1.7433519251288685 1.1287878213549205
Ni 6.02602523615928 6.532152469906701 0.5774431927887386 -0.2890475311568183 -0.382399916067735 1.1969351677551192
Ni 2.996488930501236 0.6304406737515046 9.009782861268866 -1.7238835319916115 0.579407610477473 -0.23956793636945192
Ni 8.031950207880866 1.4505723590795083 1.362659888397377 0.7005173680073161 0.9587240025238778 -0.49129333403704417
Ni 1.4539646698347957 4.370771170529772 4.680905806743318 0.40286589723157074 1.0224973882260973 0.5225810884067322
Ni 1.8276442923540415 2.7632675660752324 7.7746342188565745 0.5215045675131018 -0.16258730794833937 0.09146005298421024
Ni 3.517577360867764 0.36516289451161016 1.7989184261159263 -0.4532602905237226 -0.20291428970216024 0.4610412200207221
Ni 3.1950312920430255 6.098480569139058 9.97881947410606 0.033665767683561366 -1.2764354772742919 0.44808465986005414
Ni 8.752871552793914 7.4179511794096085 3.1402215059321903 2.3038590991574126 0.6843381871442924 1.6899046039430057
Ni 7.242952191968373 4.558915362147745 12.941285740108345 0.07106529137794212 0.4982353125725161 1.613562123326524
Ni 6.77815030907952 0.57450902835013 3.099179154911088 -0.5358713777577352 -3.6057436126324287 -0.06310978397629131
Ni 4.899888684232862 8.127441911995055 13.045092292867286 -0.02178084332051733 0.8157976633395756 0.6605133168105527
Ni 8.843237917832178 5.911571621111325 1.4343556387515153 -0.8681679494111758 -0.6971561648445671 -1.6452841370201539
Ni 8.793984884230277 1.5085181889918349 7.378891670897914 -0.4262297687684918 0.40767026059874956 -0.33913082096645464
Ni 5.451480256689733 5.232971196517637 9.463014014646749 -0.46618959699088103 -0.8600512338413124 -0.8138035157276823
Ni 4.723184323178235 1.72797672744598 4.3285267615671215 0.09593197271263479 -0.30287055308283967 0.6827975821300499
Ni 0.10810317244111428 8.739007326228826 5.668088516650577 1.523939380661369 0.40045805912102644 -0.0023044797634605473
Ni 2.8926178500920576 7.178581251739646 1.1843616943819097 -2.069051303180766 -0.014179376824175579 -1.8760483590550463
Ni 3.4779758200940836 4.061305778231535 11.208410442185844 -0.9144151533041737 0.8127941006265615 1.35896917430315
Ni 2.13129297789525 0.2643587211358125 13.17705594671869 -0.6415776562483144 -0.26847459210147306 0.1717877435006848
Ni 0.3773659949948965 0.9927394624161915 10.61991089744088 -0.3374981704590381 1.1103972346628748 0.4224121947946145
Ni 6.702947941846819 4.849907410006862 1.8554898170782168 -0.5187468022623065 -2.687564107189816 0.8105916936586041
Ni 0.46166215179306225 2.3145975957454907 5.15182398905101 0.5498463518805886 -0.5121305824973696 0.7143308768516408
Ni 5.79349523941438 3.7512688553169196 11.332144055161375 -1.6047244704302364 -1.0491155050342578 0.16443593112130392
P 5.423493692958612 8.675945375476324 1.6776672840273492 1.0609592917467214 -0.9689513366788409 0.07429948204452365
Ni 4.42804406923249 2.3183494176949524 9.914328696812609 0.9387123352886414 0.008058351528102251 -0.2820101646940627
P 0.7988440135150008 6.524630389536281 4.924729985926744 -0.5102837590966179 0.6410441523423476 -0.8744962056220488
Ni 0.5225356933789737 6.721227703335228 7.113359468351374 0.7034697657674207 0.9187726589419208 -1.1530559498736659
P 1.6536408743735966 0.7546139965722178 7.237969735546545 -0.26923229620310407 -1.900276635474792 -0.7981043598248706
P 2.59867596679356 5.213188862602293 13.091396412853385 0.5425397909168462 0.26415668145240956 -0.144833326399028
P 9.065065542873576 7.970796431928215 11.187416832093206 -0.5854116505797079 -0.2666457664228505 -2.8069759081919465
Ni 7.914482229743295 8.095915545736679 1.1523513707467596 -0.7099121789586548 0.8661056675655083 -1.1637157435803571
Ni 4.858655515731775 8.507279315994008 4.485693071953729 -0.45214211775887936 2.5444282230978694 -3.6695056854807384
Ni 0.18317648437334258 8.788619871024903 8.711128615855959 -0.2512625990985608 -0.6589390303448974 -1.0021735890670804
Ni 6.153375163018775 1.8580460338511544 6.577072932707014 0.4330318792919897 -0.6582610304412664 0.03722931666510362
Ni 4.544184621422341 1.906109915041557 12.777198378322092 -0.7094308684468621 0.36381752507985726 -0.06519829107420384
Ni 6.957979652052741 7.241597111313407 12.172212018941716 1.4186557915305051 0.5770115994414707 0.5245032451301096
Ni 5.532379493614737 1.7093098000561517 1.4661557866116095 -0.1342519513387559 0.924537072229524 -0.2559584619123334
Ni 5.759009819480875 4.422983257806803 5.3145894558309905 -1.5065173285301796 -1.011113571869188 -2.3913671094724105
Ni 8.102561893711032 5.0279945064237 3.8619116517066248 0.5528203469072479 -0.07503430332801916 -0.09501948820069442
Ni 7.769276580239801 3.406221073031158 5.724700467850158 -0.6903357994886239 -0.3598091752514126 0.021190518034686086
Ni 8.188097903217313 6.530557715122286 8.552612755755835 -1.1257271801517257 -1.6131949697950927 0.11446911228487383
Ni 1.9072529762743171 3.4324746084416424 0.5174287907745466 -1.0964615984183892 -0.7047033810642058 -0.9219788245840443
Ni 6.532152469906701 4.876916840748689 7.281818117529357 -0.27204868260597664 -1.1899525657896992 3.445694754835227
Ni 1.3892526548833906 5.76784088932752 2.756675605691792 1.0919323430894678 0.6131667092057892 0.8877001059068326
Ni 5.112156998803519 0.367434267799933 8.64526155596532 2.7544775811829143 -0.5793628732824667 -0.6220812380865995
Ni 4.6712948741523865 7.8696447310647155 10.384100130593243 -0.7855992853793246 0.6389731287459318 -0.8641302890066923
Ni 0.24946020851979248 2.018185225266512 12.91439706825482 0.2426686867819627 0.20055401700009975 0.2715514312545839
Ni 2.8148804680286394 7.156411394765554 12.158356088788802 0.6447344567097412 -0.44565342471074215 -0.1970382905373574
Ni 2.784736837132472 7.359608965360115 8.21317242627562 -1.2506835651211687 1.004203989233548 -1.0188250815808324
Ni 2.408623600375737 1.1341840717344762 4.455268284867246 0.09531593639519069 0.27306144014120715 0.1739569832378617
Ni 3.3036682003339526 4.6969123512962545 1.7204094777203947 0.6636420922475216 1.8789254234925252 1.041282125032768
Ni 4.264125401160427 7.080121275714581 2.8186977394519124 0.5401070131056375 0.22297017991177082 0.03973742779893801
Ni 4.458482683672595 3.3518795732963245 7.744871301096802 0.9499570549645252 -0.4140550810791708 0.4886911205275068
Ni 6.789507175521135 2.6816032155831384 3.460314602224369 1.1079911963245435 2.973861329295007 0.19250415011242977
Ni 0.09580051501174887 0.7691705126419848 3.479283887746734 -0.6536602984444614 -0.6818473024016387 -0.0925795113006341
P 6.579294527522296 3.209817342182919 9.242369089251827 -2.4201709210779803 -1.0815057484395052 0.4353831531329857
Ni 3.8435157404477898 1.182847138248503 6.786466079547848 -0.12691993645371688 0.8046277627656853 -0.5718305694611636
P 8.66264346129187 3.7956730969153405 1.0550547360731 0.5158054602457955 -0.8085664356984591 -0.16184965845136642
Ni 2.407581939736206 1.8820411015033638 11.106047465145048 0.7853951397883183 -0.02731334310297232 1.0452984452810128
P 7.652979318042234 1.1618295607429185 5.022815701580438 0.7499964485740503 0.3117480580781276 0.9857478394108894
P 0.9124624564041814 3.1995205728523324 10.186580071395916 0.12275192111895632 0.24127052088285547 -1.043405342023358
P 3.6757438498330357 0.009563919588615775 11.773528853779423 -1.1673780229232928 1.3397319233400926 -1.667441132733167
Ni 7.435401299680692 8.452744233308465 7.136335920953422 -0.4854098786730737 0.19230643227932687 1.1133614594975212
