# total energy = -340894.654069392 ev
CRYSTAL
PRIMVEC
9.02607932894228 0.00000000000000 0.00000000000000
0.00000000000000 9.02607932894228 0.00000000000000
0.00000000000000 0.00000000000000 13.21057946799071
PRIMCOORD
 96 1
Ni 6.311603312375952 1.9150451998463824 11.378853275796255 0.4830380360067874 0.5460478040701048 -1.7508430912995911
Ni 4.579020306238775 0.4462881743465767 6.182009573141786 -0.0024888278601247456 -0.3634359733707224 -1.2598310359483915
Ni 2.789193904974029 1.6026796723819026 4.681922123670473 0.1579156135042829 -0.059672476159968194 0.5685575551368467
Ni 3.4673142191555217 4.443683272725253 5.19712080328998 -0.5947480974892854 -0.19525908714974757 -0.6809281330214789
Ni 5.256842759802289 4.388109702274224 2.8455590625825313 -0.3107404427492197 0.6051716068154546 -0.37980438742641687
Ni 7.318128496996016 6.040532097858274 2.665062748951974 -0.186952109945949 -0.381352191529511 -0.3289204560923561
Ni 5.190898224198062 4.474489281487535 11.447957841774837 -0.24541385362726767 0.3763431683506938 -0.34554366647133394
Ni 5.492414404304715 7.79448885985513 12.426861418421172 0.10525453566514131 0.32401247726777743 0.438628913763793
Ni 1.8466184924256808 6.474912165741307 0.26270855201599147 -0.40141219550417967 -1.053224642106625 0.8164558657488648
Ni 2.657927633239527 1.4728304951026234 0.4103941646644893 1.4772646023126494 0.590768286905931 -0.4323430807550812
Ni 0.5042626819000877 8.97135421364067 4.569262211872263 0.5763325710965752 -0.05136138519111155 0.34263523457528733
Ni 8.714544204468556 2.2971462162347955 1.2669591646442313 -0.7663622915265833 -1.1259768342686864 0.35578565591431627
Ni 7.167347841744356 0.5969487827431109 5.005633432856074 -1.0261357563096327 0.23879223454569198 -1.3327691188690145
Ni 0.6538320373053064 7.303497222397814 2.3549311761223213 0.28114575981123835 -0.5221697119009265 1.0395682276654548
Ni 7.615907880258958 3.9599937334480395 3.8309226042072333 0.05857564355136364 -0.6847724464682335 0.15177067694880958
Ni 7.663728048563255 3.700385639682808 12.525386489984479 -0.10659099508837773 -0.13301319383564836 0.15068052920842437
Ni 7.867934067384777 8.567906519630577 7.068505052188544 0.7219341431201954 1.0354930291548168 0.12514176150737158
Ni 6.884434411142264 0.9892041383807381 0.1686911044714047 -0.2705960093198501 -0.7210820795325451 1.473503078387688
Ni 1.7992857324053457 6.563295534566463 9.244486082069988 0.3945074979645464 -0.00943646282255149 -0.7051610374269146
Ni 0.08236658434202226 4.568071672008289 1.4782244801118058 -0.3481957593822003 1.8556456270289785 0.14219563166586477
Ni 6.54176833535813 1.8946552866339614 6.989096314043826 -1.0306099900309025 0.0948996747933785 0.13821633530314262
Ni 3.2341615639142414 4.28819100406196 0.33311828906607294 0.3679127781951535 0.0907062055373212 0.16551270912525043
Ni 5.972628903038865 5.650253453594494 4.883858986147771 -0.3823963165233092 1.1255227774504035 -0.3747282584550901
Ni 5.52456529888756 2.850887157212586 9.091137507248195 0.8077796781311056 0.27679725303455555 0.580611143867271
P 0.14762694313283575 5.422570602428791 12.499638696080204 0.6987636185410031 -0.13334332348155745 0.8922293612357538
P 3.800566094195718 6.128644684303452 12.517883110235257 1.3963152190517758 -0.08046858696971303 0.4106396276397186
P 2.4134923788324536 8.220718378100793 1.4833368514458103 -0.13324279334795117 1.246761090138311 -0.2037372998240878
P 6.1216584988999925 7.791311679930042 5.739732588450631 0.08395963084210702 -0.10875483550891593 0.9355933300436854
P 4.631452801082047 1.0674151157980154 12.43137987373509 0.3212166596901952 -0.7924240216106417 2.357744793432275
P 3.8315977549413147 6.275165030110107 8.31154149616956 0.07214669736757898 -1.165712719405728 0.2581390145034199
P 4.746318686669153 1.0470883851409227 3.6126178494681374 -0.9406216364962123 -0.04479658748940027 0.5240949539480975
P 0.13456259590678066 5.623464050135235 3.7436936709287214 1.4070338910208606 -0.6476662856445556 -0.23727116991547523
Ni 1.524938051089922 1.0602754870459017 2.5644373087279657 -0.20773639368115193 -0.3635506445717158 -0.3166210698997128
Ni 1.9922542824577374 6.551083249229408 4.7067050296940875 -0.45736068584534134 -0.23347982119384306 -0.33649903977056245
Ni 6.019140289839931 5.642057773560461 9.341187885608102 -0.5583484758143288 0.2838158504442338 0.02505617163767943
Ni 8.837434274582373 2.4742469188204157 10.26867620655195 -0.4425094797651218 -0.23978159504215482 -0.11277912617696062
Ni 2.1242426405388506 5.0371118845286365 7.219779433979697 1.1043042343912592 0.18508497483022318 -0.3814426943607882
Ni 0.7476030728841122 9.062273910758298 9.028453191498915 -0.47417621474078336 0.1979302062240075 -0.177872516242184
Ni 1.6883100870106054 1.1636150693252332 11.253101938533991 -0.38062662621739607 0.01899325327305116 0.5531887859902602
Ni 4.031408073127843 6.736785805419029 1.663119202201156 0.550798945601845 -0.3796138686821656 -0.0857483473114136
Ni 5.482034413072186 7.804516833993686 7.927100920018128 -0.43368596793622083 0.9740356931802838 1.0987303398479076
Ni 5.239241905103652 2.827428377027069 4.8980470802507385 -0.04141121595693513 -0.4655871875201917 -0.21109733973358483
Ni 0.9332785508357352 7.075751188676783 6.757237998578845 -0.6261278973521475 1.4626406817518876 0.33484839154101687
Ni 5.079173414218714 4.826849366474918 7.052176874675808 0.11100223678219592 -0.5077116274940676 0.8052363428839616
Ni 8.146361536558551 7.393992693786808 9.322758436826728 0.38863895499891127 -1.0077863072681676 -0.16290869584350007
Ni 4.453837611974468 0.4837012731803464 10.371189902572345 -0.1609006642745358 -1.1088854260040386 -0.6062373290758075
Ni 8.033129371330652 7.122298679795178 4.919659124604799 0.6259934286568122 0.1533133388455811 -0.034981915391823624
Ni 7.116549067260291 6.326938621162097 7.199013133259106 0.6265878677077016 -1.2677392350518748 -0.7656051016455847
Ni 2.3130591940982304 5.05195978503082 2.6396588486702743 0.2932690254373337 0.3175240413299564 0.31984908991870725
Ni 2.25559917306668 5.21374323098896 11.281201026104416 0.5820249934956622 -0.6294531050706385 0.3413725658127798
Ni 0.9722982917907137 3.185393657280018 3.6203992324608016 -0.08677961678940539 0.8511811850451921 0.8348495377647043
Ni 3.671673681325698 2.6624045685885136 2.4633632723611254 0.4242492480033532 -0.25421602529992987 0.25018453554303366
Ni 0.7788008134894298 3.3102875170056802 8.060395351778674 0.46971715052816526 0.7336362620484719 0.8247417599067408
Ni 3.9351629892039623 2.7219044835492396 7.068717165052861 -1.0674168744466068 0.08986365503136781 -0.5350697077920462
Ni 3.938926864285671 6.850460248534228 6.234759785977569 0.18607562087826665 0.18199862259541558 -1.7432539660984236
Ni 0.7014418979611532 7.219825466984293 11.356223992301407 0.11657664554617989 1.3238003397115008 -0.04616338592993985
P 0.016302001882671047 5.715448824614112 8.169488157024626 0.2665125832790958 -0.35880618790819496 -0.6670652589964576
P 8.396185360327207 1.6731552998111123 8.021543495899282 0.5574951266750978 -0.9875265285778669 0.3491918047468825
P 1.9394065879651627 3.3884353118676294 10.127534501419612 -1.2204695034316335 0.2260573034775268 0.6236663231855323
P 4.062304342683451 6.160299144523001 3.885363401702018 -0.7325191177248932 -0.27738757832038685 -0.7929755232387375
P 7.032886337926102 3.842185345998495 10.403767730707624 -0.403038418253693 0.8644830443604208 -0.4440493134484159
P 6.24064027666278 7.698352088883241 10.247618363468915 -0.7958219915485971 -0.21405847924443777 0.5645620608242083
P 2.342366873691294 8.646776400839135 5.7827201938802375 0.06450486455160503 -0.14321610251057915 -0.2117588845769837
P 6.88219594346777 3.8535943102749446 1.4260555467850453 0.16660928462353888 0.18055443394972132 0.717074758145365
Ni 5.193118639713891 3.0110098045735203 0.21767834483341156 0.45551206267237676 -0.7245073031640102 0.6896603706881542
Ni 1.3867848808246195 1.3299296071083553 6.9569418090292485 0.45875036710401634 -1.4450512508048983 -0.6886478702632398
Ni 6.891258127117735 0.5033023070590954 9.192819901362057 -0.4872988681656705 0.7937172865007686 0.23558169802819426
Ni 2.6169492330693664 1.7226452927919467 9.044332772868819 0.7904728114215418 -0.6521441189102511 -0.38811959216033154
Ni 6.401873131781628 2.049443521109309 2.699964792515405 0.5597633538839842 -0.24511329166771334 -0.938129723312294
Ni 4.009294178762889 6.987530289279613 10.46207891102024 0.8906669018446403 -0.3772790499014019 -0.41969248187060626
Ni 8.409047523376211 7.2546661332082625 0.31630992413284104 -1.8864590128654093 -0.835930943754341 0.3050336221724295
Ni 7.525592930456617 4.030550595591243 8.141693248327712 -0.27828695020620464 0.02259639724327721 -0.025933946256942432
Ni 2.9593986829495167 8.359440191364053 12.583249074154264 1.6039989051181214 0.12223152983911208 -1.3695502922531058
Ni 0.12183311622396631 5.057655241089713 10.277342145319212 -0.59205409559689 -1.8706001914562815 -1.1476316935343007
Ni 8.534618339051821 2.3812331712976182 5.743880974511911 0.5009961631471049 0.6707118546101094 -0.527243526879408
Ni 3.602885930731691 2.644731505255215 11.422540402374139 -0.17146789826742084 1.231583353956608 -0.24502021773327476
Ni 1.052666502168491 3.2842472781310303 12.676053416636545 0.5427714473116781 0.32198310554257453 -1.4172044037959592
Ni 3.0062530607652223 8.35248108419859 7.8782743438682425 -0.4826006913590528 1.0330152570382856 1.1280023493391476
Ni 5.848556416532473 8.14070218481699 3.5435394591196197 -1.0537411767317273 -0.6794006406333589 0.2223168625984881
Ni 3.0294591107294253 8.398793897254338 3.474329288012845 1.3213493070678468 -0.14491405903829235 1.1335027103320865
Ni 3.7278971294886776 4.188976340037643 9.178327628385578 -0.9791020519595975 1.296614009104696 0.17279458749864432
Ni 7.401141348618253 6.09043729048841 11.473797701688301 -1.5403818424881084 0.14591756060214225 0.15769526996336067
Ni 0.7617604783173493 0.06795554607953812 0.30437925247096487 -0.6167099464723572 -0.6472124859365886 0.18476615803822374
Ni 4.789472371958479 0.16118862733011896 1.4625434724872202 -0.3306209837232306 0.20497502888593086 -0.3239901086702743
Ni 5.933591109925222 5.523283595622326 0.31865489954345955 -0.24251339215102102 0.5509344427384447 0.5632399995786751
Ni 7.7773754134404545 8.73265051960982 11.510140307513222 0.14624460492425784 -0.3882736012396926 -0.2645588019868347
Ni -0.08755206691862073 4.921993268720217 5.917428109664273 -0.12717344722541968 -0.48359905071658005 -0.0856223632565106
Ni 7.854196374640507 8.8327677915674 2.3117856143043953 0.3188705280555218 0.29765558454080354 -0.17596655746872275
P 8.508388552511185 1.5793653094657079 3.3797811070034993 -0.3914324585836484 0.09146493808021666 1.5686608919384597
P 1.7907560874360062 3.117192601842632 1.5255843183701387 0.06925703452460977 0.3943899985500756 0.5331634919082688
P 4.709609622023329 1.1061099178970193 8.267550190718167 0.011792107538921627 -1.2374642382174172 -0.6756735694907589
P 8.768763863019691 1.4484059244285148 12.285772967156896 -0.8104693091481268 1.338880631083391 -0.1794959107782199
P 6.355118040838582 7.446298823519425 1.4626229019853474 -0.7290231887564927 1.0373444805412586 -1.9332713452332575
P 1.5994032055841563 3.2110728529813626 5.869672026523237 1.2949816157075955 0.7516969762049248 -0.09038224653899918
P 6.771283480628359 3.9621238881705416 5.953110006482044 0.9574307376337512 -0.6870381025739587 0.5246148310073093
P 2.3594803201059693 8.393802475383392 10.327912559996165 -0.3135437165259697 0.3736640788566339 -0.3691451079403578
