# total energy = -381172.13054763415 ev
CRYSTAL
PRIMVEC
9.22635696410656 0.00000000000000 0.00000000000000
0.00000000000000 9.22635696410656 0.00000000000000
0.00000000000000 0.00000000000000 13.50370603142016
PRIMCOORD
 96 1
Ni 2.323501170107236 5.226362203598992 1.707530199389275 -0.6430388141748732 -0.14425020020204835 -0.3867772191998242
Ni 4.220763098111117 0.16377152783738225 3.7653870205048756 0.034046805172063946 -3.4232639366355366 1.0728442161097653
Ni 5.547291806554165 1.6738825979340881 9.174323144934073 -0.2339588177127906 -0.22199881713743705 -1.9013356728669257
Ni 7.089440478804205 1.4905087519493232 7.005371758812054 -0.0718744175427988 -0.9757454767825389 1.525475357689921
Ni 5.245303914582979 1.373167943233135 11.473815488776074 0.367341993293348 -0.625239066989291 0.644656038063322
Ni 3.6119896085127903 3.7850668400513166 6.063069153097457 0.18688937502881361 -0.442551902967283 0.5857047563400946
Ni -0.035526087746633336 9.051406848664245 13.02524310829187 -0.06556184506120967 -1.758228585130385 0.2706392038529597
Ni 8.172910037631018 6.026213547302702 0.3775268448884734 0.6791566429433529 -0.5311564887805691 -0.20598830064179366
Ni 2.330799218518504 3.7847715966263342 3.5243456751712516 -0.12041941633103778 0.556155581928068 -0.1346008500377424
Ni 8.53480466580241 2.947498148806186 8.475830714298008 -0.665692547018647 -2.1030934803671397 -0.013155820655667666
Ni 3.2871295774625473 5.571012770480044 4.699721744287778 0.34704364805562815 1.074007640290247 0.47947628679745813
Ni 4.071194624286765 2.209251190996326 4.427662309252711 -1.8250782957650826 2.265876706376369 -1.024268878304223
Ni 0.9981349826500544 8.861020971336163 10.790825183222957 -0.9230563739189392 0.9757974130663969 -0.3685563253164233
Ni 1.5765998894025983 0.9032511269465412 0.6323652845257764 0.42429321386741126 1.48409242386776 -1.058303856401745
Ni 2.266906696081045 3.999819526297424 11.341533517484402 -0.20013646984670694 -1.1810079550019015 0.6296171414523286
Ni 7.317303818390909 0.4770423318213879 0.8400450454721649 -0.9184073051827022 -0.07498005305131603 0.9466596151601762
Ni 2.602792223782951 5.591633678443613 7.348824744550523 0.3702655946980462 0.4784401322234599 -0.1796630324837035
Ni 4.664901472853992 4.031687363481392 2.946468487361562 0.3587419103291628 1.5292291683053987 0.9719155615134875
Ni 3.484370638064424 2.816428520828346 1.562743746413923 -1.0737664708137185 -0.9057914161909045 -0.7293445766516536
Ni 0.676171105071742 2.5769122923118934 2.0838105634429036 1.4622506454023203 -0.2847368195966064 1.195270635568503
Ni 2.187504667475013 1.3429700766717192 3.4831730569218418 -0.06480079852546905 -2.075816389818741 -2.4421451113562265
Ni 3.551446253677468 7.034728181612272 2.8683627619183403 0.6818622147999741 -0.9962240563518651 0.4276117367176829
Ni 4.102232089337972 0.911117518950899 0.044503333137484974 -0.5374315231560035 -0.9011269208356996 -0.1598627099283247
Ni 5.617126102919383 8.846101952017554 8.066965625119126 -0.19764121422867897 -0.5641517127596671 -0.35981637434026414
P 4.119190133560362 5.012661322054382 0.665627224257081 0.9922607008287426 -0.48308303031211 -0.8687914419277876
Ni 6.659833616384652 4.228439427160644 0.7821007554123852 -0.4944933290315806 -1.0993651452184292 1.3691049771855712
P 3.1487342220023478 2.4814010443302936 9.831467656537146 1.2759238277451963 0.796315386245248 -1.2749388381241076
Ni 1.200487445046928 7.172846746361551 8.446244555207725 -0.506762890427553 0.48240143086405307 0.9675503425662562
P 0.22613339764345144 4.431566903548094 12.730308766270637 -1.6515254899441751 0.09951840451231247 -0.44068322518966047
P 5.541820576834972 3.1561983448401674 6.872846211694773 -0.03688761705496873 0.041452610717831836 -0.025711545833491202
P 0.587340662216058 1.352666977910964 7.066637537402879 -0.7174671084877773 0.4225983426634915 1.1190158295698212
Ni 6.2515765441340925 2.5051127818991414 4.60272505282424 0.3347391196566622 0.1692670339613601 0.9741827602811095
Ni 7.782884246873082 7.035014198680224 2.57371166905795 1.7071227675935052 0.2945664040925185 -0.6840131997047059
Ni 5.685585672087028 6.252130125555933 1.6575934645964225 -0.32666739839212133 -0.8592179393067395 0.58395640619042
Ni 6.558906496826043 5.30327311580674 10.350321070514466 0.8803819749788644 2.1252409629984563 0.7383804616016767
Ni 6.518421242175419 8.980400804956131 5.666128207745026 0.45619494767201435 -0.1250448309181911 -0.7763651683755661
Ni 7.5392991949061 2.433387082342635 2.6781632570022786 0.8262617960956931 -0.19781887745712382 -0.6757941542290232
Ni 4.207560181200215 3.114550569203678 12.658725152612401 0.033462136313187535 2.437516097224647 0.6187434319626183
Ni -0.006059871297750623 1.7598261136748723 11.890067199393718 0.4789749216810073 1.454051911641612 -1.2851738855885544
Ni 6.128967485553386 7.199944556960659 4.043158493177637 -1.524897116588948 -0.004406870818444024 0.5414139048425193
Ni 1.62954072604464 0.24560839206381077 5.60632019356505 0.5472749916089864 -0.590398305161022 -0.15770761125853483
Ni 2.957564104326658 8.833498748313644 1.727745147643495 0.08787362118453253 0.5738434861261342 0.20414379123388712
Ni 7.1683904159157334 7.218111253954068 8.992131195284937 -0.4315856337637664 0.9945834354246483 -0.44366056265042947
Ni 8.907826280552802 3.9948280671438257 10.586338664444886 0.6266655150231724 0.22877084575394793 0.33007282452924447
Ni 3.26559526015294 8.042606197286725 7.412291931928868 0.3706178358311424 0.34740540227042105 -0.2597945478289719
Ni 7.617889304093432 6.085474438510761 6.761589262804614 0.710710506490234 2.8118723170522992 0.8916269517650643
Ni 7.040900614465796 3.4650229673710884 12.097416656758407 0.8694409025863284 0.7911238147419795 2.5763235291445694
Ni 1.6928427616321355 6.0104641558513325 12.957953441195713 0.36038355969764385 0.2334242853655593 -0.6502587289620801
Ni 8.783842494774525 8.421588038678935 7.363246463225179 -0.12609101279451834 -0.02831015979860286 -1.2969330830070116
Ni 0.16962749664475488 0.2167584962645775 2.459916549348652 -0.7832025030123737 -0.3555105478760587 0.3290706085169752
Ni 5.4076601192518545 3.5158878736812276 10.569485800692645 -3.5563223818868237 0.37930430786154673 -0.636382228090304
Ni 2.611428093963667 1.0126295895452526 8.17675097006289 0.9645382952128098 -0.37733484284000174 -1.3791345935074313
Ni 1.7390114522136584 3.195797869215846 -0.045207304178925864 0.07305686788667418 -0.2426041520926144 0.7953342532789013
Ni 8.67141933435569 7.075481000616786 11.593809797774286 0.3760420921705072 -0.6985268199398487 -1.0912103773217787
Ni 8.784128511842477 7.918899202219367 5.040838616426078 -0.7117798282950129 0.026241707305348354 -1.4797639716957354
Ni 2.682480269456934 7.406042920311989 10.716082464917418 0.2989406219008142 -1.6216238172887363 0.057646446868874913
P 7.352410106892647 7.847339577089413 13.11296269776106 -1.960308551856708 0.47513112245488487 -0.10758884022527276
Ni 1.5271097102900306 7.238621445633269 6.012741220766504 -0.05003315329799125 -1.6103245902258332 -0.40534726889252776
P 7.186861582691154 2.4350847320362803 10.361745145789854 2.173862580660901 -2.2452178924754365 -1.6049931507105908
Ni 2.568082668633532 1.591334381580594 11.644502171207952 -0.3126615710313325 -1.4280693715349213 0.7051546096690114
P 8.826265284401591 3.3993682107407697 4.1725507694473 0.4505907141113594 0.42879855793693245 0.3580672528596414
P 4.821435846236509 7.7064531052309295 5.8109958526622485 -0.46942687298125607 -0.20025088393738416 -0.12279305876953692
P 8.697096285972071 5.938572381868274 9.615462031006272 0.8062858671943984 0.1963122110046103 -0.029579770539645833
Ni 1.0763191321280365 1.8097683842819432 9.566497754244454 -0.7066792738436539 0.7561912645308525 1.4356140166513984
Ni 0.09951087375439913 4.873573989816881 7.814000135959051 0.1476232304393393 1.8683558755067955 0.2205656842353363
Ni 1.0401056807826177 6.053929523822865 3.675033306103426 0.16337226574347993 0.5928529373491015 0.1658793484360498
Ni 4.968319450164934 6.346395815338391 7.513489383748476 0.5795089119420277 0.04614487398717859 0.8945878341656013
Ni 5.32958668605824 8.444773873897034 1.1586791307981046 1.486813679453665 1.1073381361215768 1.2912144353556794
Ni 3.8494391330543705 7.200590401952807 0.17650390053972065 -1.751039009360481 -0.8724951160316199 -1.3491853554435087
Ni 8.413422712706785 2.4348171676823904 0.4308265868190087 0.17125629647724697 1.0527525875662127 -0.7229276173817162
Ni 4.110388188953093 5.5663442338225195 11.266669011266059 0.0646879270966886 0.034369992839437584 -0.4438626513589065
Ni 1.519488739382689 2.5212865857739235 5.1392672385007785 -1.1757112253793365 -0.5427475360522782 2.7078861065766207
Ni 2.0170477213332 5.26349829064748 9.641402856433732 -0.4516808618517447 0.7746407294852917 -1.3515883084580465
Ni 4.2690169453815745 4.244871569032285 8.531371538351294 -0.7221357176080402 -0.7907029251544769 0.23636305627890908
Ni 4.61846521791858 1.265763921038989 6.322137877433327 -0.051606411322382084 -1.1006805215957431 1.534130462261758
Ni 8.095777692854533 5.533092443083949 4.731523151701126 2.4089303151671544 0.37160308256254715 0.04946005440334063
Ni 8.915170460749223 4.6076519274786225 2.2970888778355087 -0.0034095399021812248 1.0258989577084783 -0.26878775246651776
Ni 1.1332180759362402 4.623096849147981 5.693081164538752 -0.5083078663171698 1.672619591610313 -0.5129001136735424
Ni 6.761849446072881 4.730500871342126 3.3356989661434526 -1.0054118934987202 -0.4012404458130057 -1.7446770716981952
Ni 6.660027369882297 4.596691015326175 8.075189077140571 -0.2669031338492952 -0.8605178890650858 0.8610426512203042
Ni 7.497199327775107 0.24259875440040296 11.214247618524844 -0.31123409455618656 -0.05521958259493716 0.28852842542855467
Ni 1.8586034920453325 3.3825301091597786 7.700434752539817 0.19388534673067254 -1.179257290859382 0.43302056643808007
Ni 5.435090078704066 8.230786975284474 11.701731418597852 -0.07839550649076821 -0.8982208029324982 0.4328292763628804
Ni 5.901574690175246 5.982748179331169 12.729349225139444 0.4404016893934996 -0.17175946136591064 0.14411907394082277
Ni 7.699441073887614 3.4588689872316247 6.214419236464434 1.5659411790144517 1.9051025961085253 -1.148413566005648
Ni 5.853643765400864 5.216342379863674 5.536600304027013 -1.317568499869176 -0.7736061175731902 -0.14731264117745596
Ni 5.3983138195797755 1.5802350740726863 2.5560487311584166 0.4776947694170031 -0.25042339102671707 -1.8044750176924342
Ni 8.545820936097043 1.2318201535231172 4.784970515344152 0.024092265062513347 0.255819622341624 0.3468150769845898
P 1.6266990080791905 8.14362558041564 3.4638622916566293 0.2966374276889343 0.125780423532635 0.6007526518121524
Ni 3.862088468543433 -0.022706987288206547 10.055967066350465 0.46331510365656337 0.5337954690653129 -0.7168353884410492
P 2.184773665793932 8.421827923961734 12.647341673307949 -0.07015126420410499 -0.026516558233289817 0.6536286738755775
Ni 0.875501935541068 7.244231070707922 1.38909909391801 0.32503191967122735 0.446266889925025 0.34222257251790095
P 5.810787336993355 2.1859085077087053 0.39633661896692074 1.0811259965025832 -0.13581209673702416 0.14064859889371906
P 4.85306379813768 7.1205794337827495 9.732499292576152 0.34006747384811115 0.1121556336603488 0.028622291722382964
P 7.310836142112402 9.11606515873525 3.4313725980087924 -0.3987223073768424 0.04068230821071058 -0.09807755830072787
Ni 8.422778238735894 0.4709317155599685 9.116905679860745 -0.8239506314640132 0.5399607173357603 0.25189226226275974
