# total energy = -340857.9825692847 ev
CRYSTAL
PRIMVEC
9.34283406254033 0.00000000000000 0.00000000000000
0.00000000000000 9.34283406254033 0.00000000000000
0.00000000000000 0.00000000000000 13.67418203866823
PRIMCOORD
 96 1
Ni 7.367105072236216 4.881406655069166 13.194997825689045 -0.5548363488960122 2.1408838117420355 0.3677477133721989
Ni 3.4232798602499015 6.151228626063184 8.57237179586219 -0.9278067441197311 -0.6696607876377758 -1.1574247683653227
Ni 7.487739747762466 2.6046607253668443 1.1494339462913346 -1.0862602324053552 -0.7575979150703921 -0.5496383496348405
Ni 4.896046876301325 8.538546998830341 7.206622274452608 1.677460464642382 -1.1307256618075816 0.3875588345608551
Ni 4.962493113316713 1.192108275902061 5.9146858148456225 -0.6274471303842033 0.76343637612904 -1.3734467990940347
Ni 4.0374590965993935 4.190083636515504 1.2727257238714622 -1.389504623887846 1.0803662355184231 -0.2107312146434177
Ni 3.7924245833538106 4.509403024692098 10.155336607325985 0.08357782202265605 -0.423103050214052 2.5013473327479954
Ni 0.08904188159099496 7.805545596794446 2.9591343958856484 -0.0819459428461879 0.5970731460780362 0.5433682003554126
Ni 2.166061372626772 7.763979327322924 5.505499572815877 0.030177294914328672 1.9372758384069606 1.3795950780836175
Ni 5.88094977473892 3.6463960844012635 11.332601922493184 1.3703601897489108 -0.2878596814963042 0.2579178996315493
Ni 0.06779721084446923 8.620960139537981 5.337812515560591 -0.6886172741356205 0.6127409345222801 0.026711704963231418
Ni 6.056922057385831 3.4623142216461744 9.167281436620534 0.20400520877349382 -0.5025385679335603 -0.6573318337587776
Ni 2.7340683222313187 8.298623015906387 8.004920744894092 -1.513434367364987 0.6763721382196802 0.7259000697464789
Ni 7.777769350640516 6.433989503913398 2.059947330054588 -1.2884096189170327 -1.4715325849248786 -1.656783910129637
Ni 0.7914305530019436 3.8006089061357957 3.9271155529730937 -0.2801021490380724 -1.2252998349407414 0.3551037993559433
Ni 0.22342360339739722 0.34482532561360285 7.548230862242194 0.2425635286626661 -0.0073438419595809 0.12965353333479607
Ni 5.147266345804526 7.208033976704157 9.651962450613558 -0.27052684664481147 -0.4349792328263476 0.37495940062928973
Ni 4.157131460200365 1.3386786592397169 8.118293235376465 0.7014591630952952 0.5971124839564039 1.2184861544530177
Ni 1.8929049283608976 5.065824859856391 2.3677666235823853 -0.8307398864717047 -1.3100192267670085 0.9434133403087366
Ni 5.5056481238800705 8.694039788853837 11.811170854335552 -1.6380796488519145 0.8555554028534879 -0.2711724506486104
Ni 3.915114682409783 1.5138194296405134 10.798802826123753 1.2864275554899975 0.5457858086579697 -1.1650257206410322
Ni 5.743881053809116 5.6181638764639175 3.635842418859562 -0.7853030942951443 0.17386339508279092 -0.7879783271344624
Ni 3.6839449351556004 6.916948633558568 11.69120699430673 0.27525561957904854 -1.8735333059426766 -0.6675272862345406
Ni 0.6337805025556617 0.5360170852146857 11.440176250054893 -0.9322434397348461 0.534219443976609 0.3028960070041364
P 5.98540266138572 3.2390578549814233 4.9513807462882955 -1.0423367915495274 -2.389484033517085 -3.5182906239250826
P 4.122161231692406 3.8390733546442823 8.24142992190844 0.6814372114474135 0.3174080845773824 -1.1325709425464365
P 8.110570448605243 7.4271514678067865 0.16145632110995867 0.440520474359551 -0.2706217203514629 -0.6866431811283852
P 3.576408913214217 3.008626191631095 12.223528988585029 -0.5371690135232361 2.996728463701168 0.702754741978267
P 1.1627530907639354 2.6424431469768317 10.42557902159677 -1.5941873183443382 1.688319775954389 0.2014176505519757
P 7.12334118444537 1.8084737354604388 11.393505990245702 0.30162151116708696 -0.5507498375314644 -0.670434946799639
P 3.337783584247678 6.275777949130132 1.7633543861327654 2.8098154345232706 0.12411486290475397 -0.2870888647685508
P 4.6588790294740425 9.127556639774959 9.697087405641769 -0.23855980681991173 2.5750312926957073 -0.8332094310581198
Ni 1.8208623336441292 4.01570897852124 8.614570575210813 0.3967399868394909 -1.7252428742329837 0.3873667731547071
Ni 6.871505087883253 9.198169780855148 0.5020848455892375 -0.05336118922995972 -0.11737163064364947 0.07632988221099113
Ni 7.8676661015631915 4.167913090897181 3.073600932255886 -0.42159921197501576 -0.8815603115576817 -2.3844924938397645
Ni 0.6913136757194356 7.512479572792942 11.659018127547855 0.1213766380379845 -0.49474195470727694 1.546969523007955
Ni 2.9522608727455726 1.6965372385986046 4.173510382881983 0.495101652039541 0.4780740071332928 0.29708017165330775
Ni 0.18457236155195433 8.998429327937266 0.582862990307326 0.4127988400745665 1.540234775387283 -0.23714158631614646
Ni 1.3042129437799634 0.34424700417501275 3.2876975842454574 1.0433431213268547 -0.4439189585181386 -0.0807102706668739
Ni 1.8968756329069518 3.143779631544566 0.45793154532053354 -0.7694224185091458 4.208804600862783 -4.951315025472434
Ni 2.6848129001917904 8.846421415080071 10.816825153345727 0.3399761996858855 -0.5409166534911265 0.4947684370698382
Ni 7.329350679128907 7.386454081918284 4.119853551638582 -0.07945994319954057 -1.0239780865366817 1.4757779904647939
Ni 5.696288656261819 5.62305017876412 8.018280997837287 -0.07649340437204889 0.6892561932712 -0.5137190100304121
Ni 5.26730307994031 1.7784832375949444 12.706364792818418 1.157201339500607 -0.6501926516108351 1.075262852853587
Ni 6.955263596719439 6.88099740745688 12.0034566598245 0.018425810805355363 -1.2813503980774064 -0.8923322053622051
Ni 5.241320657957776 4.700463984614016 6.002418765361553 -3.020431206634746 0.9537342626187703 1.024964618819667
Ni 8.406065609505509 6.570292112436667 9.973688552886774 0.12179264252948058 -0.45001195878975403 -0.202539937081877
Ni 5.934820556886097 0.8222058489424229 3.283007481464 -0.022240299455439115 0.308381712709056 0.27423489162401804
Ni 9.169917050155693 4.377678404939572 1.1391306687068898 0.9718494841622424 -0.01691503058778377 -0.6102197107623233
Ni 7.894685578144813 5.128412506336437 7.266761164082015 -1.1217684526142937 -0.5260772744854488 2.660052532033109
Ni 1.046145176789096 6.833479752583389 1.1782808812475651 -1.72221205782646 -1.915422747087611 -2.334187574937625
Ni 8.613924985365795 3.7478125499246095 9.267567419202534 0.6145430207280256 0.2846432314415356 -0.054304012759203255
Ni 7.950499669811001 2.651477667673384 4.832879974099266 1.3786903068811611 -2.6953344951638547 0.5991120308849359
Ni 3.0655894519070825 2.9857736191142727 6.6613501776536355 -0.43184428674179176 -0.663126843174 -0.7996269671169841
Ni 5.21983213923795 7.049046966680134 13.58684563596216 0.1280890170611536 -0.7871121224794251 -0.20159222845662705
Ni 0.9916110534118714 6.064144068242538 8.317157330443946 -0.8990001043006841 1.5149438620309779 -1.8422995447393755
P 9.175373265343682 5.795154528041464 3.8119380269182566 0.3966787945842523 0.28285194386906765 -0.47776881718804814
P 6.327509222239554 5.581726822982476 10.073619507768182 1.8358617595338316 -2.2203584102295952 1.5759286292444665
P 7.458767618827606 8.204223018886774 7.787405549861224 0.3873770575673522 0.37014295307725287 -0.5984867385961112
P 5.949628949134325 6.6417180800945195 5.762205154576592 0.2974118439611136 0.10197329381070826 0.5108432311445138
P 1.0667367834232235 7.972100302541538 9.591590924411923 -0.44405934075074494 -0.26025863194958404 -0.991985335680169
P 6.432279765250037 4.53429233507019 1.3648339236554339 -0.6851881938494134 0.819011285180867 0.5963894897474503
P 2.915777105093001 8.196533866318767 13.117273853479439 -2.4201418676122577 -0.1495078490565619 -1.1269304564312075
P 2.5180806805944034 0.8062025081966891 6.787522351025642 -0.7043336564296129 -0.33462367712472046 -0.7938090748836265
Ni 2.6254952456908485 8.230850096430904 1.6512665353564697 0.2211963758407997 2.3958140895001705 0.5993061491736131
Ni 6.974351007043178 8.80822790876414 9.778503665937494 0.16792208989769145 -1.0473833528344993 0.7592457350864601
Ni 9.264111504822331 6.304282936353691 6.036686412735715 1.8509510497667865 1.374541317709794 -1.1957488607565019
Ni 8.776994813946587 1.247828939225989 9.66790693150367 -0.9332821654120057 0.804349312293318 -0.45855444904312637
Ni 3.158886994488025 4.137324651641221 4.58007128849422 -0.0010618656056110745 0.1252176090506295 -0.52167271765985
Ni 7.541769358091486 4.911649409458762 5.056739887855018 -0.3713097196918444 1.7746227102176921 2.076732216764791
Ni 6.408801222840072 2.8300939724062566 6.975624435348183 -1.2369003952941473 1.050067584534882 -0.8329551489554687
Ni 3.3891224583196067 1.6651453155992086 1.0460732369655557 1.832615227572076 -0.4658008461928946 1.4868980116373554
Ni 3.4562974364046237 6.46969781632521 4.334374368302013 1.2930514885644182 -0.6774391460316139 -1.5513866782390442
Ni 7.795175050803573 8.990749518203485 11.952657801570835 1.514175873516702 1.305038485722965 0.35571880723212285
Ni 4.883798420631024 4.748560895209519 12.917617486069588 -0.7481678800057436 0.8408882877596163 0.28835539018580014
Ni 5.175444333830174 8.303070204997967 4.755525043841588 -0.4958228464762816 0.668109641100572 -0.3403163566341236
Ni 4.406444991521459 9.158780391758286 0.41391651899837456 1.6603232907414633 -1.1968022417216808 -0.8190979313574022
Ni 1.527450624776263 5.526921757412697 10.47570893291985 0.7073796423447882 -0.03280161991105318 -0.19280471207198407
Ni 7.2975850427604705 0.45576587634694427 6.1540791247855395 0.3395249710810798 -0.3565004225931538 -0.537956285311222
Ni 5.333282175244398 3.3469395617891684 2.835929506663823 0.656552789500908 -2.002880363780647 1.2213051119590514
Ni 2.264235874673693 5.10224322766938 12.766599913640354 -0.027952519348867992 0.19425867090969126 0.2017866038556202
Ni 2.1723491000608774 1.2728770777859235 9.389089663980256 -1.2018966255254526 -1.2199653101017054 -2.5875283967214533
Ni 0.27477929457093286 3.8810787373244264 6.3266067044533205 1.5845896473535743 0.1985858375301354 0.16703120265230587
Ni 6.587800583776212 1.0992498465297407 8.32973745672927 0.19821559867491026 -0.28357519518833746 0.4720473413232386
Ni 8.388314224476089 3.093337669558334 12.644707692627282 1.1717177879492273 -1.1796365285756718 -1.7974294236995627
Ni 2.32342272949547 1.288984123991566 12.692485078292254 0.7390366071284369 -1.0838593362733464 0.16052811142646545
Ni 5.166680755326176 7.615503005803162 2.120442181668007 -0.3232128641846176 0.1780869462458352 1.9363021616397813
Ni 9.084794487522508 1.8171158571194987 2.6522989028018507 -0.2777506180867604 0.00664038813465308 0.2441660972630956
P 8.368273845061296 2.516221456583427 7.364736663759922 1.6812484709299045 -1.452604123451492 1.088138166154358
P 7.893919465738281 0.007051971273792875 3.9726366441724856 1.0262141749560518 2.2716791719907587 -0.41804440474422194
P 2.201582828354065 2.846126275938091 2.2766693184616678 -0.0003599544425800252 -0.17680293732708907 7.50567207764824
P 3.6493857913535868 9.044097101634007 3.4058283801991367 -0.09042132730705073 0.17942571966191678 0.48518182182266767
P 5.51761629452359 1.3864485706373095 1.1934097327097444 1.4045643464344455 2.1571457821268525 1.8484097714021717
P 0.02591982499322148 5.317371328557503 11.912140732382897 -0.8950035815467811 -0.0664614740573436 0.8375437967674156
P 2.1181232902131115 5.697138854176385 6.074181075051541 -0.21705561419954875 -0.638409542932978 0.6814433820950005
P 0.41605509375270844 1.8909055618365311 0.029130957116701356 -2.2719550513599645 -2.928817915902124 0.5425305349454657
