# total energy = -381163.6050157591 ev
CRYSTAL
PRIMVEC
9.28470923493010 0.00000000000000 0.00000000000000
0.00000000000000 9.28470923493010 0.00000000000000
0.00000000000000 0.00000000000000 13.58911047810813
PRIMCOORD
 96 1
Ni 3.8260059113099087 1.256184043177922 9.120250272288285 -0.7420496829231479 -0.5377441693004159 0.1138286504873975
Ni 4.4511082564716045 8.080807556906759 10.547473518175869 0.6509652681108015 -0.8962940182234306 0.5655735328078582
Ni 3.061484369776113 4.828095312298482 2.1823700163387407 -0.7012678730200955 1.598689062869434 -0.5018153166142906
Ni 3.7898141140630757 7.047744365354965 0.9272472154454039 2.1696881375682375 0.9944469098467842 0.07499573678059987
Ni 3.362791759271811 0.23796338807527842 1.6183675583351351 -2.4997483636919915 0.3345365167275529 0.8771670675859926
Ni 5.811086066048282 5.987959780145812 4.796630360607924 1.3823867818961417 -0.5462066982454722 0.4897514434712211
Ni 0.0940958874289458 6.7473190232524045 10.262129329554076 0.16005708532731788 0.12568760670851256 -1.3634287527364002
Ni 6.683273097801235 6.252360449770765 7.154069143536554 -0.5031160377035852 0.5784061657961522 -1.0967120238662984
Ni 0.8205659044227992 -0.12753941069295122 9.432378062120428 0.3219077722199488 0.3372713991602127 0.1733661437313982
Ni 3.7523503116282444 8.003958017190998 7.804539171724878 0.24300858661988467 1.347490484239589 0.059012216868149975
Ni 5.91566903274616 1.1021228600797428 4.37063860856022 -0.15832184780376607 -0.5748248762027971 -0.6091665869074606
Ni 2.2501307540214275 5.799740151159716 0.10610287362689468 -2.105378419746574 -0.5476768550330955 -1.5843045120129875
Ni 4.967235967388539 2.7912621873564536 11.595696783238344 1.5174882257193865 1.0281383885619582 -0.9351151048556862
Ni 7.633925208705803 5.384750779752724 2.9110730059436416 1.3745456885851681 -0.15928318327577085 1.7038196713622011
Ni 1.5071218841707799 1.591779864493157 5.022671253340808 -0.9525042468664112 -0.16787246760667862 1.3480489278462202
Ni 1.7459524641041533 1.8277600386402866 8.2177969448285 -0.13878686309463195 0.47939401149629696 -0.8102232545755917
Ni 6.45040330130359 1.5996161592279765 1.1705112441179675 0.35955874980350333 -0.0007031967146116922 0.5006038128046927
Ni 6.800241866840642 5.7740864990835234 9.524431313481056 -0.34271802409708074 0.16040726957788504 0.7388838836006565
Ni 4.230290012777035 5.834075006526261 6.94922617083811 2.4902705061085433 0.1888794088756489 -1.2908261987783252
Ni 2.6748226467529297 3.190430413943383 3.5806082564168933 2.1035781333130417 -1.4092285846793344 -0.35699381728980456
Ni 9.044328275041728 7.5346530957855515 3.170148894726866 -2.3324371679054217 -0.2874477907698662 -0.6458474872682619
Ni 8.439652290563211 2.934534538130153 1.3308702456031467 -0.23800521986802237 2.184960747456592 -1.4654861216204826
Ni 8.784857786108942 4.814706761341598 8.820514784094252 0.9223009838101536 0.6495722444180169 0.459507299874699
Ni 2.8260984170306753 3.225600893156057 12.013847598196527 -0.880686907813793 0.14992153955521278 -0.15101143018528185
P 8.379050992299979 5.984459444701467 5.0344526211003 -1.7445042935657569 1.4726594994404703 -2.633321543796168
Ni 4.722778853557889 7.837028226862415 5.355903187642434 -1.8947153393369303 1.2397216667930262 1.2580618598631108
P 6.7690916667987935 3.4096238334927 9.708046655074975 -1.1643505489508785 1.9922866474252008 1.5519690331050755
Ni 7.151371006984494 2.774586849271458 3.3692028511135086 -0.8234173846683626 0.8272645263285946 -0.552858656344351
P 5.733178069460756 1.0642876692688539 12.663678838378033 -0.19173924692194722 -1.2124651450699182 0.08266765150356085
P 4.9397068040132535 0.5474366794895472 7.020854918457439 -0.9842825677192725 -0.6097116607776532 -0.8439414727636433
P 1.5094430615211412 1.542283078674053 11.261852986587161 -0.9523777485908759 0.05604619226129058 -2.459630412625183
Ni 6.788329584678587 8.805228438535714 6.574805408689793 0.8411777939755771 0.14120781383129874 1.0764985250329009
Ni 3.6403674315374146 0.7461601002214981 11.519367187249063 -0.4834653533521932 0.09801585182485699 0.6197145376266359
Ni 8.303037076430348 3.62434202311052 5.165561074087168 0.9518118487850769 -0.16205303271142416 -1.5722758629832276
Ni 1.8703025771177082 3.313740639503976 0.6505340926831942 0.5528509430348673 0.6187891975988891 2.2939500675738174
Ni 7.3621431951067 4.122596668429673 7.073132474742277 -1.1898492074426152 -0.8668150349277072 1.5292391956077278
Ni 7.177767435812803 2.6509052353348075 12.685938000697057 -0.1601427030625887 2.345308110330819 1.258012237572098
Ni 0.6492286625413509 7.760104409471443 5.29857103555945 0.46876867057196686 -0.6514936298104458 1.5440973436664824
Ni 0.23986768197351482 8.94635602143768 11.80151743583676 0.15482360484252045 -0.7688722024326307 1.0181645651786981
Ni 7.1566632913433175 7.763344773052546 13.144991674452367 0.6105868642937549 0.5200323538429495 -1.26554197029024
Ni 1.409214623532541 5.05250673853141 11.589282905983824 0.38054152270275754 0.5840358532781038 -0.6685541848371583
Ni 1.2794608096473452 3.4256585266289954 9.846737930230002 0.1734165373533594 -0.32527951690565915 0.8205863429774707
Ni 1.6841905771657404 3.7330566854920417 5.458922609277109 -2.1376066836526606 0.5130916608590582 2.594026088630655
Ni 4.864844192109401 8.107519665854717 3.02253037148235 -0.6315449546026607 -0.4312997270922314 0.5584898864881994
Ni 7.7167076777290875 0.1527473967178748 9.086834603152484 0.43927528909854024 1.4640576167040722 -0.41808734216701543
Ni 5.020140241557973 4.5135850660339285 3.2956716665378236 0.3809004487040731 -0.5184426407583264 -0.9250417797800843
Ni 7.400126941268013 8.099590524025881 10.830208703455856 -0.09951429074725442 -0.6986273500734548 -0.2219605077003339
Ni 8.574085597986736 0.8438166737058981 0.18894290784846854 0.27684867509778127 -0.380538437378964 -0.29952734764221967
Ni 8.360073046283427 2.521727073432501 8.780128155139847 1.4662343126404167 -1.5348537135810278 -0.1669406998210286
Ni 0.5428908857665997 3.4640786541321757 3.117436814042042 -1.8297389344655455 -1.0951673050869977 -0.3425344473313649
Ni 8.014041211600967 1.3009641966210919 11.255982264832628 0.5313161542868851 -0.4851455692680935 -1.4554680752628482
Ni 4.311001991603797 6.239891085044625 9.234154158754274 0.39514770265170657 -0.9434575632831106 0.47288809205697907
Ni 4.657368075824708 2.249406546688115 2.5606773578425037 -0.23447895188231874 -0.034345824469721495 0.7844525733693909
Ni 1.1741072120691471 9.262983181445762 3.5740040426196455 2.4444531906641127 -1.7463094650952955 -0.49121825782473466
Ni 6.7690916667987935 1.8810078470575744 6.325853567037904 1.6893821557806323 -0.14283609346334109 -0.47859799795756286
Ni 9.190497455148678 0.6041309720366516 7.435295563538807 -0.4325968486371002 -0.35456643879523453 -1.491722172498876
P 5.930431720694458 6.624324477811461 11.50959595907498 -0.3803162940658289 -0.526931394955628 -0.023297279965043747
Ni 3.629940702879592 2.3522532727279226 6.78796469559911 0.4137282938673713 -0.3901319946046701 -0.537860640273622
P 2.6952582921455104 8.22621539084279 12.88269399150684 0.7508778227377391 0.4294220504535443 1.5581656488340905
Ni 8.268015152568097 4.695732495071479 11.4332663630857 0.27938789657986723 -0.5452818724383577 -1.1032508534260805
P 1.9470499850300538 9.003252720649735 7.359712458185402 -1.5349879251660468 -0.018883210057748127 0.0016889576666487042
P 6.948787932554362 8.905744702515758 2.406454620800739 0.285361854775115 -0.21468968507053346 -0.40038863933567176
P 9.488880161182921 2.85741574184175 6.876388554054714 0.03791580120916696 0.007510192334116097 -0.07883593646229649
Ni 8.481173511006475 7.455445239881822 8.029017447865497 0.6277255808565706 -0.12149156634929398 0.08277486650538649
Ni 1.79045407626528 7.243716726691267 1.9340838883509357 1.209887614150729 -0.002479314778427988 1.7898595817721046
Ni 6.833249008762778 5.202120545826298 13.098462281757966 -0.7264968227902133 -0.26825270589865413 0.7068247982825826
Ni 1.0642226763030438 5.582208694593258 3.5631595020387574 0.30190227563229943 0.6648955050386485 1.1347327260844458
Ni 8.677665816069258 0.5583359998559037 5.209983766218382 -1.1660613609943982 0.35028683758327417 -1.1084213418834266
Ni 5.746455203904823 0.6340045245358014 10.262835895939526 0.9200209295267252 0.41953487324681943 1.9902022540923465
Ni 5.946995642266636 8.135958730751343 8.591240027076847 -0.5679800853668219 -0.9448547007409533 0.6518083328373871
Ni 5.318968613643485 8.841030277987686 0.9197609542550186 1.6103796118334848 0.31650819847093237 -2.1745716909127837
Ni 3.149150595944558 5.185844450245565 4.987407927034118 1.8897109441438038 2.0775647399684156 -1.3782696744039746
Ni 2.1999933232536235 6.514170685472715 6.900916899351452 -2.2982859759450096 0.6522397639478509 0.45091621577157825
Ni 1.9672256585593941 1.1417314303863078 13.240115379212051 -0.4183279974229118 -1.8388897477268782 2.019635728862115
Ni 5.9035710563960775 1.9420826655002805 8.37030758145664 0.6371705283195542 -0.2148922879996428 1.0086275722225404
Ni 5.063583396847335 3.989797469860803 7.835888993018858 1.6575932934048099 0.5436672196530702 -0.5618613740635937
Ni 9.298915006829354 5.579079747524971 1.0053901151807867 -0.34874211880397354 -1.7007243202663291 -0.014756332373568134
Ni 9.316463107598086 7.7753406175992135 0.7996279562516002 -1.3679212412901152 2.1420909446762595 -1.978323757487206
Ni 6.432845915825458 6.696522378117098 1.3282241034237348 -0.9547866151426847 -0.023281596235759903 1.7878062987875016
Ni 2.158555665194974 7.904630196014337 10.888206569202925 0.7009637115161154 -1.3504246271672484 -0.6453625772120434
Ni 5.5148666973045755 3.5840278148894456 5.433497361052191 -0.47707153401070745 0.30249671468318867 -0.3113536508531864
Ni 0.09290280227086009 5.365095049949864 6.604063384955627 1.6341024093717211 -0.11829697067139627 1.7162203590193992
Ni 8.734228265742862 1.1220942700022514 2.7466175906705446 -2.7254516262642094 -0.9728403873206019 0.2185206287808495
Ni 3.6662810554768477 1.2876313539206168 4.701574434226869 1.0922853555535126 -0.7181548785834212 -0.39476075162593305
Ni 6.8577792110013975 8.236902091363854 4.495821560007084 1.5377042956559452 -1.3892025192663946 -1.8587265799471473
Ni 4.055588920679443 5.31405700237012 11.59124012272565 0.32463262735027965 0.9369452160858897 -0.6290088184443683
Ni 2.708962523222044 4.199789742393287 7.918334427090871 -2.4396719672253853 0.7887298605885061 -1.441191510739176
Ni 4.085337129601673 2.1178050756320315 0.26019376779515857 0.718012439468286 0.05261711197508357 -0.15468913614718519
P 1.343386033876295 1.5476310712892851 2.127429605397569 2.2392303074334334 1.2052629708945244 -1.5006894089944929
Ni 4.2112006502476635 4.663328859260436 0.1481821051051842 1.6724221308875264 -1.2824821976890042 0.7282865677007845
P 9.446263345030289 6.642346098759666 12.349661610182697 -0.8468427055708383 0.08320604050553411 2.132336693502973
Ni 0.40130835210396265 2.8981291925670867 12.633089434784031 -1.5540909645440848 0.1642916922339558 -1.2656245027017172
P 6.426764431167511 4.33382380731255 1.5807802692652648 -0.4458642551699676 -0.9449688577213143 -1.0297916078946652
P 2.1658070232375026 6.002648190418898 9.287667509860443 -1.0086885073674627 -0.5135043229164447 0.1378376118074852
P 2.7353868061785565 7.316759535552436 3.962720471833368 -0.1212370271363267 0.15849719703936574 0.4507238972551141
Ni 3.901991973051336 3.8805071554963915 9.68020274005098 -0.06213687854006074 -1.1358640114754115 2.554844276224871
