# total energy = -381171.2956452332 ev
CRYSTAL
PRIMVEC
9.23219209044984 0.00000000000000 0.00000000000000
0.00000000000000 9.23219209044984 0.00000000000000
0.00000000000000 0.00000000000000 13.51224632864849
PRIMCOORD
 96 1
Ni 5.287184189821477 7.054668935098925 12.654151415981028 0.2204024191845946 0.3587493665283305 -1.5849046074908317
Ni 3.4502548943059637 5.9069689533327745 0.10462935818971132 -0.032319795178628215 -2.705864962381533 -0.41532623448211053
Ni 7.811681004478156 6.198069207727405 6.8991369616217115 0.886305539552151 -0.06324605244383946 0.34307592165713174
Ni 7.938771363236092 0.6249510983043345 8.015707837499441 1.8625397830456505 -1.1109690480059449 0.6168752684056279
Ni 5.571378764399825 4.33913036584556 13.125026457528774 -0.10815191181759437 -0.3444951706021615 1.14996882630791
Ni 8.974734121985586 4.652987974180211 10.612775222696047 0.6371332473237156 -0.727915814624927 1.784738458495455
Ni 4.4584102899449745 1.182191452078489 12.272268245359868 0.5105848352768045 -2.3863516585356903 1.730922441116264
Ni 3.6009519686925526 1.3604096916152608 1.0063006482124188 -1.1667200776243196 0.06844019505026923 1.2967286803056892
Ni 3.966648336610656 4.4259591341238105 1.9755986698156693 0.8049414373513621 0.6868401276305397 0.771362315844336
Ni 7.104522773344811 5.713406810246991 3.302730924401802 -1.045143150650071 0.18192611748626733 0.36403735440014723
Ni 6.047159792918658 1.5825639341542856 8.469664886716524 -1.617262197885931 0.7009927649818378 -0.7514493789704929
Ni 1.6470323327600294 4.738413449233762 1.0996067225857267 -0.10431248346684616 -0.4861387864192983 0.9379291772657138
Ni 7.720522338026329 3.143579931555628 12.266052210305988 0.8437537822328695 -0.28578402991419816 0.9072554023309407
Ni 5.539610790806475 2.0263738808498766 5.939794012940783 0.3690785163684805 0.09327113805102001 -0.8997657788221151
Ni 5.818783052791164 8.170028547351125 8.14561493811827 -0.16177046847399879 -1.4579936698981795 1.6635073448963995
Ni 4.666503903660207 6.451142062171146 3.5270344213007605 -1.1129799077883864 -1.299553294238678 0.6663494638763557
Ni 4.573831157676466 3.6619767595824233 7.1318722197188125 -1.4358248471106239 -0.3134542421359569 0.22962136667970134
Ni 6.800174323045949 3.827011428560839 7.060932977552598 1.372164332837185 0.07792910837731094 -0.020260807131565105
Ni 9.034327923073954 0.916837012260951 11.418010725166676 0.781893297282647 -0.8343864820853565 -0.10052910516501395
Ni 5.276973385173338 8.78719136825838 0.7811579450363211 0.5403021598355792 1.2066436532921347 0.5324122155645411
Ni 5.3253500726563825 4.452455525932272 4.935132078855891 -0.24090105335857867 0.28880404768744455 0.3855500316609424
Ni 8.676718955582405 4.0995642086895465 2.8284916719916855 1.7585839115872746 0.06912179449832612 -1.2886245631413162
Ni 7.713071958866249 2.5098545577200175 1.475874873869638 1.6541354167631965 -0.25407744283953665 -0.043262410233060974
Ni 1.9813023181986893 0.5717358188537591 4.359577825280187 1.5645874932000345 2.240574223055838 -0.07660267625640355
P 9.171259798789318 8.69863618002606 9.61490910533945 -0.2794956258023251 0.3205381455659318 0.24587408109313783
Ni 3.6097687123082607 8.842999970516969 2.533560057805936 -0.2525671768425973 -0.7428552095435786 -0.5422813950491371
P 8.084510750374896 3.901145932470924 8.998062025407753 -3.244904710564921 -0.16182034787532776 -0.15133847450739743
Ni 2.221367013737162 3.5716674548192295 6.422181598246421 -1.4036611178938858 1.0983662716402696 -0.01118095631748397
P 2.600607007712064 2.8500331462100417 2.572339881426647 -0.5856435640848558 -0.5189720308992353 -0.6527141324811081
P 2.821570297448548 5.0101445642506395 8.072446121519393 0.4891896574304801 0.4464718068469795 -1.3292505641927945
P 5.8085814803352935 2.8453524247302893 11.394431706114826 0.8703305042801334 -0.017498928115711798 0.45463737337690735
Ni 3.559342478141774 5.734086920926766 6.07984913930033 0.7026557545065576 0.9308856401553709 0.3115760512766376
Ni 7.618469684698548 2.047072455914187 10.101282228047081 -0.7776874867314155 0.6291913667688196 -0.28279615093046784
Ni 7.156204585659712 5.639890863218847 12.062504528063398 -0.4700791618532743 -0.5139686641473729 -1.017760130651428
Ni 2.2815886038997375 6.811834581880126 2.1534734718000808 1.7518759034394797 -0.18475458807399794 0.14824158074962857
Ni 6.392342229617806 9.10491726515322 6.310029849796942 -0.20716843699282383 0.6431730257598923 -0.606420134510575
Ni 6.933561036930495 3.145315583701966 3.92584850932176 -0.3468343602582995 -0.7118191661733806 0.5288792627106181
Ni 8.812939952493153 0.018193881302067758 0.10679800015340733 0.8283158504112444 -1.066989299990885 0.4847442200646168
Ni 6.169634055542716 6.870532860318521 5.578098877151525 -1.8463258922899493 0.17519934028539502 -1.3235452862779011
Ni 3.4474852366256363 3.3562988735970056 13.462115954486006 -0.1399934818082234 -0.24027216152532813 -1.1034943368954544
Ni 5.828384532749631 1.974802854842189 0.604957862729281 -1.371350321576322 1.0428129598549976 -3.1371076109835845
Ni 4.308931864937729 5.063940548594856 11.172249766999 -0.19362257998758914 -0.03141219576269429 0.28104265857447086
Ni 2.753399789743434 7.24719707265072 8.442910916743791 1.3110643802020712 -0.0897942352460131 -1.2581395071785815
Ni 8.055466273500535 0.06774951973770439 2.265922496840582 -0.9830427817749006 -0.6763145455088675 0.4000564528072336
Ni 1.4071799776437153 0.6758795637301864 8.2854798813171 -0.24537451574889996 -0.532655956144231 0.12241073572945371
Ni 3.3816227769874616 2.5769633633143396 4.580786691330994 1.6322540433090726 -0.2528749378910032 -0.42001978330303796
Ni 4.4898828333857566 0.14824777377795376 4.521292597919118 0.08938388718147186 0.33110357978660393 1.9212342115630654
Ni 7.4493174579687125 6.098389227812437 9.383363876825664 -0.5215030248512051 0.28159158909940535 -0.046389128787500754
Ni 1.0898510650163884 3.223383001518115 4.309014954668139 0.9085072724601709 0.7221722272729305 -0.6713543732901147
Ni 3.3000655904941003 7.776404797823059 10.70256383181534 0.5603107417470221 -0.25166266275045696 0.5727541097166975
Ni 0.06095831910554269 7.061279184762639 1.4497422304365264 -0.27728036331856115 0.650882478589008 0.07502633290821917
Ni 6.148880087324798 8.057192693454605 3.171756582356821 0.6757062225009072 0.5662577033590764 -0.32278220440510214
Ni 4.051224449975574 0.4850926176400911 8.66845706672199 -1.6059843109792664 -0.6598908527352055 0.4138321664350873
Ni 8.75209057325637 8.932469145783797 5.919052969792041 -1.0067246987728726 0.1591687691850936 -0.33688187703127787
Ni 5.796524237233603 1.2914082866060486 2.621984148908054 -2.3416008366825607 -0.0032125934000267254 -0.9261172722324502
Ni 1.0362766532865975 2.3986528018548903 9.97360562508014 -0.3379206027084374 -0.515208450091745 0.2300754234979844
P 5.65469006742406 6.619131032675244 10.57323835930938 0.5359680512365995 1.1454956210279046 -1.2965330193551154
Ni 1.6507344418593997 8.33814676854697 6.223443888175335 2.2400528033347293 1.203651146322714 0.06360652110705174
P 2.340840813874199 5.984436278651519 11.738871874555647 -1.1196755746410074 0.22588426823477228 -0.14141221653262098
Ni 2.1925810382462974 4.460875285280466 9.958039225697476 0.023857266233571817 0.9100987853170067 1.5533599999153314
P 2.7603977914823936 0.6977127752242038 10.629962795040928 -0.18917585707014517 0.2639466223241325 -0.06890325072961682
P 0.8663950833676098 1.7003851718753944 5.905081893233246 0.16087778145640036 -0.7837964278426308 0.713783488988603
P 9.19360170407729 3.74417096734226 0.31317627254528996 -0.6589495718678586 -0.7267570184301354 0.5257710560989397
Ni 7.569852960216542 5.548178265230954 0.9073915563518093 0.22601359472378493 -1.3769098179419705 -0.12999523294493096
Ni 0.6048378442298001 8.281119516909039 3.8008593975239653 -1.9236315081506485 -2.038086993588767 -0.9974651278478176
Ni 6.767972436416014 0.7900863981784684 4.320040961893521 2.4539868411861607 -0.5377819645168868 2.243527135036575
Ni 8.934915676734752 1.519046451352121 3.943292736611686 -0.8504725890139418 -0.7759319374928895 0.5764086757501492
Ni 5.297930461621145 5.781364977529948 7.574573380123046 0.892104148511799 0.9260213700845342 1.3023766226200861
Ni 1.4480047318517346 3.3500394472394666 12.173506868575544 -0.7196815996405928 0.28808696701576186 0.3262899604480445
Ni 2.9295500182122285 2.7523934807862487 8.534537655343595 0.06791054779904433 -0.30786929184901174 0.7464084741124759
Ni 0.21068693652324458 5.621343388952924 12.761465495682204 1.2816913263565928 0.5937186277835065 0.16867182357952243
Ni 8.616072684575514 4.458724184482079 5.276018776492852 -0.6541084417254736 0.5077242258995579 0.5265148762434997
Ni 3.870430428796098 2.627629634479787 10.824809136071156 -2.7029321050054547 1.8995711247673348 -2.4000823778582214
Ni 3.2394747126408148 7.995106200453942 13.364111617467639 -0.22080351127775522 2.5677856668768873 -0.48545358742681555
Ni 3.1871097180980996 1.431876091959964 6.663469559260371 0.02514693157927282 -1.70371014236753 -1.1265944132480272
Ni 0.8174755429792216 6.569129479353075 9.968875972981369 1.0997443829347189 1.0662079417401702 1.3737165078156535
Ni 0.6863064016773907 1.4206959071237106 1.828098703611404 1.7204133140548241 0.4810893969208489 -0.21094127377169475
Ni 9.126529827252037 2.9146861886611406 7.598382280762363 1.1880792600263863 -2.9407182668841356 -1.9240084318740927
Ni 1.1730885105024813 8.184670804287787 12.091838895774968 1.2496324981488351 -0.8404928520934105 -0.5215966130062759
Ni 5.744426976266654 3.9141540913761927 9.34075915594842 0.3960799846579888 -0.008751778050701056 0.4746642101207954
Ni 0.5568775286180317 7.403350372667553 7.872113088624436 -2.2892745164750186 0.7198024414891733 0.1396525535290369
Ni 1.305191949661809 6.044916370197592 5.936767700315412 -0.9167656558142212 -0.47162233797067804 0.3227811759638376
Ni 5.473231328401305 9.028585499483409 10.484814268207261 0.5067117254746434 -0.6396565279662015 0.16781487489586583
Ni 1.6555721106077044 1.0079984483704592 13.059518514073682 1.2485958293542045 0.7673102572621495 -0.6040431496379661
Ni 2.8325473740549105 4.827928785461929 4.112128299146737 0.6130805772498862 0.5641139175431963 -0.618549056563625
Ni 8.401285731466158 7.393028781712202 11.542377587205625 -1.3126674630231328 1.9639314933212757 -0.8062012779003922
Ni 6.963362553570813 0.4856954797951755 12.570172625455836 -1.5717115058393254 -0.08452938730264797 -0.9890601916135742
Ni 2.8690237657048168 7.555201471087613 4.4211399297600416 -0.18114193102207513 -0.8347708620079687 0.5156463089601119
P 7.043156391341033 7.649637565794493 0.33443062558411896 1.8878196406583618 0.3593625746322972 -0.15822388877332105
Ni 0.4163552533297367 5.032864989421588 8.099849114608547 1.2328161979224446 1.28277736033192 -0.42765518836110866
P 4.102306169793071 8.349613151343524 6.6604700199925775 -0.26216021984767107 -0.12691607979897496 0.05704686561166305
Ni 0.8340962587188636 5.801731193672618 3.6149175059359884 -1.5259996056245073 0.40703468389727965 0.08351997220152713
P 1.7822285563290556 8.677531388501968 1.2017701622207204 -1.4577959520650765 0.9341655964582234 0.27033298546645057
P 6.1251718175812 3.945432758779352 2.0838045792899096 -0.09258388217600828 0.4996131667566492 -0.7528884254098646
P 8.14819441263788 6.894148808139443 4.7302595770228795 1.5804838527153167 0.4897321601975115 0.49611415246445534
Ni 5.437428886786947 6.431791387177929 1.3825457190156605 -0.143383738436695 -0.39772317668836665 0.7611784333327988
