# total energy = -340861.8767068907 ev
CRYSTAL
PRIMVEC
9.35760488318269 0.00000000000000 0.00000000000000

0.00000000000000 9.35760488318269 0.00000000000000

0.00000000000000 0.00000000000000 13.69580062773496

PRIMCOORD
 96 1
Ni 2.5638058714607865 5.379686896181874 12.748612446776088 1.5866393307937514 0.3039331900193991 -0.0910839005917141
Ni 3.3667912815290815 2.804689329595269 11.042964422224593 -0.29399021987407437 0.9461664775738414 0.9130534970699566
Ni 1.2023305448420951 6.028421551689965 5.931089362992894 -0.08041227981048087 -0.003200252104852553 -1.4751262158134077
Ni 3.9205275349323907 6.826016981496996 2.431058892317916 -1.2575890339917504 0.8816245891367139 0.6665533523570456
Ni 2.5828579544676162 3.9336749694238424 5.797226957379289 0.7501448012264564 0.001248784805436559 -1.140203776501346
Ni 7.271560610280971 6.082873452975201 2.315959419728376 -1.3391498255843777 0.8337869008281447 0.44577118123552906
Ni 0.8798618750654991 6.320958987328228 1.5919175695178984 -1.238361553220706 -0.5810834555179992 0.6764652121541188
Ni 3.9567882528358607 4.698846299221706 3.9691253187671984 -0.5311760291645948 -1.436660969858674 -1.0880826303260744
Ni 7.370049398909105 5.8247158567117365 12.473970494213589 0.4807271284854237 -0.22792726680673003 -0.024234189957016324
Ni 7.70900055346381 2.758780921328321 5.4616248895181725 -1.6848084203670208 -0.10660950703113897 -1.2177055675332513
Ni 9.183581247127467 7.716140405789061 9.217452032810924 -1.076086891416779 -2.846082387275105 -1.0087733537717853
Ni 1.6716144165476456 6.629759939796487 10.337206395681621 0.6902069872202435 -4.0209394921842625 1.0854253952088857
Ni 1.559482240383187 1.8221034140505106 5.726213967437134 -0.4746295002281181 -0.6387651265001838 0.22480414779671606
Ni 4.25402320599349 8.430219214360358 8.169886910783148 -0.2843925488833102 0.2800460989891564 1.0100177677018476
Ni 6.351567712041067 7.235075309866615 4.257257194150249 -0.8077040876981638 -0.22611721018118475 -0.34249973743868756
Ni 5.225679439341796 2.2605446209277162 4.25836700605821 -0.8106343739710813 0.5573364896100466 0.44540557036599415
Ni 7.359147789526514 8.048606740341933 6.327884550507676 0.26656143423916023 -2.3157810474059795 1.0727303162397204
Ni 7.549462752293163 2.8144399536095697 8.017466503686665 -0.7642457594042128 -0.6105580679383484 -0.38368701031027475
Ni 1.5406828127011043 8.40863122050144 2.3072222242944487 0.670781017285148 1.1560805956326023 1.7871766356233028
Ni 5.05723319857267 6.485128802785899 12.669354471403029 -0.46946441108741077 -0.5386844217264981 -0.23186131175381358
Ni 1.5346097273025616 8.773605873505062 10.194674169387355 0.8608037957366207 2.2832758756894225 2.037925785420555
Ni 5.499529738553419 1.9548223203795199 11.753475176154188 0.06889708008202973 -0.9296260567166571 -1.012234058626876
Ni 6.422591931108767 8.957763532431587 11.604876414784615 -0.754684598078339 0.052065867457303884 0.0797875017422884
Ni 8.025671251417698 4.096029409585184 3.273967586738047 -0.5294533900465334 -3.1294647497263455 -2.1991478375902513
P 1.4041740765008932 0.962495138425081 0.6589007571675297 0.6568921751181978 -0.5863832704643579 -0.14871852038604708
P 8.438276111938393 5.96357335167163 7.426191283588758 -0.4549464199768939 1.1709271737271318 -0.6547710150101368
P 2.573388058591923 2.4710532944648658 3.9029193303184657 -0.27814219709822424 0.4391094529446373 0.737377217148143
P 6.008386920198009 4.526151705954987 4.224825608057385 1.935371936516028 -0.16264875731389408 1.0408828327118205
P 4.404175329730026 2.437131977716459 8.371119390860244 0.39781599351248903 0.039528654222241597 0.7990754654888883
P 1.1919436037136173 7.135585257544115 12.462699259448499 -0.9337616761515853 0.23841711059446036 -0.7055585299756494
P 4.3934140844167375 9.44472391926479 10.53220764684209 -0.8798458999697362 -0.40622992860779716 -0.02144531435796952
P 5.2083491555850925 5.9804170399880805 1.0980110327750832 1.5480067060232179 -0.4281105307309723 -0.48408987431006956
Ni 2.3393824398533245 9.021750832824859 6.895192137891733 1.3964779698818852 1.4440102111348936 -0.11746290480587512
Ni 0.9090641518039141 1.487101168645551 11.562172986100101 0.6125360176003257 0.7209550670363777 -0.192486666610933
Ni 6.017304717401108 3.9306150327130207 9.55875101036485 -1.276521095009563 -1.362480529890518 0.22336407291607982
Ni 3.193001848521794 7.954385019420633 12.066273697316216 1.2685259926192283 -1.998579165302132 -2.739784497947114
Ni 1.0466761495888524 3.8651492307897497 2.9060162797047244 1.2700827955833869 0.10563325916079873 -1.573452142679516
Ni 0.4845030798599256 8.027187183366179 6.865361965883299 -2.712282692982419 -1.2087028498140087 0.29189554212857477
Ni 5.997223297886051 1.1498998861548329 2.3491723658070303 0.6507030155883503 1.4735084777043268 0.1132789486315146
Ni 0.38442349844634904 9.295348476711736 4.832864041072007 -1.1163483100399871 -1.77850199066744 -2.1099102461786567
Ni 7.9724639115469556 5.097882633043038 9.4739879561937 1.1004748333428402 1.0336940282728648 0.1250995954155265
Ni 4.752961326740613 2.092089022553971 0.3601994673659072 2.59025685139621 -0.1275863663931222 -2.7902768502697106
Ni 6.133217365832147 8.349238503976713 1.9495698969061732 0.3494437728566885 -2.4026781636098553 -0.4229852936892651
Ni 2.575811678188568 -0.02311983373525232 4.518820022735022 2.3957505832520867 0.18709480617140037 -0.7810093520157968
Ni 6.723373416417471 0.18910970329156157 4.683182604847869 1.617326475464963 0.13916712925218613 2.099441742547165
Ni 6.885755929392673 3.3744925901315477 12.965047291319243 0.2947589797192988 0.6356245239886731 -1.1847753924641338
Ni 5.943388998505751 1.2014883604262727 9.475918430026857 -0.057687327409139365 0.26381549606290694 0.22306968160411259
Ni 0.1906742947840674 2.7327106348563035 0.11093627429399089 -0.6508593386605566 -0.08674979199273447 0.11273310343037359
Ni 5.704405134109178 3.8064864074254006 2.0378944553957914 1.0716234563287865 0.060821502162746864 0.32010620023483577
Ni 8.484755334087176 0.7120669235779435 6.389117907861206 -0.33247680598504675 1.6166402480312156 2.136788558626739
Ni 3.785665737145344 9.337485770316722 1.9595544610359805 0.1145840405961833 -2.677641705869782 0.623221779448946
Ni 1.053759856286382 5.199655940892879 8.234722945915477 -0.017454190920705423 0.6475840103433943 -0.012882512389622973
Ni 3.605082683183755 4.467573101032221 1.2791574145348117 -0.4824469393900079 0.22981445652711385 -0.08018962227671352
Ni 3.639808753929503 2.064184645576385 2.077816803987165 -2.374503758058169 2.9238487448223065 3.262563304186949
Ni 0.7055596453250215 1.3582188802108444 2.8031602970003195 0.5471855172189738 0.776862676837275 0.10785366385088523
Ni 2.4017602322519127 7.694458835883941 0.39724435253655394 0.7333719526434918 0.24195237744122847 0.8256753274646038
P 9.722270472301412 7.2098378502058 3.8217991916259786 -0.14235735405470967 -0.1777915264926035 0.07005176251176322
P 7.635562072404086 2.8703703564248055 1.1452856513165877 -0.6115764819005338 -0.39747300835077354 1.4636745223330405
P 2.087148207314479 7.54112512657652 8.45463694785644 0.6512344626117881 -0.16086775415407134 -0.9079765967676814
P 7.803680797011502 3.1662952449355997 10.724852653159184 -0.4004670579820909 0.5572956090697821 0.2907578289797057
P -0.015949101314754542 3.0290004699472877 6.867087508175274 0.9584890036949363 -1.0605679698455734 1.7275231856267281
P 3.125851677766878 6.541658092296831 4.439233595439793 -0.6896387734215995 1.2008018497993769 2.0466359116000428
P 4.9453723929421995 9.081929588137687 0.13052361228509873 -0.3663678023055368 -0.07872357925414829 -0.8924273361791727
P 4.864120312024567 9.232034923851122 4.255203199936103 -4.01635984323338 -0.31950687608794004 -1.7204855620536563
Ni 2.5973435264197637 2.7940216603281836 13.336203577934999 -0.5983959786545178 0.8003715585924926 0.3982975611345979
Ni -0.07304078286336341 9.288919802337624 13.080722256592928 -0.006449612280085666 -0.026499846062741455 0.7732775305891779
Ni 3.8705204958417734 1.383596703940963 6.6630346460656344 -0.06960619033391238 -0.172751907186167 -1.202772857482819
Ni 6.302664870295638 6.914465060367601 8.49738155000128 1.2679246115898035 0.015355399410147748 0.013836134552143914
Ni 6.104283652346333 0.5190747501294402 7.310146692932573 0.16219007250992068 0.3196328601428431 -1.4003955597687365
Ni 0.1852571774694045 2.964985096740156 9.29325798783957 0.4642101046670069 0.18540379162222265 0.9731468628174272
Ni 4.607244707594076 6.988970308354033 10.13505687035174 -0.16925392133523753 1.0303014576515481 0.9147450258397666
Ni 2.097179559467387 3.022150703365265 7.810085141613602 0.44341399385726216 -0.7808430016412616 0.9804858196810017
Ni 0.15206201083952875 0.5630349051144519 8.725909226995183 2.3504415749026424 2.2307019582474488 -1.0979163285870446
Ni 0.34912942110015116 3.943032574044093 5.028823510945592 0.32696873168262397 0.27104955191750096 0.25903118730038616
Ni 6.874349009360588 0.6664476652937615 13.831525920256858 0.8736117461345665 0.9070710542342765 -0.2783679399557851
Ni 4.640529707228307 7.776777683728283 5.898452845358847 -0.150797771512579 1.3200542424055073 -0.6098139906834724
Ni 8.145027498348991 5.700671449865699 4.683840444452674 0.34378374635743375 2.3652459869053266 1.965215245129706
Ni 8.253921943314843 4.978339234019341 0.5570310659900992 2.1002637242278284 -1.3118210558624375 1.1297103331691898
Ni 0.5248605570661409 4.700886257028921 11.944573370427552 -1.3652046136899005 -0.3845730124596538 -0.227001412558351
Ni 5.377684368793141 3.325103152945867 6.467403628114221 0.04934975407772146 0.3597515825405998 0.5811719014667476
Ni 5.981240509194663 5.768682520245678 6.243696053260208 1.5441256258012568 0.09822308273965664 -1.5463421738366014
Ni 8.576141700808542 7.773259224391069 11.432678710323229 0.8745831089089001 -0.4284347468396106 0.5721905239037436
Ni 3.5538404402832637 5.843646290858502 6.654077546923131 -1.109207585230148 0.34215803782855264 0.3195978931398496
Ni 3.1770284174350265 0.6762432058102396 12.558720447738274 0.24572264311693812 1.3881020871133642 0.37263332359927437
Ni 8.6994562144942 8.777217908888478 2.06558735050896 -1.390528951387302 0.15792461236534736 0.5776872853522567
Ni 3.8604329980611434 4.812990360379519 9.969391709675754 -0.2683036137412476 0.6449288321087345 -0.6385172721554359
Ni 8.109262733490395 1.074748963449603 10.602562797179443 -0.008349400405959814 -0.7821239252362143 0.42381781689288944
Ni 2.6027802947041287 1.3410757485465459 9.618478729134983 0.4182390372535313 -0.5115006622228545 -1.2850502155264965
P 7.906118494789382 1.312151392665352 3.5656328936257036 2.542730780790789 1.6018756881275316 -1.2569472866426934
P 8.045790101351237 7.289779866476598 0.6834214243144334 0.22789332824500108 -0.224872024920174 -0.7558513646929306
P 6.673544171814638 6.914614782041524 10.913415872340922 -1.1481220029071582 -0.0469390877536998 -2.2055501415721697
P 4.714136625171196 3.8870460256011357 12.582797564426178 -0.8180797745055329 0.42804445337972735 0.30249594335224034
P 5.047679084255395 5.105181564646833 7.960450618735479 -0.2800381285693564 -0.3991005166518675 1.7876497186049793
P 7.717880920248428 9.047793046483015 8.616822015374154 -3.391358603286508 0.8285261666498377 -0.8922080210795151
P 1.7740240415116646 4.267722739157536 10.144479042443871 -0.10634211230236523 -0.3921343697466795 0.2583817266418453
P 1.4616765568923313 4.434503326304257 0.7648157408222943 -0.7002605148015038 -0.24307620663302654 -0.5374960578453518
