# total energy = -340859.3184962569 ev
CRYSTAL
PRIMVEC
9.41810897739754 0.00000000000000 0.00000000000000

0.00000000000000 9.41810897739754 0.00000000000000

0.00000000000000 0.00000000000000 13.78435448546608

PRIMCOORD
 96 1
Ni 0.5178085831375189 3.263610274839965 9.318361960664122 0.9852775846426902 -0.19179658252244386 -0.8571363741873625
Ni 0.5776503068957056 5.634986560798207 6.142294894039126 -0.06961544630529301 -1.003200487669698 -0.3459100486718172
Ni 4.981953708228108 1.3381908754669534 5.673392668120247 -1.013363544245629 0.2650041170543694 -0.8064938694401464
Ni 3.745713864361018 4.854658544892889 1.048642411236018 -0.47729547709605546 0.8375000880136738 0.4619045964622819
Ni 8.90844817781401 7.6894246374817525 7.895223507865239 -0.0918050950284548 1.7668613211047186 -2.185431516445423
Ni 7.994025123763763 4.481710840475061 5.0400427218726005 -0.1100864098361459 1.1028191652053008 -0.13152683909810894
Ni 9.163547082378805 5.549385366690941 8.478990876656937 0.3073560996580191 0.16349542158490554 0.9843393890991371
Ni 3.124090405821916 4.763274631764623 3.569196837150476 0.8440880256438367 -0.6359040029023049 -0.40001171561222726
Ni 9.384166289328162 1.3596453281214096 10.402156522509221 -0.026823547950747352 -1.6753675866690954 0.42169331435071894
Ni 8.493231999509792 7.1837381026372755 5.077411895376707 -0.19259156761991347 -0.8542526248816643 0.19245504204204922
Ni 4.7684169193631005 1.3099648023302524 10.400419823181092 2.6802796577132613 -1.9710364797971731 1.010778557127272
Ni 6.593910180604514 3.7073821601013 7.029621106240323 -0.037072993592897445 0.25056840124501367 -1.1401605819682363
Ni 6.045446593979292 5.245915053507495 8.609859270605458 -1.6516707572727878 2.069119951635172 -0.5759775017500015
Ni 7.123189078881569 4.21738218893864 11.837397245571923 0.70537983830594 0.37717389178210525 0.5868761509403764
Ni 3.339049329169286 2.744079119538047 13.983262558685846 -1.039409076379771 -0.4836633282956122 0.45907072655791265
Ni 3.43268417038553 4.761475772916071 5.9824648726289205 -0.029752548672084246 -0.49514741767581183 -0.058728624189460135
Ni 8.151806706432819 1.3993897487543356 8.173901590509795 0.8955118886417675 -0.1773294992545204 -0.8902616959864216
Ni 9.087768976119914 4.4575910629298185 1.5807486258813201 -1.4377099799484787 0.21760968693080587 -0.974303859240006
Ni 1.4317974623557332 3.4209962969245202 4.688045601269452 -1.6157940979808367 0.776812797435946 -0.2622350389496645
Ni 4.5117263543511585 0.37485392971074344 3.4697284191237974 0.09320557492040722 -1.5127987906635172 -0.010239675450137204
Ni 2.9228725037312855 2.2679183568936234 9.956370103699692 -2.317007720724229 1.1511535906446304 -0.9089345898055765
Ni 2.9092821722210216 0.32219163056120115 0.8240233333286501 -0.10220186488174657 -0.7836033379952182 -0.17164221906175603
Ni 5.714305876099274 6.2766423375094025 1.132188573925724 -0.9078570404706815 2.1843521673383153 0.17763031832439086
Ni 8.281305707310242 0.30196529934052063 0.3367670962890486 -0.10235535974047534 -0.4787286099981562 -0.26472155281694404
P 2.4497066997980634 6.574198078143682 6.951933007444855 -0.3279220967348288 -0.8354815149217482 -3.9305315346136496
P 1.1394593541931692 -0.04025394033819636 8.545665438606875 0.2626376737047219 0.548455642180649 0.9104302005144965
P -0.2017500252578726 3.7072785609005985 7.2429751837877285 0.27162650746689354 0.47869004345073685 -0.2098758086216579
P -0.04642751088911649 9.506545199684616 6.538429041384964 -0.03344465281169078 -0.4304767169703039 -1.313675592572673
P 8.953899972594698 4.816034879249375 10.70198014382796 -0.4230290024430069 0.18506826265967483 -0.42690159802453576
P 2.8560886917151533 0.7657676191521186 11.714426877960552 -0.004158759363379934 0.2662107357679609 0.7720498288296639
P 7.13448139175808 1.792398025671721 10.005566538680297 -1.2344375355759514 -0.08072441173426098 1.011869733308922
P 5.604509559573527 5.2355739696556105 4.392922558229837 -0.3499798478658166 1.8577040522199038 0.041213241013516116
Ni 4.859424108125178 7.656404746785298 10.315397842786842 0.47839436658718903 -0.5082009084256602 0.34918203455486957
Ni 7.168970507482672 8.317414737809445 9.418463275625998 0.19764455666278863 0.6141550412609874 0.08033360405374551
Ni 7.5012790708978745 5.967276287995102 2.7745014957296297 -0.10035041349530459 -1.5075326571685714 1.0653623059104234
Ni 1.6050247440385308 5.343976406026458 10.159800319630767 -0.7640179596641229 -0.6560789351882831 0.2747002612962108
Ni 1.939979796126211 0.8080991943698465 5.100225381182189 -0.22566238203195332 0.9822735077090438 0.4860415987198016
Ni 2.966685547519051 1.8278383704209389 2.7727365420740346 -1.4750969052373692 1.5699801249705154 -0.38810905063737033
Ni 5.345690501892618 7.502202045595037 4.103657579084459 1.2214714623335865 -2.134858431483562 -0.8207876603549992
Ni 6.444878021340197 9.266750722496246 11.650467556879919 -0.15443588248579854 -0.9473383863947555 0.06322214118443951
Ni 3.0454021038342156 6.728024054967753 8.742658376930697 1.9798566491919642 0.6271668801396231 3.955678723303239
Ni 2.819678281722999 6.208709516176394 11.79182584080497 -0.5850972046630827 0.2980592477371254 0.09387483307328995
Ni 2.336990769434353 6.732629510344412 2.5847454324802954 1.2485508350488819 1.9442661536818642 -1.4241191286379216
Ni 1.9907151501426974 4.65013488648895 7.928747267401472 0.6871602299741199 -1.3529016279528314 -0.34086631560032266
Ni 3.3501815341901673 3.9123767239629745 11.821159483578267 -0.010799404608349144 -0.881047119366689 -0.2011731386413374
Ni 7.103203851255249 1.8791953196416369 12.360830323496641 -0.022140283542465097 0.4000356268716272 -1.0689937320154235
Ni 7.691280004985233 9.159930528463391 4.348840156520247 1.5705462818866307 0.053152672763579434 1.9568195648668427
Ni 6.860084781535261 8.739496717687457 6.6741778994974625 -0.1502411276781606 -0.11178796590828491 0.17713589518647557
Ni 1.5633119385922682 4.599757420620344 13.617246582605892 0.23301110908754064 0.672382557444313 -0.9547693887515041
Ni 4.017030752890243 8.362612243642955 5.508820628750638 -1.927635487103719 1.2253666836229349 1.356484203097767
Ni 5.753409865309679 1.4542219802531258 7.898503835283829 -0.8652937131871743 0.005948761384267175 1.0410340135777039
Ni 3.3455949150318176 0.16443736040869586 7.672634032480714 0.23077810599196386 0.8190807049662215 -1.4960634801867074
Ni 6.92783865879433 2.028886746546785 0.9067774330384438 -0.061410284786681334 0.6856317091447353 1.103995444901589
Ni 1.683995589300873 8.226247441191738 12.037793888544261 -0.6183405400972447 1.4359076366324175 0.3570015305992884
Ni 9.361986642268793 6.21745893958113 12.363601131209961 0.16187511237266317 -0.24323252970523268 -0.7431642561435653
Ni 8.53391823105819 2.66731211181791 3.1311436277678872 0.41285180479968897 0.13028036828551756 -0.24883470638335856
P 4.229522131639076 7.725938646674607 1.8402806344252416 -0.6723581319642808 0.21887878345121659 1.2414293935127523
P 3.3742259668621717 2.534140048370144 7.594531536882436 0.34700816683200236 -0.16961773243255948 0.4655082546531402
P 2.160259951145999 6.953766713297279 13.802412259453217 -1.1877524728145867 -0.5935000840147973 0.3179557295507363
P 5.064672960934029 2.304648982597038 2.185468462109527 -0.35345752200177194 -0.44399789138519014 -0.7713569165276974
P 7.006734159183433 1.9791026215549252 5.883562482962441 -1.285079268992219 -1.245441857106255 -0.45552440396755095
P 7.244823958614801 5.184574908582793 0.18146247632768642 1.3522729932298967 -1.4293857763534996 -0.5181397648059269
P 8.300424468894327 8.08371377724418 11.518965324185286 0.5777803592866952 -0.29589283621342594 -0.7754943357348387
P 4.494170998886758 5.436876634728634 10.586026267536857 0.5120683618008665 0.2224772994357523 -0.9668026657669544
Ni 7.725609012854194 3.8705038106610816 9.054846091947752 -0.8279157867593484 -1.8583033763667993 1.31003439627566
Ni 4.8655835515123655 5.6054231161615355 12.756896660456565 0.9222603603802052 0.8267747311763696 -0.7711268027947623
Ni 4.955884382087838 6.430148098622212 6.4688876070083285 1.0464161038252235 0.3984603119647073 0.5693363422844001
Ni 1.523746462033282 7.730459339068874 5.4726645077056615 -0.5026858921447019 0.946197587922093 -0.3601249067196185
Ni 6.719886808658073 1.1296080120173304 3.1610969821235644 -0.9435470376731233 1.385748499279523 -1.4217614270390224
Ni 6.749892904425017 8.1824909060589 2.503776064455321 -1.2241559511442852 1.4728705870100116 -2.098343367276663
Ni 8.879073095360432 3.118251178145989 13.333703104772008 -0.7544472852565524 -0.03919621058348734 1.3472917379652216
Ni 0.7703250421720883 7.690601901126092 9.833427990415785 -0.02264447687239326 -0.13395061804825317 0.9994189091400789
Ni 0.792574383239203 3.303241678163034 11.583792994929981 1.7114589330750138 0.06250737450560202 0.3213107620658982
Ni 0.9092506285024738 9.049616215934135 2.3070327060240987 0.2852615817518248 0.8547359922759861 -0.26954674211972934
Ni 6.0677675126759825 3.2438322456150486 4.039491059602423 -0.0025546481010536646 -1.3225212158887611 1.5023166601852707
Ni 4.943631422077545 1.114181149221896 13.440187072308039 0.05015630913941685 -0.4453052973427041 -0.7780438416295697
Ni 1.1511001371084053 1.9720578759071934 7.238426237065998 1.4508524308677078 -0.8198250393314138 0.9062488154432974
Ni 6.972216789131379 7.113582607543753 12.971904557971538 -0.2521884533469399 0.719961849885173 0.12729454618431624
Ni 0.8802663975788175 1.139468772302324 12.979996597357276 1.1246306046534373 0.12364923612224511 -0.32037179519139664
Ni 0.5509932907441811 5.742013953232465 3.355070474652383 -1.2723615643152346 -0.7524143139869235 1.6622133086753244
Ni 5.422608199359232 3.4873092034829165 10.251631592943882 0.2235131968994344 0.32811750057508654 -0.13516700695385755
Ni 4.014817497238884 7.861088513044866 12.994317774137947 1.0199509676551595 1.5886049391605543 0.8610930448422653
Ni 3.1748163417292474 9.035394871110505 9.784603570746793 -1.8681093067136278 0.10521674044867041 1.6898603809686317
Ni 9.018724817906648 2.359292851912734 5.5415721033361836 -0.4137897432329261 -1.3849059487735698 -0.3765791956208998
Ni 9.166692730836482 7.5758234048574975 0.47242271512091466 0.9285510784849234 -0.3406745113044907 0.9844607451683497
Ni 6.746445876474389 6.213427988862909 10.601574623940385 0.8767145534296062 0.03890953258100396 0.6759435353226939
Ni 6.068831759010466 4.217137318100616 1.9149361020728903 0.16779713428405293 -0.7632764535124081 1.0588198768062154
Ni 5.495824579928038 3.614397168416732 13.526050089849806 0.06884720068070078 -1.2750069723578816 -0.8731492046758511
P 8.726932960075057 7.682568254017114 2.756926362236003 1.882032087442307 -0.10265026527307483 0.7676149329867619
P 9.64357868788582 1.8373600787763626 1.2615331178130111 -0.5210656802034703 -0.5376189565764612 0.33733953339398676
P 3.3690554249362297 2.8750285092252987 4.816570769660278 1.5097921426267094 -1.7185618626683823 0.09918364688071306
P 2.5688928711510672 8.700326801712968 3.786204199238998 0.26526019892923347 -0.16288966968010654 -0.6861785827871407
P 5.777002228742257 8.747172476648554 0.5931628744844478 1.1432531048506311 0.15475701327064317 -1.8324056826644313
P 5.302593234400611 8.28557211075733 8.220920558653829 -0.925466783132645 0.33992657739487264 -0.6235953607382808
P 7.660925439179564 6.0788997176968635 6.898890216685461 -0.7862184070205621 -0.033257733611865306 -0.2695994497345357
P 1.7242014972823805 4.196860129090501 1.922600559303003 1.4383231880524454 0.07060249280891068 1.21904254117712
