# total energy = -381164.43345899385 ev
CRYSTAL
PRIMVEC
9.29372291528355 0.00000000000000 0.00000000000000

0.00000000000000 9.29372291528355 0.00000000000000

0.00000000000000 0.00000000000000 13.60230291043096

PRIMCOORD
 96 1
Ni 0.5793883422153617 8.742521466732821 1.0937289886434676 -0.8583147107661798 -0.4803206370756244 0.6844927104442856
Ni 7.64418000342558 1.2030166640690336 10.544899612851822 0.6176103467994396 0.529384998702443 -1.326545763667122
Ni 5.710648840068683 1.2438254012212164 11.81762663347542 -1.0757122816861797 -1.5207884937372131 0.5894056022304495
Ni 3.6254069444703307 1.5064102473833134 3.7918593799390212 -2.4678468869977044 -1.616542289000771 0.11355817043483024
Ni 3.7264204184186505 2.7664717824703606 11.171571628947659 -0.45880384604977115 1.0331808360818722 0.8156511104593823
Ni 5.379216094834993 6.606433613275304 13.098024692961557 1.495032982039664 -0.8161115950355687 1.5131744288353812
Ni 5.7375076991827365 1.164122433829479 7.699487877637913 -0.6128178105068026 -2.8058240539756905 0.9938311306396561
Ni 4.804390041179869 4.650420934279343 1.7484940702513998 -1.1704322363685842 -0.27296296689012994 -0.6063573995934396
Ni 6.410298885682578 8.005789466840355 3.086348712678994 -2.4953903438336122 -1.3383283581243466 -1.0073818727408974
Ni 7.184150014745123 3.7571640536952207 1.8768998630069034 -1.3068498279000913 0.32039364956826755 -0.41201696760321943
Ni 2.9235264053659957 8.719538090058409 7.805735576310466 1.4676018824119046 -1.3653912757794098 0.021269450901737562
Ni 6.239638252495257 4.940199213579059 12.130098325295792 -1.8096660749750706 -2.943750625952556 -1.1775989293203526
Ni 8.406813608975787 0.14872837657027865 12.613265966450419 0.44424934527436394 0.1647416352871808 -0.08309136930454077
Ni 0.33015950519956444 6.597827625891355 4.468207274183828 1.0169803150626098 0.587985067733839 -1.2475355064104903
Ni 7.221176206686434 6.870142999905498 4.804360301266663 0.47995039822039914 -1.2446450722365727 0.59212582937509
Ni 0.007310442414918435 4.11946125260288 1.455337522685954 2.637645882203135 1.0242876473573004 1.1487403532174474
Ni 3.793474628975015 5.387403864689484 11.281015438917557 1.1462731226238774 0.6876279136391577 2.0853454123550987
Ni 9.12126855513248 3.1176443950944486 6.338319931373778 -0.018885266940277153 -0.9697365515842977 0.5656473234685871
Ni 7.345851499079176 4.881927571141303 10.19438220769055 0.07433804859194294 0.09820482790721151 -1.6095164925022412
Ni 4.703227867665519 2.6208949073276164 5.718408169298552 -0.09193262174525457 -1.0878633152264168 -1.907292661781309
Ni 2.2549917439437444 8.745179471475597 13.221084736318305 -0.05452152808664804 -0.6983324445408554 -1.8756192419374278
Ni 2.8249664742571596 6.3566369297917324 13.162758260915577 -1.2241832048377947 0.021176634077615143 0.2016811886260075
Ni 3.0042516822741843 0.5261985074466595 11.028665769759717 -0.37376538032118856 -0.04094970293948431 -0.0913168425381266
Ni 4.092490868814306 8.47874702404249 3.4907994504391153 0.1965433531788099 0.43295731730031245 0.001801829095429155
P 4.265772331852895 3.9733174603646497 13.318191129169206 -0.3562078310533994 -0.2822042829827398 -0.8301840139682348
Ni 4.996091662960345 8.0528714669344 5.706478746613848 -0.06756781974764492 -0.4292736978011381 -0.14902293900034336
P 7.482348406971252 0.8745476870607655 2.614063091640855 0.2231578704425447 0.9180046704276448 -0.43934676576642406
Ni 1.1121147606107102 1.514430730226022 9.454634394724552 -0.6909945161185453 -0.5712883238044484 -0.5988533779069105
P 0.3706857131762913 6.58245580825307 13.163207147730528 0.21965062862023463 0.3672311787470966 0.17678339694306328
P 8.754045683100097 8.86746627708899 9.826711378215506 0.005682395096757956 -0.6207175249698537 -0.3704746253850587
P 8.121161742633385 4.982178959813723 3.4370566391592408 -0.004687121063024186 1.4488582832558143 0.4749624580875046
Ni 9.030162189770865 3.37070317530779 10.977738956511525 -0.4867887612984713 -1.0436151440413188 -0.44114345265553057
Ni 3.9238655609370108 1.1062411277525506 13.162104912197336 -0.2708235519496239 0.2748915513714104 1.0103990623006665
Ni 1.3966885550993988 1.9804644638849145 0.17461418289912728 1.8757141156440793 -0.7479979300867827 -0.4730171614356757
Ni 3.003601121672806 7.491028744138217 10.141877320297873 -0.41002770508733255 -1.1653522507425158 -0.7796919187559539
Ni 3.4247554675594625 4.0280389006634545 4.396305457774906 -2.347599477468157 -0.21253972860706621 -2.4494215904129817
Ni 2.273560602251661 4.102249277834982 6.339135920242364 -1.0300183791934905 0.10393555974340166 2.515511282953203
Ni 3.3640116948364684 5.700583738193071 8.082800972086961 -1.0915777879635264 -0.6679612884481657 0.6079044323655853
Ni 1.5062801352630375 2.7187392217749355 2.6192183197206353 0.7514300956967832 -0.6638953459089082 0.2576042250458725
Ni 8.893925506119341 5.375768123647687 6.2072068771442535 -1.814783598707294 -0.1761835585755353 0.48435264105315295
Ni 5.545926895799659 0.4316172191013971 1.706082165902963 -0.744797163761298 0.46360512409315646 -0.5711919074359001
Ni 4.240958091771745 7.945770604501754 11.983574419791898 -0.43031576591240733 2.6325059898734082 -0.7914354324451273
Ni 3.733883277888749 1.3881847986670948 8.83247819857457 -1.730196361583517 0.6984987949153906 -0.673306097699847
Ni 2.4296022093537206 4.292612603521194 1.0228792216642033 0.23128949841074362 -0.9232250382863197 0.2534472654547054
Ni 7.889748043000193 3.073341218140576 8.443507085638107 -1.0817716005063822 0.5626864410680503 0.47064917542413137
Ni 7.670722875961822 2.939929826243609 3.9220467793700142 0.13063929428683307 -1.5227011373788937 1.4389137704485928
Ni 7.545127505004273 8.265344559344603 0.9195330232737977 -0.9983881538827193 0.22489516484862557 0.3322196956689182
Ni 1.4404341086806611 6.399927090952031 6.738907268533999 1.1736399446726045 0.48214123522413094 0.8677406320657701
Ni 5.315684205248948 3.298453773663274 7.599321061843674 -0.30937133031583497 2.4724591889587355 3.0430173194653785
Ni 8.809148166036852 8.8106537491429 5.743382261413183 -2.4754105582775754 -0.27403357424648933 1.0637630797441033
Ni 7.606531132051522 7.0765008226627435 11.92357507427134 0.5348226247782466 0.2698398478801159 -0.04420677642420129
Ni 7.2383324191170715 6.994325724985768 7.280605846994644 2.545053001166062 0.40661405142009327 -1.9486455136964826
Ni 6.73482639481878 8.327742614739673 9.072967218596991 0.6567654197323463 2.0148277659505105 1.0661768313919187
Ni 2.046626477045103 6.3576127706938 1.8052025085012717 -0.5150107322586421 1.3350090639431267 0.307539933534051
Ni 3.430740625092144 0.7352078293406655 5.976443738112439 0.8511372191811343 -0.7188071674554395 -0.09055836710554725
Ni 6.052527729815936 0.7763529992609897 4.254351275809552 -0.3040807713408569 0.2714506440106615 1.1297537848126156
P 1.3479243911646455 2.096022614135481 11.47335182197052 1.683794634390526 -0.010555406918343111 1.9555332419552516
Ni 5.318249272762954 5.376000466719608 3.9702812011007875 0.9274938408650025 1.0433765456679516 -0.4538979241077215
P 6.716657166594568 9.125283443415272 6.397829497698729 0.7919601946003457 -0.18185361237711908 -0.5127054811642332
Ni 2.732624043752927 0.2815431114585527 1.5688761469553845 0.42472464497787504 0.7199407668392505 2.2307099286672485
P 1.9834012803139942 2.3505962711777464 5.16408685642659 -0.13853258099198076 -0.31216406256962365 -2.080103447229869
P 7.110534435837714 2.7306351870572843 11.972434034179436 0.9594284847900704 2.094709112958186 0.9851487723743098
P 1.3718464338496188 6.557780974015072 9.086025828611234 -0.4713459443808398 0.18925993214351922 -0.9363204380176972
Ni 4.43260395121496 4.94665835097846 6.099503781469187 -0.10709390286672525 2.2784959378022758 0.9863317369388175
Ni 6.635011811121572 4.441721093357136 5.987270925263952 1.2239849727840597 1.1854608485669327 -0.9351336167984475
Ni 2.093857176705179 4.7725125717123245 10.049449387543172 0.7188537044226587 -1.6068795691000262 -1.5894588025204175
Ni 1.6254256625440626 8.433588824583948 5.68145075090653 2.2720329557857517 -0.14311917192139867 -1.4995290701378046
Ni 8.018085062206408 5.009065700096407 13.322339847061423 1.8080339386882862 0.1463801020608576 0.573080896928497
Ni 0.7390479956333738 8.451209723158428 7.973330210320721 -1.4817779168019707 -0.6706267510954709 1.079617787388173
Ni 3.007718240907244 6.407547943711035 3.9951595678697878 -0.004668866230579056 -0.48158433427939645 1.0291699151502662
Ni 5.541930594962619 2.1960974220732408 9.807178760845261 1.8194054137500215 0.7685184186376378 -0.27642984239280777
Ni 5.1769846850350625 7.054679161347934 8.021114815864255 -2.2619771142116467 0.11902896374141436 -0.31550392557613405
Ni 8.466953289711785 8.479369703475237 3.4006168811314588 2.3075247209344583 -0.22277400474056472 -0.2763866478596982
Ni 6.5782364580669865 5.971216948366506 1.498864673779611 0.24795513199188265 1.324702796921112 0.48034557677628886
Ni 2.0042935693411192 4.193894679123453 12.294889972486393 -0.7998660797109838 -1.0957902833829771 0.6603659925994111
Ni 0.44634684048889295 0.9839914970306625 4.149083135528217 0.7737521562327513 1.1162863464538 0.06880066371348151
Ni 0.6058661586914648 4.107741868055192 4.4481569964493435 0.8476006667827855 0.09685242764437514 -1.142574847836684
Ni 0.3291139613759205 4.6715920349927735 8.395980845590547 0.36634491948740133 -0.03903140287084891 -0.06550862322577106
Ni 5.633232128504647 6.687790863339118 10.359527016350471 -0.2005470750215643 0.1629269506759452 0.5864544900219254
Ni 4.986073029699116 4.407575955507643 9.7456552447729 0.6062805236089172 0.3448705516637093 -1.2567788793856292
Ni 1.407106818444331 1.3329243224414336 6.905344834046087 -0.8101648905338306 -0.30424377928128243 1.329587378706923
Ni 8.857057307466937 6.473421851462041 1.9616149351461176 0.6013941420508933 0.047288757783634686 -0.37479073626190934
Ni 5.077263038566622 2.932829421965707 3.3882924752244876 4.4791882370615115 1.6348146049473973 -0.5179885839400434
Ni 3.8765233366024128 2.367510846813586 1.626631058401188 -0.9011449185578285 0.38486663244067265 -1.5482995546732883
Ni 8.258457910692869 0.8399434393011579 8.116847596473958 0.016881606246687053 -0.3789006446652249 -1.3209885812943185
Ni 8.609017137607086 2.565541493873187 0.05655509182240421 -2.2159204290629 -0.5323078287761929 -1.0820441374414784
Ni 6.960189880859153 2.234052986302235 6.24912900229708 1.8117340132476927 -1.325766462298936 -1.3763675722852555
Ni 4.220939412695042 7.691763864554976 1.0378746435259767 -0.28659829828537736 0.5344801538371633 1.2474241776436064
P 4.526972413306343 8.7977354743441 9.449628795583088 0.9683219306249581 -0.5613073013323365 0.11828308671432532
Ni 6.089879202057936 2.4606060688708427 0.4738878588621058 -0.9224313387404307 0.05856870157282816 -1.3753661276039346
P 6.248207064987699 8.707558481270167 12.789021418518821 0.17379937461407488 -0.7664561367919703 0.7871445183792573
Ni 0.1607767589078076 5.58019285204655 10.933979462345947 0.11342010219506918 2.333359936830007 0.980506131395976
P 6.533292014234613 5.197737568219035 8.068042540158547 -0.19150219121047665 -1.3338011596779544 1.2880218965603107
P 2.431758353061147 3.042634757755513 8.56979112146083 -0.5548718301196379 1.6425070884956487 -0.6992577845686021
P 1.9599346300499858 8.18856911465907 3.1892227899472565 -1.2807415608488135 0.017530295574279486 0.10602380973099805
Ni 1.0430252247443186 8.45681383805316 11.146923746506005 -0.9103936908496062 -0.9031146406896898 0.3101930548861819
