# total energy = -340861.9282580411 ev
CRYSTAL
PRIMVEC
9.41660839421294 0.00000000000000 0.00000000000000
0.00000000000000 9.41660839421294 0.00000000000000
0.00000000000000 0.00000000000000 13.78215823029651
PRIMCOORD
 96 1
Ni 8.222102214975525 2.8032489902416358 13.26982053584033 -0.29186777421443283 -1.5129846814220782 -1.98571387930369
Ni 3.5012645051048215 5.08829260317388 10.6053987200385 -0.5522392775927973 0.15768858509514133 -1.8977808656361315
Ni 3.372501801731657 4.6601476686801195 7.779228763270563 -1.0014462239827528 1.3285915904525571 0.19884140518436721
Ni 8.427365445056573 3.5140145928894686 5.9013545896029065 -0.6876682799587899 -0.3779061419624395 -0.6025403398401945
Ni 1.879131290890147 0.983093917811788 7.776100565957373 1.398075396275992 -0.3505238932947447 1.3138370578512018
Ni 7.162969184267854 6.8010324234918595 6.541922201550436 0.40138699869319905 0.36262504743365287 0.8985794718234977
Ni 1.2580400501132112 0.3793490113835216 1.9236313572445836 0.3764853503555129 1.1359776542351403 0.7614784810717209
Ni 8.854013138813436 3.0324209890709986 10.300150883540462 -0.30522465513731306 0.08608413338427755 -0.9217109156346384
Ni 0.8611422473002446 8.3103640855852 9.327351202040473 3.5154387562985843 -0.009322820062822654 1.7853848338302027
Ni 4.009733109320177 2.9508166606058936 6.466382168900187 0.51737383317418 -0.587841085956807 -0.19816803326642646
Ni 0.9046441531634163 7.307655372459216 2.297926474895446 -0.1827370434233369 0.6430827800389312 -0.24428848177357285
Ni 8.179539144970647 0.23672788541606954 11.399925996137746 0.21348409479820654 0.019053159976709123 -0.7315631815695272
Ni 3.847984026693232 2.577401054180353 9.155639347717695 0.20540748843765919 1.8308596783335502 0.4371376739302471
Ni 4.139023142764199 6.203510953560546 12.4393491237863 0.3718437378184435 0.43963781464428153 1.272218353869151
Ni 0.9366417885343401 5.2352387773831985 11.077216942668459 0.1966989049200677 -0.5167464840028261 -0.5567423076694734
Ni 4.419412074725537 5.517369781900047 3.052113942234981 -0.07576115419171468 1.4553688306808226 -0.9107004234567476
Ni 8.114225549051657 8.74137166903504 8.963985000108119 -1.0814029043130537 0.0906306151043794 -0.527885017118149
Ni 7.56597177431183 6.788028087280192 1.7686509327414228 -0.5477269915447406 -1.1715087572622147 0.1610186779096388
Ni 2.1856983942261676 1.8908549683583047 0.18612020684810124 0.8645378088577563 -0.08947387579211687 -0.15034062937050235
Ni 5.854051198925361 2.992833567323099 8.153717863054634 0.8366451962125461 -1.1615215641425156 -1.6977554674459923
Ni 6.501819691322611 0.575917886921316 13.369176112815655 0.45438463393615297 -0.3204648691258352 -0.711038322143298
Ni 5.689345301258253 1.2392350831221177 10.225561928339435 0.02281725500483167 -0.34196057710576594 0.1708433773095445
Ni 4.564107679525307 3.590628118898249 4.151392799569156 -0.20405714505735179 -1.543200028663194 0.17105626465129897
Ni 5.902848063696441 8.629059780550929 1.9217979435875148 0.42390677706227 0.31005447242578865 -0.15995501253181485
P 1.5684208798545363 0.49068910587991066 5.496573202230629 0.9056402353250209 -0.5140393694843082 -0.06326996370323941
P 4.370784708905805 1.1235897152615184 7.858807579267073 0.28853356763487725 -0.14786208592302275 -1.3935759657437419
P 7.888697777676252 8.906576646947778 6.685173298620395 -0.73535581584274 -0.7030848716241762 0.09030948431953478
P 5.872573667664208 4.180879967138464 1.813607704603655 -1.5591328978433665 0.006769200403033504 -0.20834420246847993
P 6.283655707722385 3.2742865760345596 5.782773123240642 -0.7053664685695012 0.6495485902689331 -0.8492592854321309
P 7.933445500831822 4.884564280263362 11.397693318284173 0.8228607408339442 0.49210246020190085 -0.5244137707400969
P 2.395340347217009 4.368223391418786 13.014078634726504 0.1879252724924957 0.6593591486014515 -0.07120155984549029
P 5.871660256648617 7.58412699532276 13.2429860268596 0.8048617331533622 -0.6072272037929026 0.5485404885849714
Ni 2.9792359847817176 1.2118233360459674 3.497842509609297 -3.5415416240332234 0.8682576809115046 -0.1496826840715293
Ni 6.577378557189677 1.0951703910856951 5.836371516639042 -0.23796151111428052 1.1422488319558328 -0.4659643683539524
Ni 3.471065441939856 8.288856551980963 2.1757619890338784 -0.9337045976614048 -0.01670779967298413 0.31523318841325065
Ni 1.9585980492466 2.35165670081156 10.07226331009797 -2.229426948189767 -0.07558091986010854 0.06513195661264268
Ni 5.2474050354465405 8.738424270603286 7.146504244466189 2.2466008888658924 0.05978329070621961 0.09733810903154204
Ni -0.007543644995776085 5.477415112424229 6.7266996000395345 -0.8039207093963318 -0.24328600865098746 0.001221788222243057
Ni 7.127816985080197 4.954915761680717 8.435397812028732 0.8227530116114863 0.39309699077026494 -0.3190283937896248
Ni 5.982597320305137 4.1267533020083675 11.71947954412946 -1.081403418533686 -1.7586985827882677 -0.8788891924834219
Ni 1.3075054940812698 4.4141576072337845 8.697616456405687 0.4502276743449859 0.42689028517062605 1.1817720868614354
Ni 5.921756613380023 8.555450152624351 4.836076280248071 0.3196320888118947 -0.6461385361461194 -0.3806022007373639
Ni 9.259454630435124 6.1457400609764905 4.432135796006642 -0.8474093767075858 -1.0397428055701061 -0.40618647696437143
Ni 2.5453280859421636 0.07979257300737515 11.354431535935408 -0.6639583379363597 0.08697784884314053 -0.10319636758453196
Ni 1.6506749542998043 7.53947343825127 4.456295046538614 2.4513175218841137 0.09080467878839844 1.2951914177255563
Ni 0.3611834321033423 0.47594363877357465 13.054405260234446 0.5227929473072223 -0.4518970916276088 0.86368548815979
Ni 9.20331281110568 1.2141586549311907 6.548840583747911 -0.1443587007554546 0.4458807102301998 -0.8091909566563353
Ni 1.7569507967942852 7.023462130700981 12.488261812840799 -0.5516607793815079 0.4746300144487503 0.9551635388661293
Ni 6.620873871426963 1.8993110827088313 1.687005171199322 -0.12218062199651859 -0.21092584715272705 -0.22183606630732763
Ni 5.104771667888158 5.148841395238342 5.878517430891439 -0.6691671358308088 -0.5179631300187466 2.2049423327848414
Ni 9.401739583482405 2.291267991090037 3.8688719474642097 0.9853935413952641 0.3635696707351093 -0.29073186083777675
Ni 4.239187606401785 9.06926739041554 13.652785524852584 -1.1575093576593292 -1.351973202601291 1.845125187113629
Ni 0.5803983092019179 3.814790482054472 0.8389887343592101 5.032918240267223 -1.0184795253159558 -0.39197393290941523
Ni 8.454005030243254 8.905936317576023 1.339666036777655 -0.16037667345026574 1.9061379793515754 1.4665911817592032
Ni 0.15876495942239965 9.226383501705671 3.9548455822307003 -0.7335979526113688 0.13952142726781133 0.1485035761617636
Ni 6.3970881726070665 5.348821908002411 13.587857068217488 -0.026033190838968066 1.0409404254226329 0.9587944507504971
P 7.16795057011577 2.0954307860255565 11.57935570271185 -1.0914913988973074 0.5592175086828434 -0.3917697873184091
P 2.005784673979884 3.355222325302685 4.298709988149757 0.7059758200187262 -0.5351499262106784 -1.5029838614556243
P 7.86052328531904 7.6525857384500755 3.7366740653437485 -0.6014625333949835 1.3503881175023582 -0.15812670107382445
P 0.4393714150379672 0.9230300810803465 9.731182453624367 -0.18948618922171237 0.1819482289734544 0.19812432451268458
P 6.107744046049569 8.14683526396911 9.523374855951433 -0.9740827443681354 -0.09985470480580867 0.10969868747942398
P 8.680898209837842 7.600248228917528 10.790216609943752 0.0731082899498999 -1.4013934049056318 0.8357013442420382
P 4.995943924515065 4.676250069058071 8.981433033827598 1.213534466874697 0.28981449122982994 2.2895640226909793
P 4.383026299836412 1.0752636809108471 12.186693986908669 0.2019367562802393 1.6252012502273494 -1.2897676756068237
Ni 1.9230880189394326 5.236943183505076 3.1973368771056077 -0.19773377394248526 -0.20939244122733616 -0.31639944080720994
Ni 7.365868845638454 1.2917797580396444 7.968209735753064 0.31374374835191776 0.49666076899654465 1.547342847186974
Ni 8.254109266954856 7.494998796739536 13.425544872407734 -0.7012809856462181 0.6387733540302999 -2.3206841411345516
Ni 2.390660292838154 4.93280556513836 5.771444001664786 -0.04035989187428533 1.7153814080578715 -1.417283593773327
Ni 3.9514537198820814 8.88538927802942 9.162171648970434 -1.0720572014320955 -0.39851816178583627 0.5010511847547564
Ni 3.5466902240657796 3.0229855474460234 1.8503927436892869 0.015454386881857258 0.6812472069237945 0.9635821019471276
Ni 3.6107796608917093 3.0122694470775384 11.599891442328364 0.25728232293007947 -0.47372035815028735 1.4522084306749699
Ni 5.03602100990019 2.757889187539534 0.015040206949511376 0.23438896327167374 -0.002609155488072926 -0.44854488732592424
Ni 7.210419474036566 3.476461158557731 3.446642526372455 -0.44220454693019323 0.18694645351899417 1.6986216721010294
Ni 3.0194919857265963 6.064531230064527 0.7989672069636938 -0.9513156258749486 -0.35184698298154243 0.2651668678844788
Ni 1.0301016269853172 2.8208486313564847 12.138167378798904 -0.21234021100175046 0.579371357922899 0.6648836779641065
Ni 3.8250545852193647 0.7140472906780762 5.651815408447536 -0.676795341800028 -0.32733177144899755 1.187465023481155
Ni 6.227108974231392 6.4968477220831025 11.219090389928303 1.2814226460762383 -0.3080508117321985 -0.7021754724360294
Ni 9.148498733561787 5.4084667056596905 13.087675079401311 -0.03398946957156727 -0.5309605707196791 0.41428056682641556
Ni 7.507965466517571 0.9504842028943337 3.6435061417534245 -0.07406911120127244 -0.8945927192616077 -0.10065586055086535
Ni 3.1674834034692214 8.050644609079768 6.52746488266139 -0.9950128096525831 -1.7057690817790883 -0.16651595357878418
Ni 5.048281434047613 1.0969218802496126 3.8462419541377226 3.4507202330742768 0.49884620668363766 -1.1359164619799018
Ni 6.2309321172451035 6.282422132020916 4.470959530812641 1.076982663758171 0.0998009687497378 -2.403938004158886
Ni 9.118139588053884 6.351954368506762 8.945723371422176 -0.05560267696596876 -0.4107645832533571 0.30884194017492617
Ni 7.9517608041856915 4.05308717443134 1.1753725865588251 -3.2044237197317393 1.7904794747442905 2.733228441996151
Ni 0.7794268028559234 8.421357648892167 7.041221854158768 -1.1935135436680802 -1.4436505138026299 -1.4468463950321082
Ni 4.9056480664892295 8.451170631112399 11.387398140311532 -0.1457787210314328 0.33579327195278946 0.037785446278889766
Ni 4.921948215643753 6.675396034110203 8.307581477800587 0.5532175823456665 0.2181809860532436 -0.1730776659567019
Ni 1.6104095367465168 2.8015163342945346 6.340303198923347 -0.7101469206772802 0.2302440878653648 0.21349926430685812
P 3.998838093391937 7.644977118856284 4.236497281379574 0.005914051491589815 -0.9390005559530217 0.2846067217766453
P 2.8720373146632365 7.3473275436827885 10.673523173567325 0.4065088933007967 0.18584139338027347 -0.5901473654924805
P 9.328280621290357 5.51607970654813 1.9896333072382097 0.3874076536949715 -0.8881374505545672 0.5550142692347731
P 1.527694048489249 8.327022065859232 0.5363822565196609 0.7909206975922378 -1.2097693434053098 -2.078909684032084
P 9.22162811445955 1.7150563059863864 1.0810859698896118 -0.3718103134773467 0.08340632944179828 0.46995446334995195
P 4.426333281905534 0.9352019891087326 1.702083044582466 -0.05563764396896224 0.6953594779554605 -0.12556959307340956
P 9.23370020643881 3.281857529194719 7.92835205734385 -1.7970537855276985 -0.7960870722845257 -0.6813839896119749
P 1.7113273290567557 6.365589617481776 7.503654543188317 1.0133838559606032 0.664586715548978 0.3356652310153574
