# total energy = -340862.39026529755 ev
CRYSTAL
PRIMVEC
9.34138206748371 0.00000000000000 0.00000000000000

0.00000000000000 9.34138206748371 0.00000000000000

0.00000000000000 0.00000000000000 13.67205689713433

PRIMCOORD
 96 1
Ni 7.162691601699334 0.9013396894599512 10.32739307528138 0.523662494396369 0.15053320499728268 -0.6205074658415765
Ni 4.237381728827734 4.806318609510987 6.56354469109851 0.3783946515630838 1.46637289510081 -0.9553980234744385
Ni 2.5331026013443516 9.123251548845223 3.7166800090852257 -0.07169418321119266 0.9011233212912739 -0.706569487738667
Ni 8.177941039402281 1.8237554053577574 6.76764081344144 0.9020720583577885 0.2731977086087553 -0.4401072980815323
Ni 9.441148125259833 8.746803189028224 11.494727687715923 1.12732743475931 1.3088822849490878 -1.7424342984106056
Ni 0.7506790755083265 4.418202863371461 1.2401749739946084 1.8237048124563238 -1.7749309854867303 0.7187112653075235
Ni 0.8538116711490027 8.16021109605548 2.1662413020420086 0.6717721775538237 -1.5539966050580654 1.4957598329033595
Ni 8.694575521350693 1.298947214016064 4.190389905852985 0.029530662469265275 0.2864998250343001 -0.12425318825483116
Ni 4.937686466879817 8.127170627342293 13.528076618819977 -0.604024637695205 0.7027670832734413 3.513369018253749
Ni 2.4754756147761716 2.819098357669751 0.5466249893851338 0.38556494405927794 0.25352774098365366 0.8800305051767167
Ni 6.755164463423534 4.465358160534077 5.214494973847167 0.5539115230888977 -0.29140934652077555 -0.45987059675138864
Ni 6.706720055522321 9.343530681648636 5.767447815510026 0.14775307114898426 0.0876375939143265 -0.23128358487347264
Ni 7.382017913522042 5.501709780544936 9.073241525293367 0.1243406057623149 1.1917857623436958 -1.0580485458578295
Ni 2.6167453372385774 1.5511645324373404 5.50676253415731 -0.7086299698121215 0.9609791171066419 -1.9938833024883598
Ni 5.687771430482528 5.035976490006805 10.93387203674253 0.899905903944405 -0.4518173874296089 -0.47195246761658716
Ni 4.6636009728131995 4.1567562593724 12.73803669542647 0.060678805937295494 0.3120735597383464 2.438873125473174
Ni 2.353748063800333 4.890942190532407 13.099006384998136 -0.006466067340317896 1.6500969850277647 0.5159108754754083
Ni 2.080363173395997 3.6876694126374803 6.3534317845039086 2.4196384456132782 1.0327758873339696 1.1768849339724634
Ni 4.965747978899725 5.14942757638556 8.812242373499949 -0.669809397400498 0.046237176590668755 -1.0103160156685569
Ni 4.616296213535964 0.8293736812704138 10.821624120386467 -0.6572441591409777 1.615275763583521 -2.3488022395270063
Ni 0.6225928456936222 3.623353996440055 4.676431361215111 -1.9937897143332888 0.958958487132187 -0.023971937434565167
Ni 3.456470204084644 7.793552504746092 9.15115892805943 1.422392632865118 -0.7290265311906025 -1.0731365505392034
Ni 4.596408410909339 1.8693880572276809 3.788486279639763 1.7293535539672478 -1.630410819452747 3.218259854283883
Ni 6.7349030055103585 0.31178357592665074 2.7515013139182 0.14568179044225232 0.5380197915593057 2.927568616876055
P 3.7860621909682695 6.473960836148138 12.473372919410211 0.9598982253376371 -1.23960519581982 1.2671594512890048
P 1.1588171401776357 4.049610605954175 11.271735817532159 -0.6711900797981086 0.612760474906306 -1.233431205798624
P 2.156317951769456 5.891114637423059 1.660020592929747 0.027683324847881354 1.066867172590724 1.1000855683242214
P 5.9569059920023575 5.368398915686047 3.4599330544527462 -0.967522060431482 -0.012504817335230078 -0.6774013508151431
P 3.5560306551859013 1.7449328226600267 2.103938019562655 -1.8728614766866325 -2.519654358587299 -2.951352863779846
P 5.515964729726821 8.371709329624967 9.766346860111847 0.6758664022278553 0.09010688139042546 -2.309973696695583
P 8.892921088833615 2.705441760883393 2.4248210358550155 1.4359076366324175 -0.6129651347179443 0.6225525212960633
P 0.16755637187120123 3.5968431538593295 7.119026244913096 -1.8537574088673299 -0.5313269529201623 -0.2675716206712295
Ni 6.281490998046213 2.268199685944701 12.582052427779724 -0.2224518455144556 0.2614220561300659 -0.04736177711341521
Ni 2.846048245212173 3.0117456820327875 11.81088022808056 0.4425287630388314 -1.9028698501232646 -0.03163613884804229
Ni 5.305718241367278 2.4304875182755468 1.0897815235728667 0.8225079854802158 -0.8182713216910488 -0.31970896479641714
Ni 2.790476362720018 6.9601704363892125 6.622594370170229 0.26696869697990794 -0.0015424047864554082 0.1823215531524731
Ni 1.4226084310997995 0.6579667916713144 1.1081504174596668 1.9592978512040065 1.364549753714721 -1.5051731557974593
Ni 7.258235258470179 8.138062678945227 13.63094485334542 3.295599151595995 -2.5700927177435093 0.0706873392132331
Ni 8.80382298575576 5.914393361775128 0.3060134041641018 -1.5482977549010755 -0.042993472842390475 -0.3507421799531379
Ni 2.8867579886817993 0.079134584862 7.026220547254447 0.8365132986203722 -1.6488790534602635 1.425955667626028
Ni 8.048226606676435 0.9396963387625292 12.697430641298862 0.9388429473292348 -0.3835360865547072 0.4223103791094276
Ni 6.040856993507988 4.722190121744245 1.3958491077535182 1.1876007777280708 -0.4357186820955335 0.016389239991300805
Ni 6.221351179675985 7.20168253085083 2.149138165438397 0.9822794212463146 -1.7444215040439632 0.03345982232034238
Ni 7.81020818914406 4.2780260826222145 12.043045335549127 -0.056251623403877314 1.0928389140641372 0.29640859950757986
Ni 8.53132552665698 0.5392677167929636 1.4217985332662022 0.9365806336576192 0.44731384313230055 0.025776337633155604
Ni 8.592623676415514 4.932352537664315 2.9343383187328653 -1.394705708472811 0.3772955049616341 0.07225005571466267
Ni 7.7563270968235445 7.599429242001182 10.426734938040005 -1.0798180763244372 0.2165377940228658 -1.2017521295277884
Ni 6.88159072962774 2.985132084248261 3.119156630704462 -0.7136801306415193 -0.022520806810335407 0.6528136341734498
Ni 5.230370652834463 7.709442699743678 7.031087407361761 -0.29800216924694484 -0.488647668884081 -0.29605198749910944
Ni 3.964136959155854 3.761849328399827 2.6225052334807466 0.30883165576228105 2.488758440339391 -1.4758934329967357
Ni 8.895228410228063 2.629561713567244 10.828857152595859 -1.3108679479205487 -1.128654895321482 -2.6685590268422237
Ni 1.4379750047591697 2.0118254524605557 7.836098763949112 -0.475217254410788 -1.1576044884762966 1.2649768418153893
Ni 1.8295657450636107 0.13175645886684198 9.411679801086065 -0.32478612220900843 -0.7396531576665133 0.5826538853289126
Ni 8.149094851280617 3.513658145691127 0.6249580836574841 -1.9341907717237334 -1.0524723373216325 -0.3173155248635761
Ni 3.602690859093838 5.733254620237832 3.9624218813905894 0.6111975012945602 0.5904594974162606 0.06556441616437096
Ni 4.720966400680794 8.739516910940498 2.448692937974481 -3.0875215725253407 1.2024378427409033 -0.631963530197318
P 9.233451834230994 0.9083672112617411 9.375585634543548 -1.357147804823695 -0.049110898594038 -0.378978806201328
P 6.444273923631737 0.39157299167832965 0.7339813548906217 -2.6503913547942615 3.899958289812483 -0.8389615030505486
P 4.40796470851999 8.611409195946818 4.552754263781698 1.300608732086386 -0.560132564297945 1.6025061226226789
P 3.4947605295738593 1.324570625291233 8.747203934323048 0.6661165219299431 -0.3785342624647416 0.3973904759392963
P 7.778213955233213 6.568859937549685 12.145626789642144 2.7116234621318656 -0.9435699204912589 -1.0345211521598505
P 6.479425544713932 5.717869363814135 6.956356350051753 -0.7409158264290208 1.334180397394244 0.7591788864042668
P 0.9093723439825607 -0.017712194720688218 5.18855956040773 0.17291671489880542 -0.17932390397672987 0.7058107551957715
P 8.31152280434392 7.35586204346354 1.8599467222747779 0.17756038431840387 0.13290906415761625 0.4479458202893447
Ni 4.17197337091715 5.9903761642950775 1.1380746010830267 0.15714839632095515 -0.023106504110476333 -0.32756599894699073
Ni 0.1691061071721675 6.672605327860302 9.267686131584709 0.7236485547081408 2.1384042398532914 -0.11455575846140917
Ni 2.749430329492496 7.846611555436197 0.6204611422838543 -0.7335066784491432 0.03764506404628355 0.09094428969005627
Ni 0.4992753914735129 2.6393701648391827 12.760596133351928 0.19888485682779297 0.5056058940049744 2.8522736036874816
Ni 8.37639870347117 7.22912751164793 6.39589770782032 -0.9585753927611554 -1.4459696488541098 1.1905660310039816
Ni 8.583805411652932 8.204750806212246 4.292971359946 0.4090442581281407 0.09326908116849097 -1.5187580935707456
Ni 0.3548482818397591 4.429337790910653 9.18432737370826 0.1392378345891215 -1.5785614388816234 0.6117425751647529
Ni 1.7811493613088893 2.4160924483612067 3.146268124158316 -0.26745540680833935 -0.6306178148027011 -0.880419255974703
Ni 3.087980701871159 3.38384095776148 9.484018530423935 0.24967699977899582 0.11112796372678281 -1.0684684556395727
Ni 6.645291126413494 7.053033116479061 4.983164051805822 -2.3848159386174546 -0.8606718981444468 -1.180970931116379
Ni 0.8287496769418752 5.677561299777549 7.21386929802166 0.25772815221824646 0.4874451639355476 -1.107816361309576
Ni 7.173761139563379 8.480302897278571 8.297038057160806 1.1242837628369797 -0.2830422055030029 -0.2760416058154537
Ni 4.1428189171840835 2.6105987077748294 7.240269912292852 0.291360238450395 -0.9044824675714938 -0.6674954045553407
Ni 6.077157604596325 6.1721034129086885 13.04472828393566 -2.24620056810368 -1.656508287870747 1.1457409042694915
Ni 6.423545396610375 3.4968156336498843 7.3993312312243384 0.3833589375468946 1.042142159040218 1.2381900606398482
Ni 3.7805881410203117 1.1573225190314356 13.147610530534347 1.6659246960886407 -0.8385480696622137 0.7563303612118781
Ni 0.7931758253858787 6.0730100309156185 11.667692719859936 -2.275777253319532 0.8631828374917586 0.3061358540976728
Ni 0.6718658341927596 8.361695367945426 7.289147760326463 1.053447042530076 1.0988838347066363 0.2899669576472942
Ni 5.984500434914079 8.63621990697374 11.729489699426015 2.230014959482753 0.012972501000267981 0.033304527689400704
Ni 0.5385727179599804 7.837382269858411 13.454411413214853 0.006314372253802028 0.896478880540727 1.0634702310940332
Ni 2.886888768032092 5.593236642985369 10.453107528164708 0.5925212650412957 -0.7569476830809029 3.206758795622819
Ni 3.5966189606873993 8.454772899825041 11.727029179364083 -1.782357874078421 -0.43463933298842566 -0.14222211402842602
Ni 6.257063283688004 1.197742679653986 7.960404536402146 -1.623047179998824 0.046268029828604194 0.2431343135644716
Ni 1.5802722792595885 7.022552186478741 4.387855515136083 -0.6860739388884766 -0.16659720043868081 0.35853545074531157
P 9.131387892709851 5.740802457026143 4.85057247337354 0.4761801325446896 0.7723943566532763 0.707887178108826
P 7.311219578102974 3.51670343627651 9.622844547312305 -0.5604462388836219 -0.8534869503602333 0.2552472947779217
P 3.2624310137792087 3.6319200438842145 4.586660678621465 -0.5228901350067189 0.06045897661700555 0.8544475145012898
P 6.218109720065163 2.20531350121833 5.6391906384017245 0.02687445579334081 -0.2198221212010924 -0.3167971904662608
P 4.908111650949381 2.8556792102229998 11.04713162478693 0.0854164178932916 2.015646405197064 -0.5970001267482558
P 1.9812604500207627 7.562194492696471 10.672448786198878 -2.1766082617268387 0.9883135432555366 -0.13072748312526516
P 2.7863381304214765 5.625707287386567 8.488091741726707 0.12792703756199258 -0.0565447291642639 -4.381752168999524
P 1.852536203804274 1.0921009887641262 12.415485308279663 -0.7726188139592566 -1.7796343044996707 0.4052336261327989
