# total energy = -340890.7974112495 ev
CRYSTAL
PRIMVEC
9.07885075652828 0.00000000000000 0.00000000000000

0.00000000000000 9.07885075652828 0.00000000000000

0.00000000000000 0.00000000000000 13.28781578647634

PRIMCOORD
 96 1
Ni 6.440935993819894 1.9979917020877445 11.34516305972731 0.1480682883965579 -1.018133969051079 0.3905693392524048
Ni 4.763327846016786 0.3221303251153314 6.040481517802893 -0.6568464094819267 -0.5349149273817368 -0.08806696814226123
Ni 2.874482084296009 1.4474502095030748 4.667743892483971 -0.6189061827927276 0.7349331264830247 1.1820965600803899
Ni 3.0532446500775423 4.585854477002189 5.0891804998253845 1.0871426350103084 -0.7302130952995359 -1.2485032696403982
Ni 5.055448938784009 4.607144381357584 2.7179027817562535 0.2548474882363418 0.5281958634903484 0.020909753569473666
Ni 7.269417414735485 6.1953530885689805 2.6157330300914974 0.2850911176122316 0.0876807884474361 -0.1984364564364647
Ni 5.175008320641652 4.5064054565271165 11.856890650776721 -1.8163465723190393 -1.2071573597037597 -0.9777648212054129
Ni 5.652819142100071 7.96487551854437 12.440318463423882 -0.2561188987495976 -0.3915723265956224 1.0365384397001955
Ni 1.6200209992631243 6.489916392113005 0.3924805216479846 1.7479020063933963 1.5378673035963708 -0.6627074962483942
Ni 2.933848687528383 1.8594484438944388 0.2754741125428938 -0.22111692875311595 -0.9278034016856216 0.03249745840707307
Ni 0.5879808561585591 9.124153935235276 4.642736198860546 0.24145306920730675 0.23299928201299872 0.23877372260293067
Ni 8.881794021901705 2.7195696587027998 1.321750801071635 -1.674223188652007 -1.583157542892738 1.418037698330532
Ni 7.094894672124088 0.6063700677883455 4.686227524158659 -1.5000399483359521 -0.8131046898884448 0.506846708390611
Ni 0.5487166436399216 7.5090990671799975 2.681893337131607 0.30918543955727396 -0.7901375395693101 -0.2434654716516452
Ni 7.755371965066735 4.193148799862516 3.8615982594980767 -1.27977482606017 -1.1360234198714112 0.05511005360026638
Ni 7.3022646957409485 3.6608376390243826 12.692640599379702 2.0124906331769017 -0.24310371743685227 1.039438644066126
Ni 8.069945055049688 8.642203157961905 7.222153827066512 -0.6761191416686098 0.7248510596566742 -0.5647600357676273
Ni 6.788773991929993 0.9013945769363156 0.5495246613318747 0.665440321798525 -0.36893042082639044 -0.7729484293845333
Ni 1.8758720843971708 6.418547548557463 9.29487990257954 0.11987511379179355 -0.30484361764881046 1.5453823810264935
Ni 9.121702645608003 5.09051145930449 1.0670500062923125 -1.2060345589532262 -0.18896631216250037 0.8289722530483208
Ni 6.513666664946143 1.8393569478012681 6.637994259071358 -0.554328041801026 0.3847519612396793 1.1642975842257561
Ni 3.4512977701448615 4.130205129544416 0.38333176402797187 -0.7006253543400901 1.8461960515803042 0.6221653131599736
Ni 5.925892806578332 5.818671582511298 5.102600856592183 -0.18414832194856673 -0.2736288826089029 -1.3004313259682572
Ni 5.361033966800291 2.7951238523256494 9.35504726042349 -0.1998305085705139 -0.299042180475685 -1.956872015371333
P 0.08582328139103135 5.5014565470411725 12.173193261774474 0.27167330154442887 0.7310039666319474 1.2783375793930114
P 3.866863992771479 6.148551614389002 12.654318771539993 0.31647066036477756 0.3687864390493584 1.1615729862057416
P 2.1577613126831436 8.425173237443493 1.6246475814633412 1.5515766827626634 -1.0385667829841339 -1.0867626259630705
P 6.368940709581826 7.810580454783215 5.9336071058238655 0.004874297373165799 0.14044419619239684 0.2140070571812121
P 4.796120653919422 0.9527890415697681 12.775795606617194 0.08326748987108885 1.2361228936981743 -0.6975274321410567
P 4.056966042791769 6.120497966432428 8.507430346369365 -0.545276730232035 0.35736739857913935 -0.630317767063779
P 4.939167021946534 1.134729205016285 3.8405643787259764 -0.597050520370217 -1.4474230934711847 0.25508968615413485
P 0.1551457520503239 5.666319392751018 3.810879261339695 0.9039643902844948 -0.07740177511893122 -0.3848195812528211
Ni 1.5353425609165345 1.1777811139515835 2.375503015078513 -0.4685406137215608 0.7539708598407661 0.7014151972312371
Ni 1.7964684581744543 6.53005399004699 4.9353339312775155 0.20775567695486155 0.6457078763666041 -0.11367772673183003
Ni 6.077073824627803 5.769427897554516 9.287132919472308 0.791078820436657 -0.27272308296518194 0.18832225082059825
Ni 8.719645752482803 2.20493501973245 10.106765184833442 0.13467078404372937 0.7937303991268911 -0.05537616277745947
Ni 2.473850570694817 5.14643717820821 7.2337802029801646 -0.6897966391557023 0.5565921552448543 -0.033928277316328664
Ni 0.6891165267546251 0.06572179856234207 9.217651568929767 -1.6632787738253614 0.20528716080971096 -1.3287584550477245
Ni 1.5573224579077527 1.2594726104930882 11.442708952846992 0.2595292099827272 0.5439898930998115 -0.4804116541275339
Ni 3.9893467644809077 6.98305231316712 1.5629794896364717 0.18919873988828062 -0.097711947431193 -0.8461971015670395
Ni 5.66462164771287 7.889157905613035 8.027341641327675 0.1082149038450459 0.42591506574155036 0.7796548948704315
Ni 4.977797530702269 3.0513653280299655 4.871432442234687 0.352935845170347 0.3418451345738242 0.4883941581123783
Ni 0.913731826841878 7.377764416260971 7.05373025620179 0.20314851720015337 -0.22894285255543795 0.3347992834706363
Ni 5.174499905015255 4.640981257064428 7.435861796197444 0.038339261899830744 -1.107262802798951 -1.1682557975425558
Ni 8.45161992886663 7.086405946933344 9.347154107823668 -1.1931353343930549 0.39458874482444295 -0.27712018359161306
Ni 4.688182200665149 0.3487867379843593 10.54376203399776 0.22399450741122712 -0.9758511491224677 -0.21513731413091333
Ni 8.121531083428085 7.244795572257093 4.802030077691246 0.27499233861533284 0.44133757094420767 0.05245590380687095
Ni 7.7341002184122845 6.099825423909089 7.04553205422613 -1.7241473271759598 0.6296464520283672 0.3628916708314782
Ni 2.255858292026438 5.48443370240733 2.606205684406828 -0.3892413644696006 -0.24882133664691988 0.6000666814887213
Ni 2.270393531631122 5.069784443678323 11.65755994925227 -0.2509016162147163 0.2760693737295955 -1.3333489026318843
Ni 1.028606521856288 3.275277017205686 3.7651817753770356 0.546602391021994 0.4356744591211594 0.6752575649992628
Ni 3.7589981703209765 2.5925474617576794 2.6552242138719198 -0.7736025180287645 0.38402073950060955 -0.6612921039581063
Ni 1.196474467072161 3.2801160445069337 8.219391104774077 -0.899668076901986 -0.061724216482674336 0.16489230193243215
Ni 3.484063341496083 2.828016527583471 7.202248447408004 1.2967158247898831 -1.20666987854438 -0.280107291244395
Ni 4.138012940949806 6.75724314424288 6.378191150327118 -0.5707586765532235 0.6715500342406886 -1.0843715000230743
Ni 0.7234327657663588 7.5448425014858325 11.406300946686649 0.19659503235235173 -1.639161311951867 0.695220638384751
P 0.42232361103246785 5.437005787544824 8.078832341776124 -0.40137285762581193 0.09445281706394701 -0.7983709832226961
P 8.719909039146472 1.6650974918535415 7.819640239668608 -1.1833833972126133 -0.8664954468047592 0.0634918499060584
P 1.8237504038409604 3.281850104946968 10.433765405341624 -0.5060743490009607 -0.7859520407330529 0.40470217910936107
P 4.07666714831467 6.3754865607716935 3.712748690249657 -0.14678607925002463 -1.3528178099897734 1.016638872562791
P 7.028655379084876 3.79341609245799 10.112054523118072 -0.363640890292677 0.4720666245969483 1.3098017114395637
P 6.345108727094445 7.670176032243276 10.431346799576048 1.0027580008156407 -0.07060043592638163 -1.1168591882381345
P 2.4322966720872965 8.484721417685295 5.87531362271721 0.7259306658740982 -0.24452168083030149 -0.3050624185278359
P 7.0820571775575525 4.192404334123862 1.5983515989580273 -0.43813449062587767 -0.6805003014554409 0.7169834839831394
Ni 5.365582470886454 2.901001406522919 0.5730570417536995 -0.025897179481736043 -0.43274622973077087 -0.07121107292718704
Ni 1.545120482874214 0.9604879067695009 7.0315533481553425 0.05042087565471317 0.7908775030591283 -0.37686073141706067
Ni 6.9182565573528585 0.9151208909639997 8.936201757006609 -0.4121036137797548 -0.53885231476293 0.7102577352235316
Ni 2.7883237933225837 1.4749863629827797 9.267214829423141 -0.24583808564887985 -0.2621651049436775 -0.5587624234232957
Ni 6.336810657763601 2.3048114537681355 2.7551088188730293 1.4242569397673666 0.12155944347275194 -0.4944884439355742
Ni 4.169398527029377 6.752658324754831 10.569367115982201 -0.3083071507173787 0.8364670187634692 0.38229784327223193
Ni 8.190221666094569 7.504523326542421 0.24877321330655616 -0.003616256596348611 -0.8214857148632885 -0.4463111128993991
Ni 7.600169016258442 3.622188972567705 7.972183993173834 0.6659738257044917 0.36197378700289917 0.23716524046523024
Ni 3.084811813166541 8.50306977448796 12.378424308220277 0.6058820026189178 -0.6380673291022109 0.4853072916569383
Ni -0.1130870693565947 4.822894183959531 10.087139433769455 0.7898498331255623 -0.9709274865686054 0.27454188134147556
Ni 8.467035816967039 2.3909606658910896 5.4445357861257895 0.9858290862707859 0.20196400997374894 1.5650564624166532
Ni 3.8624516714423867 2.640020770872541 11.055993501248334 -0.5769684049083611 -0.2089304139892531 2.378885432065632
Ni 1.0323833236523834 3.3265816012194724 12.794850297986532 0.2163048520764533 0.4652274901879278 -1.2370263793490504
Ni 3.0728549670957297 8.079205482530499 8.214221607315672 0.5521436325551975 1.6970946939335418 -0.3003881529806181
Ni 5.681798832804727 7.942941015805509 3.422595892264631 -0.6292201631242261 0.4529383884079296 1.0224940457919875
Ni 3.0706306487302406 8.379833458189406 3.703340277506163 0.32654115722690213 -0.5178875395858049 -0.53329358972823
Ni 3.4349467604459005 4.140545940231322 9.21820901034871 -0.15992081685976975 0.784017028493869 0.8406928839193586
Ni 7.040003942174106 5.6237123474888175 11.488006969388909 1.7958859904718427 2.238052227964933 -0.4462306373704508
Ni 0.9256523575108041 -0.0439325574310227 0.005647044993200272 -1.0226462550991355 0.6915701861163573 0.8254593547990557
Ni 4.402025912657626 0.3002339535484497 1.6281029919527494 0.19299137416149345 0.41537868498660074 0.16862811482578055
Ni 5.954727235675445 5.604919127013055 0.46467463271137566 -0.3944681600861787 1.488392851015327 0.29267818593087014
Ni 8.053457862593655 8.975351576009308 11.046812059766625 -0.8881485062981608 0.6638853186065792 0.36863988616916515
Ni 0.09879332717444919 4.654309009556419 5.952462970367882 1.1420156328991042 -0.201526151105382 -0.4740826265857126
Ni 7.841521177189689 8.91806402953488 2.6092489150848355 0.29359067044281045 0.23668701527723107 -0.7795808470993864
P 8.526801889620154 1.7332342646412713 3.4363884819007557 0.18661683809371732 -0.2831712748816994 -0.9011284634975966
P 1.8054474412906523 3.526370784692728 1.7724222148159492 0.8390898010982969 -0.6692998047539311 -1.503652862498191
P 4.651930350732916 0.8273075255496413 8.34690083598951 0.8234839762402397 0.9462909189668477 -1.3033839808386778
P 8.643138279560457 1.6170794517103961 12.365521445930346 -1.0119216695927797 0.07430051048578817 1.0785744337253231
P 6.389849302217422 7.819169047329144 1.356832387178106 -0.8010960954633429 -0.06235105143339585 -0.43321519894738936
P 1.7713291212191946 3.014514273966622 6.006106266263095 -0.411824134866123 0.07307332294690641 -1.0944031732274635
P 6.675088626327335 3.9840537946560914 5.997256202823591 1.0290287615867117 -0.3992082458743254 -0.6805704925717441
P 2.2442827576754247 8.515998057559209 10.32424723210533 2.7655366672105535 -0.2968973662185403 0.36993880748624675
