# total energy = -381170.3183720556 ev
CRYSTAL
PRIMVEC
9.27009855583903 0.00000000000000 0.00000000000000

0.00000000000000 9.27009855583903 0.00000000000000

0.00000000000000 0.00000000000000 13.56772627239092

PRIMCOORD
 96 1
Ni 7.5163718250308245 9.229068834515765 4.813259368310524 -1.0919997059922935 -1.15123329484263 -0.061899565718274034
Ni 5.075480784607233 6.107808200229287 1.2409760068936522 -0.18868400503539118 0.9636273533627662 0.6473029887678659
Ni 0.610814192376771 6.869226263437668 11.046001610197841 -0.0260496458992003 -1.1891796921794164 0.5422765099531306
Ni 1.236556951039026 2.456288673682527 12.056701886510385 0.8712944108552995 -0.7037888396697363 0.6856502210874966
Ni 8.549793112251045 3.4281194278670077 12.957259489995698 0.5903779934460478 0.14390850059191346 -0.022558087806174052
Ni 4.71020183160599 8.023585252943295 7.556178554095962 -0.6649592683970483 -0.463116357382196 0.4623697090241585
Ni 3.470706259409179 4.976494675071469 2.6163054023173418 -0.5900743461626999 0.9920249306688528 -0.411350280553498
Ni 0.732422122768513 0.7447708207000163 8.630864756842264 -0.2779071982692827 0.9442337793275029 0.4391019967454695
Ni 7.770780402489106 6.0330448575241045 4.311172304752171 -0.4082443879346646 0.02676184147487649 0.03631297549842133
Ni 4.125972427103977 5.763729962016233 6.725101264300621 -0.3851193718814271 0.05921404846631092 0.6932617148861674
Ni 0.5688521654593153 2.8528356682144063 2.5445316663105375 -0.29132115768234346 -0.07331372109248664 -0.10670540917905494
Ni 0.06644991855911857 3.5626192839500206 8.055783085332374 -0.4023388210835071 0.2829578733193127 0.5476562862078053
Ni 2.0828520341864842 4.426379232274982 7.116761063014251 -1.3827835031139282 1.0526404874683806 -0.8020144935125543
Ni 7.830795018815622 5.5142159964548325 6.98767772536182 -0.22959385587587555 -0.5238368151907044 -0.34633068114900356
Ni 3.763279831525518 3.9364452675742236 8.552131031039668 0.6183245992576448 -0.4111487060656532 0.4673386229936597
Ni 8.857671616643422 4.055556760496591 5.402587326871786 0.5419978023704473 -0.6055940390648538 0.8365737195446623
Ni 6.32548864826439 8.469838514503717 2.92351924066236 1.7742871812551442 -0.01110793698770345 -0.09171562063844206
Ni 3.9435276226674363 3.028911915126029 12.016771865137997 -1.6762810996223 -1.87514358785259 1.196734364598223
Ni 8.79945539938508 6.2466742726066755 13.257106381230013 0.41195423268608405 -1.3527612457202252 -2.2871248171218674
Ni 8.889004548862086 1.5866978335334412 4.342540463344334 0.2254636357575859 1.664645829376217 -0.3044556381817724
Ni 7.1499341097433895 4.174260369094219 9.495671299264114 2.339709790307435 -0.4209649208251266 0.7689765892209789
Ni 1.9082868132960569 2.6981269978601845 9.694831944936363 -0.688800336680704 1.5815207786202636 0.39584472871873116
Ni 6.753479816194406 4.5775374549843075 0.22011292182627926 -0.9256439321404574 -0.39913676920644164 -0.11311079848476649
Ni 3.019474955067272 0.958657944515037 5.366035329316109 -0.240245936273083 0.21294879112002682 0.43093771576712236
P 5.065932583369001 6.66166876273475 10.361454910045685 0.44668238019588874 1.5902962108200482 -0.40946360505374646
Ni 7.161234359558345 5.309309743862723 11.601721754420186 1.2839392418505051 -0.5860613683485649 -1.2677574898843198
P 4.082189752882455 5.063336955847929 13.105975041805728 -0.7719827230371543 -0.5788579086215901 -0.06371630721203865
Ni 2.587358593398408 5.956696328011409 9.633017075522018 0.14989865673707733 -0.4746978915722082 -1.1902551846317824
P 4.064159411709289 1.1470912324466243 3.4403003370194702 0.6103058427182264 -0.7554374170839635 0.21952001657964132
P 2.7008709469538896 8.689502763572783 7.096327912364436 -0.6135456898117627 0.5890880709900306 -0.21289325529174302
P 6.142172454588631 5.122118649101935 2.8588417648962023 -0.07806100596948493 -0.1975828501869178 0.612980561336912
Ni 4.936067776430761 6.813262680063683 3.6762706889798458 -0.557873078839807 -1.278574635104482 1.3707157733161168
Ni 4.943706337421347 8.757554555116334 11.427580177021591 0.11929944379398164 -0.5186509001143906 -0.9529891569226299
Ni 7.085191743289205 0.7370145294611539 10.622009562669932 1.201741588004827 0.07526287439905748 0.3942635002745404
Ni 1.1876942629548326 6.75767917071957 7.418669624108163 1.0379448331294188 0.7688338929955275 0.5513139375650504
Ni 0.5373449553928088 7.595668245799596 4.055488161769249 -1.64598039175623 -0.1708513477293445 0.14177885584342034
Ni 2.1012160988980737 7.037895701815945 2.5566476847749735 2.015874204937154 -0.09613946073775055 0.17654994077601852
Ni 6.255091521853583 1.5663406976895997 3.3132249026565543 1.3350784837284813 -0.6220858660722899 1.614661269927974
Ni 3.5823924036016206 1.2385036716798303 9.808652065755059 0.8082784721443951 -0.25976935101799137 -0.49443239388665816
Ni 4.820590162037896 1.4281606125856374 7.356203993793891 -0.5392842600940262 0.008286665488824438 -0.6097108894467047
Ni 3.1297056938282553 7.038442637615028 11.594883202911989 1.1437403288996946 -0.27099735852332685 -0.23835874655269915
Ni 6.125986862975085 3.4424046493311966 7.433756709074398 0.11957275206002634 1.500351823149416 -0.40887893619487004
Ni 7.298478164735063 7.92301395660002 11.83953685594018 0.35244322180464466 -0.15328479960049088 -0.013271777408241661
Ni 1.788442982608815 0.5948047326307262 3.3013665929245684 -0.17729298958963013 0.1463363933071157 0.34126226548716065
Ni 3.821078894360833 3.313800575760335 6.207926188766205 1.2646395130806285 -0.055353794179956284 -1.3634446935760003
Ni 4.713335124827857 4.637468640426218 10.873677899073826 0.8560734801404869 1.568153613284738 -1.194831234038239
Ni 4.294586244892517 8.403538771536889 2.0787926581454923 -2.067090065689337 0.4523655466235952 -0.23051122548382236
Ni 8.8006790523593 2.711373968315945 10.408264271358743 -0.048582022673761494 -0.04949630695791475 -0.017600743800898717
Ni 5.621786217006716 6.560151916365938 12.608799276321177 -1.3450253105285481 0.4099906812018101 -0.15352956862144526
Ni 0.7649017661455929 4.980119283502681 3.3492475775998987 0.044718425953297176 1.314860871130026 0.3446584356529032
Ni 1.681215755693645 4.817558839897215 12.174497025475638 -0.17857545584647955 0.30285204114007847 -0.8476423186539981
Ni 6.241177104320975 8.511405635234038 0.43542671376806097 0.03212593400026725 -0.2575846846618467 0.15776160442492185
Ni 7.873789734682534 5.870057989397319 1.6704179452059824 -0.0492034583078443 0.23213384868890988 2.2949468842694474
Ni 5.026803498488831 3.443322389061862 3.804240687827703 -0.817525958884592 -0.30102218702019123 -0.38760588574870664
Ni 7.485530208021508 2.3197308557792353 1.309744377034986 -0.18486077463455902 0.05492287729012476 0.6200858049231257
Ni 2.2892507726032103 1.9713883723529915 7.408453048783255 -0.042300303430107794 -0.06354995683750346 -0.13348087750068624
P 2.740111273013535 0.898371714308637 11.710114232690353 0.66924144071217 0.11168923554689152 0.8610997297104848
Ni 8.31564896965371 7.832065022281291 6.444765148936311 0.11648151472921231 -1.8511297414364958 0.734532034389864
P 6.626108665696053 9.03122639682029 6.898659752516804 -1.2656201318263427 -0.24289083009509785 -0.6197559323875327
Ni 3.1885893581634472 1.6626477488196856 0.49704691111832644 -1.4513676799412294 -0.44977053220290936 -1.1740541493918877
P 8.189102857903126 0.009792004823246693 2.0243178525568086 -0.3838111945929648 0.41787908281095126 -0.5149528824375132
P 8.95683385804669 8.783047325412584 10.847207133408029 0.5864750588472157 1.0657924514693065 0.01949693238234707
P 9.200007076378041 1.8120724631488663 6.885756702707585 -0.16516381042626394 0.014746047960922992 -1.5314583147462335
Ni 2.9223243249928377 2.7521345904950754 2.5642324791954794 -0.3037575836734833 -0.7524305119368395 1.3691947086859
Ni 6.934738048049884 7.563945969452772 9.154931223445127 -1.297511838328617 -0.20113251521138908 0.46183466245629495
Ni 2.892344827124448 5.381412568358806 4.7276472295770855 -0.7560691371306915 -0.514888604858481 0.997301862797076
Ni 1.2891647588321953 8.651866164517228 12.643967248202223 -1.1448153071314282 0.5234580916950469 -0.10230522322883025
Ni 5.474345303711498 1.35410179735046 12.844552707981576 -0.193156438984448 0.4703118466893707 -1.908659203111532
Ni 8.772470143264213 5.865218998090176 9.05805776930955 -0.592193963608864 -1.1230738016892787 0.25562267583946946
Ni 2.739499446526425 7.7723377790017505 5.026924009766595 0.29267458638644434 0.04186681543711499 0.44478979115886624
Ni 4.960401784440818 8.910854170530545 5.277329758783451 0.7931369885172663 0.7774149497963192 -0.9791465320442877
Ni 0.5728522128712541 0.014356601221018797 5.710181239246675 2.2438654922126 0.9125289920250542 0.8400238828767921
Ni 2.2690604985285803 6.584356142999941 0.09231071175746308 -0.020423043741042247 -0.7521021820631434 1.214943945627714
Ni 1.742027600473062 2.960563480437212 4.753954841512987 0.16341263206311213 0.2363815682216703 0.17932801774178794
Ni 1.940537485245385 8.64569227905639 10.24440601399274 0.19136669407387688 0.514060709640547 -0.47172903875187144
Ni 7.319502747655752 1.3303425354343554 8.096974767081967 1.482626380845195 1.1957442327708117 0.14455616147824138
Ni 5.921117690776134 5.584029106673398 8.500818255977547 -2.2169241877370656 1.5129052343343945 -0.7819822574520274
Ni 0.43980127315089734 1.4109367699636624 0.8223346600984708 0.4682058560899614 -1.2416350817656552 -0.3526669077796765
Ni 6.633265181575583 2.2121791754239304 5.661337091359061 0.6038983965299858 -0.545122721152674 -0.8645702047575884
Ni 4.762855989890608 3.5604964314417145 1.2808244514010914 1.3168416490054804 0.5619246232013612 -1.0718494562966638
Ni 5.801626123823896 4.727314433048491 5.455365704473484 0.8364739607420045 -0.13388916868269846 0.05651027638190268
Ni 5.582916694878652 2.7163890914905884 9.456338272221574 -1.426125617544989 -2.1267067489107054 2.0202674489088435
Ni 9.049043525732795 8.023557442648428 8.816036824195589 0.8871614597945432 0.8812615493703404 -0.08491530988715698
Ni 5.606879898957128 0.22228027080637497 9.108991397351627 -1.3475043681966599 -0.6900033558498697 0.34082312106721296
Ni 6.055135501748091 6.916234931863952 6.010231145633533 1.0059939912544351 0.5712412726165969 -0.17716931952757228
Ni 7.757144087905185 0.9739999571842344 12.982346229986865 0.9707094570205282 -0.47244920474734753 -0.6379310606346628
Ni 0.30854131642008076 7.60618053725994 1.209295445989131 -0.8363294647443403 1.712376816903593 1.1475229358705785
Ni 7.665703838377111 3.525047575582493 3.447613517560092 -0.7478683464874539 0.8193424432680405 -0.06199238254239646
P 0.4070351837366706 4.598191233973415 1.1819208457401038 -0.2520455000111723 0.20303153200631485 -0.8490890784028539
Ni 2.4727709084413383 3.883253443588813 0.5734779445057984 -1.0027957960321117 0.7096923496383649 0.029082262077937012
P 1.972704726310107 9.043852270690651 1.3524470848057764 0.5865151680565318 -0.48757474753487645 -1.0867176316577476
Ni 3.5387117004612834 8.684951145312615 13.336341619350073 1.0956707270859776 0.033612288737806625 0.25577282826408854
P 6.826500380421154 2.655271333467617 11.530992758490612 -0.06755290734930947 1.2506092602398073 0.3382808142613335
P 0.7616961661570681 5.988205392097574 5.557747451012708 -0.3315221553812613 -0.8745874797842743 -1.4288522724475328
P 0.8779691549831768 4.782758890918261 10.193853386990364 -0.11818281369103519 -1.8139814145209725 -0.225953688020127
Ni 5.2129470721429 1.3245487240033897 1.4177187738722936 0.0014521590654942734 -1.332398622903473 0.9615702137234214
