# total energy = -340864.70020008134 ev
CRYSTAL
PRIMVEC
9.33736676261765 0.00000000000000 0.00000000000000
0.00000000000000 9.33736676261765 0.00000000000000
0.00000000000000 0.00000000000000 13.66618009258796
PRIMCOORD
 96 1
Ni 8.83347576950776 3.148774833299736 8.290205361317991 -1.633246746239645 -0.7814536386420671 0.9622785526443556
Ni 0.6978953343794922 0.9407490391514863 5.772812997705707 1.7912430923831928 -0.26049080256504814 -0.07889070095963187
Ni 2.3155082230042683 3.9704257593369383 11.037626556447666 3.140726438683094 -3.117197759433535 1.27893073289232
Ni 7.654670564629213 7.849644120092903 2.719610781950562 0.4533621062089095 -0.48442771726546247 -0.26910168416251073
Ni 8.698111963485198 7.038777852671694 10.17915839324781 2.2349720463777123 0.9516056463115418 0.9336614031282954
Ni 8.999578186927597 3.980762224348111 3.0806578089971084 -0.6800953527075384 0.25824083018860683 1.6753534456017083
Ni 5.047929872159283 8.056457456617267 10.072466839356967 -1.8125860768353428 1.4690206171363025 1.445274422559298
Ni 3.9178003602375964 4.7478175668981155 12.863018265320525 -2.1168709937672063 0.6777767318766909 1.0073163096102844
Ni 0.4725109090920543 1.1444997193762443 3.472685285240196 -1.1372061273256027 1.1254428161420875 -0.8283238208310445
Ni 2.3647068085000864 2.503926946997458 3.871122863768894 0.27193092608118974 -0.7773617279608805 0.17399992066065517
Ni 2.6248925334651605 1.4842958333975615 7.896304809301424 -0.7021358774473456 0.22350188404552476 0.7416071960690905
Ni 6.369942271144751 1.1825401515853853 11.497985816429024 -2.192401005784721 -1.8266081021460479 -2.91161132221585
Ni 0.33597713101357585 3.2437451906878487 1.045973692723222 -0.10655062876874552 -1.7070914001349373 -1.3691463719464678
Ni 4.523982210757339 8.482456140632396 4.837103335398421 0.4337615583691626 -0.15701135652245862 -0.42932897651910573
Ni 1.2860261874650878 5.11175077401237 13.061998484863974 0.31749807318802736 -0.48445368540739153 1.025796113582027
Ni 1.0019461409430204 6.161130738132228 3.4708813059807935 -0.7895456716215822 1.8944551436970083 2.1401451338037982
Ni 7.3762956492018406 8.450802467291947 7.973191488471707 0.9925021274155875 -0.9447541706073471 0.8688518628520777
Ni 5.412105850809483 3.2660708346279708 0.11043863917448085 0.055403159360652966 -0.34758537949171103 1.1220602728231
Ni 4.338336684693976 5.652524370328619 10.090369372659515 -0.4329359771440738 -1.1632933113309578 -0.7322663782841389
Ni 2.17701639911473 4.482421591277003 2.4721434842589467 2.6870516863297724 -1.8504789952263743 0.5508722220419416
Ni 1.1336216870925797 7.57724511939647 1.486674994449817 -2.8758927857683183 -0.661427601094706 1.9806462349727956
Ni 8.49738659009298 5.684019308434027 8.236784418570094 -0.34817801877038745 -0.10276005137806174 -0.8307707397096402
Ni 1.2517207019627845 5.262623946235076 9.918024925555878 -3.397565503428168 1.8166437918444842 -3.650191301422843
Ni 4.609167007773537 7.118490952762375 7.796623750379313 0.29520326634556904 -0.04546661697323137 -0.23795945423175147
P 7.293183747607936 3.56061806929595 1.305297578735693 0.6692522393454474 -1.1738289207549593 -0.2962543333179027
P 4.504980669386302 6.714220321214274 12.202573241570493 0.03950294319062874 1.2342017654160615 -0.9778188143717998
P 4.756781438994525 0.9676686675410183 12.835522521401462 0.6522006831797993 -0.6569888485970621 1.009696379806687
P 7.964064212456872 7.458315078883994 0.21440461570601213 -0.37572173271661097 0.4614083735521537 0.7244062588097717
P 8.980259175086479 3.1044410158895737 5.968840741877401 0.2866852015722289 -0.20085535029060247 0.05992418715945808
P 6.271685160654622 5.399696490376016 7.675473284049622 0.9133522592572979 0.6620217830352791 0.03579129866699642
P 0.11775726724652912 8.417692164735833 3.838242260435249 0.2892642751533147 -0.08171351512040766 -0.2713264597279714
P 4.585356722517448 3.159624853483099 10.686761927860637 0.9992564154202855 2.4321075246145663 0.5153956264018865
Ni 5.65926594913446 6.341920833476702 2.6226216858674034 -0.02699966851729544 -0.5228307425236931 1.4047772337762
Ni 7.378807400862188 0.07240847806878374 4.649439070640013 -0.5078489244028802 -0.18367755295973529 0.022632649797851345
Ni 3.9855709682331653 4.396825950123052 4.203156824796726 0.14026730429490036 0.005951075377112332 0.06065823711200521
Ni 8.702911370003486 5.3485183831255725 5.546118539860846 -0.5388253181797364 -0.5630469097312626 0.13739589628437626
Ni 1.3253178268210195 4.129394428546714 7.570503540590628 1.4882786940349657 -0.6947989774663001 -0.4727320260950891
Ni 0.3420884375626389 0.11639961411859365 9.09951695717248 0.08101854593591208 0.10317811275208683 -0.280691188772323
Ni 3.3703505466828765 2.4819374482609518 12.682283260439977 -1.5243039630896393 0.026536612837947844 0.8531568207143242
Ni 5.640525854032903 0.5803033385247407 7.279317757958802 -0.7992145621699138 -3.2581158099385563 -1.2136252268162906
Ni 6.336000942946364 4.082436811074998 9.368672156654023 -0.3947244990713589 -0.8653597905384194 -0.09979942608784102
Ni 7.376127576600033 2.2358418097474226 12.927400342916314 2.596053660583645 1.596688230389321 2.877391224690715
Ni 1.3720700222238589 4.272825719456044 5.026448326174907 0.781957317751363 -0.35886660883248517 0.499810627479436
Ni 2.6226235533407567 8.617044945213289 6.5016579679714095 -0.08678758720920537 -1.0586553262038927 0.6063208899285494
Ni 7.8210344283185265 5.651469247883938 1.6499453885291926 -0.001392766582468569 0.7790766537694583 0.6535312290657649
Ni 9.111374479230012 0.4059457551461179 1.3497509144404742 -0.31767985018153033 0.08445071154591262 -0.4509838357847201
Ni 6.3863947113883714 4.315870980252347 5.70513856458784 0.4496622887598192 0.926296992343424 -1.5996627396366125
Ni 3.390397873131827 7.07185080576074 2.5697068283982816 -0.6126172644602224 -1.0644909590490634 0.9251173702130261
Ni 7.511426021055224 2.2199869609768967 3.8925932049131498 2.5888944238310447 0.8733975732412314 -0.36657683299254934
Ni 6.223840493340032 2.5923798223821395 7.007703096070805 0.4131294839411079 1.5227466459048487 0.22185972045641145
Ni 2.8438724588870485 9.142141102727587 1.5930798911809134 0.5990510957400135 0.9934516358130503 -0.8302570332980153
Ni 3.414815087227778 1.4726708117725296 10.50535650004621 -1.759272453013867 -2.002420136314777 -0.2763894760731756
Ni 4.249921158776362 0.9242937976978366 3.1432760580105943 0.7476132930538544 1.5994297976902003 1.1623139781368241
Ni 4.3008378197573265 4.576925080326761 7.406071578085426 0.04052161426313021 -0.7786974160531686 -0.3112862879503607
Ni 3.348883940485327 8.804996800868123 12.066731362369456 0.5596101161355717 -0.7418869320930385 -0.5144129507736431
Ni 1.6012276774218797 6.280023429177636 6.618776559331069 -0.930044118090682 -0.06512372908252655 -0.317101351970241
P 1.5065281036700122 1.474893105063098 0.1611321370897108 0.17511835053581454 3.3036965838921493 1.249900407098241
P 7.1141023903818414 8.702621911633706 10.30878251991864 1.241151200150701 0.8239346906244132 -0.3971727035015354
P 5.117521266674435 8.461867246910954 2.483035522592762 -0.19648370358546807 -0.6199014568264614 -0.6101826868768007
P 9.22143402131375 5.172845164769466 11.504040165040808 -0.33835640469427536 1.1688327530919482 -0.38521578824997527
P 1.236864951436338 9.04875809768988 11.30880516330764 0.24943043098582848 -0.4432101053765722 -3.3097636160218356
P 6.319744587404854 8.006595918080986 6.116640986697056 0.04251859008850097 0.04792741980889811 -0.6787990024936181
P 0.6484455737176392 5.334176187771317 1.5312543846059539 -1.0771631552000933 1.7522803379667498 -2.337308122844478
P 5.679070504047467 2.2642180673526213 4.69833699292593 -2.315396924593683 -0.4338235219553497 1.7845831638645135
Ni 8.587538866229272 7.736372523841286 5.717643166162333 0.5815873917376112 0.02894110851438242 1.3841811547924032
Ni 7.82963414311102 4.8978036892779455 13.069200395851434 0.89434152248275 -0.24553855213059006 0.8286436660643083
Ni 8.73136232654282 9.182571900829103 12.458500193553096 -2.748758162200634 -1.7309610076636834 0.9542999053142533
Ni 5.7034877181434185 6.304029799135835 0.22448990555115036 0.001664017965984231 -0.30780604271124407 1.081612963441331
Ni 8.580843974257265 1.2654279563768784 10.827112821473502 1.877024864035703 1.1384073467225555 -0.47995374065450885
Ni 7.3143142086018695 1.3669904947025597 8.96729610880372 -1.3918047327759322 -0.001568887149016653 0.43649464102960955
Ni 2.6986670682919702 6.906205919312494 0.1513951310249852 2.0626603120527576 -0.4015998860349535 -1.0201471428263658
Ni 2.3454811703266403 9.178127314247966 3.942979503461742 -0.9141811829164966 -1.6334112968419674 0.5268614609496409
Ni 5.658397574025121 3.0700608314531337 2.6934129320121265 -1.242734228367105 0.5638771189420417 -0.8755513863594404
Ni 1.391855902403331 8.913235556432278 13.352637097803248 0.9673387407760824 -2.1806767753692573 0.9532138713389262
Ni 2.5100242474963705 6.41441614905642 11.37466254485263 0.016758193294945333 1.003050335245079 1.9913942175179187
Ni 6.241142633959457 8.965692882929812 0.24220008909829754 -0.21147323501576482 -0.20836785661756374 -0.693450948078838
Ni 0.5874707012551621 2.845702582773399 12.133080823143073 0.1527754640642401 -0.5575774019762592 0.8462768057650394
Ni 6.585448696129281 6.530937148942986 9.839745111263946 0.10657556846941 -2.559217465591902 -2.3728662224547454
Ni 4.849650888860042 2.114978934314158 8.790155056391828 0.08636464073917384 0.542495310832156 0.18803428726653423
Ni 5.95262733822302 4.858577411489385 11.867027496901557 -0.20658351102363132 -0.8512292646743082 -2.206310930997594
Ni 3.0244664695294134 2.277337067660388 1.5980819185580455 -0.15020436090295422 0.8007646802658531 -0.7833572834226832
Ni 6.621546956050866 0.5612523091098388 2.322143355828965 0.40661790807483517 1.831897375569445 0.2763066865513822
Ni 5.096353456213433 6.24630619778166 5.3562683975422605 -0.1685167860588969 0.21594541185450553 0.1127115061638188
Ni 8.114675938410098 1.1904769133374151 6.7978448442436905 -0.7076537219417812 0.08020864844010703 -0.045621140273224656
Ni 8.012478459144255 3.5770798469063374 10.961150721415137 -0.8210365431410118 -0.38622211802730255 -0.8799109488797168
Ni 3.4154033413341045 1.193147400232804 5.631367764707737 1.3144638928019232 0.7329690607781183 -0.8239683720758262
Ni 2.149368456117365 7.672999815593019 9.419551468167919 0.411252321523053 0.5423767829764207 -0.5361292594048122
Ni 6.786435515790979 7.2347785184797635 11.992619748602355 0.48831753923817195 0.9028125360682386 0.4730508428870885
P 2.675248952440098 5.607452900943857 8.420020904007545 1.5197456542949956 1.0292023110500985 0.09712522168978757
P 0.84118843226067 7.965399455904567 7.626548283400079 -1.7005155466896327 0.87074779432321 -0.2925933395265477
P 1.2737102006992909 2.510407079533821 9.544009229806514 -0.001870734660151617 -0.023250228777192215 -0.1769983411673468
P 4.219640078350677 4.869894300011103 1.78638859415003 0.4756144898492068 -0.6777708183394199 -0.8746003353000809
P 2.7274728447684553 6.781262614602008 4.896469379566929 1.6963423891485494 0.5486541313447003 -0.8537576875231168
P 7.170752194557799 5.528393416526872 3.994350894204263 0.43618096644393267 0.5635577879294101 -0.29310524616595973
P 3.0628990711427724 3.194182447888114 6.137960062499684 -0.695508344828499 0.8113553112975059 0.02431415126533232
P 4.041716554603701 9.177305625972462 8.566794972219496 -1.224185261720324 1.223787769171589 -0.34270465436064207
