# total energy = -340855.4396974358 ev
CRYSTAL
PRIMVEC
9.38759855596712 0.00000000000000 0.00000000000000

0.00000000000000 9.38759855596712 0.00000000000000

0.00000000000000 0.00000000000000 13.73969939966345

PRIMCOORD
 96 1
Ni 3.4678163935981896 6.525244536223086 7.607520101246391 -0.6652791136303123 -1.4793201992900975 -0.43361654815086614
Ni 8.419849642166678 5.143596581200957 6.914599873016087 0.3959221189238859 1.16858027076151 0.004604074430914652
Ni 3.9959908415007974 0.4493477230284737 12.038106054914547 0.05430067032509358 0.7211185891974355 -0.2042990858648288
Ni 6.136466536730726 1.57769855968235 12.945063526309623 0.2848995704267158 0.22584287347387558 -0.454012852419031
Ni 1.9410643303480852 2.2844439040533904 10.899139722007568 2.379249243162954 1.1952541805082706 -2.144467415328236
Ni 7.4240883063345064 5.250502551602729 8.956043915369094 0.11001570449921054 -1.9827841072514047 1.2147927647618304
Ni 7.430669012801985 3.3749354951827404 4.032203502268696 1.0516935501740792 0.80997565734116 -1.159408631564571
Ni 2.6817833932723403 7.8045582812566545 13.337579667478655 -2.449392022726627 1.5941888610062351 -2.8880499899561425
Ni 0.9673263003257632 6.2446398329143955 12.306950913727075 1.4738563479620488 0.41246202556043804 1.4727515449336441
Ni 6.452903703072748 6.705833766344168 10.773778671941864 -2.2092083071500466 -0.47803878301998326 -0.4602637184247493
Ni 2.105985658765571 6.715418504294661 1.3954862138006017 -0.1760514038730452 -2.2156494347897002 1.2553676008603991
Ni 1.5567454400883254 8.630882853848433 7.5472855149726 -0.7218685799895825 -0.5228862783519769 -0.11411738537240991
Ni 2.5077279316268135 1.1412503355939076 6.564498778867536 0.42362369860421234 -0.5998005723115283 -2.255849404047354
Ni 1.5221709152385077 7.2114967533209375 9.570387128842292 1.111105830694125 -1.4068323165330159 -0.31812156570463923
Ni 5.9037855231744985 3.727252062550013 10.60377771403857 1.391154757896759 -0.02203538253348463 1.626062312676064
Ni 5.5268265100481235 3.737869436322792 13.518119143328303 2.3409817150413232 3.3970096309246984 0.5191743767180285
Ni 2.675362275977397 4.356465231864131 9.251324251232148 0.9168684999406725 0.7134199350015971 0.24774044487791524
Ni 8.609732594688335 7.386134246066297 7.084971641055566 0.8803976587081482 1.2128778071273048 0.7484046786068981
Ni 7.554181644745795 8.92893910255376 10.099942492467248 0.4599433589708531 0.13595967805848197 0.19406121018690448
Ni 8.558326105935253 4.683632423159543 12.497809237720872 0.2348085673075956 -0.10467680878480037 -1.6372805499893865
Ni 5.420821749091256 0.6901095812740099 1.4545670642329471 0.2548536588839288 -1.4497553411487871 -1.1674793243878474
Ni 3.378540332962358 5.011428583546711 13.834090684790455 -0.20816319680592535 -0.22913594240285054 0.4682994442450322
Ni 3.004162909391699 3.32414858792303 2.433108728348577 -0.10667121350700984 -0.31593535668659783 -0.7717392395677806
Ni 2.111683930984914 7.163986117897388 5.464965052974313 2.25092779837602 -0.1939444821033821 2.9742477661001487
P 6.088796312134643 5.701257475629028 12.699411668065641 -0.6553202026453875 -2.5807278288598523 0.6042958890787206
P 7.321341042017033 7.268732940670744 8.864909110253148 -0.33315634855057463 0.9627526640672968 -1.4823263331062728
P 1.2339622572384372 6.051781011704876 7.296797166040967 -0.6452813303521469 0.3401219812351304 0.551278713451741
P 3.6222329994235096 8.478813147619217 6.479422729748894 0.24188732853124795 0.4670272624008279 0.4949468716292314
P 8.51225177306452 3.9252740628709635 10.471863181540703 -0.3054627392900481 1.7167584909110565 -4.98536363041671
P 6.18526327313294 3.8334070250810317 2.305040294908807 -0.6279163567111379 0.6305378534943851 -1.129442424219784
P 0.5209713436622425 9.026138296226042 9.443089417229883 -2.4965486258077716 1.435900694653882 -0.2225947988502231
P 4.1259809163298575 7.9649172368593115 0.9270272179811261 3.1999039774845146 -0.4099117483347586 1.3187329524909224
Ni 9.0720154895307 8.326105084699861 3.251417230679899 -0.5468828983768904 0.8516290712158883 0.1644266751499233
Ni 7.299402224592644 1.7253936450644258 9.645735748514998 -1.0503856299959329 0.5707275662049719 1.846195537359672
Ni 0.8005096157944629 5.119348414574001 10.334369599322978 -0.18839398459879814 -1.409750261510759 -0.6411580522123925
Ni 1.222377960832063 3.6516255699651277 4.116853354420686 -1.0324208179873962 0.38242819820250906 0.0941496840012314
Ni 6.5256012649616935 2.520804856176311 5.8570418545389575 0.9553831110761031 -2.192633433510501 -0.3553118016016913
Ni 7.552801667783286 6.993535494031479 12.796084217468557 2.6489538510167865 2.1389603694670773 1.3979180447625215
Ni 0.7938716449768397 3.7918950650251277 7.968902272373499 -1.3870965286669854 1.9003977344336882 -0.8857563519169004
Ni 4.297210710861673 7.533275463143693 3.0537575916565878 0.8754320871727568 -0.5881218504220194 -0.8721616439516011
Ni 5.087242828099286 4.756498961819409 8.808754374237227 -0.8101258097657791 0.6390394632074929 -1.302154479306951
Ni 8.758817044631305 6.9246305218898385 10.812813244784122 0.4993732828317013 0.9330942177709155 -1.0803500375685073
Ni 2.7206574381822226 4.528361545881241 11.6626959955216 0.7287599077927772 -0.16509027687585115 -0.29483868391729867
Ni 2.317676002334236 0.14986455936871515 10.315710808774105 0.07917712185179913 -0.15561499039556426 1.0838282259250946
Ni 7.633281548732915 8.32223739416548 5.192699353310503 -0.12935579958871915 1.988941899322684 -0.006888756700033297
Ni 8.283870279568356 5.309982374966412 0.7656065250011903 0.17331343611659183 0.052326577317858274 1.8070360935513912
Ni 7.137419214469481 0.5901288422004244 7.58155212659541 0.8724442081890265 -0.6935136829959734 -0.3987899273899842
Ni 3.6904057388911657 8.47499239507676 8.899683590948554 1.5994575656043422 0.40218943998983636 0.1203926768581604
Ni 9.054714145708214 1.4711962560111083 3.938374456416421 -0.2247853787436387 1.0723073697696888 -0.42364169632634135
Ni 6.134739218627994 8.912989572898631 12.047215780386786 0.17309669212009546 -1.3628430554362592 -0.3451795982636959
Ni 1.877144172948571 1.9936536564976044 8.481997420991213 0.11840444278353802 -1.8304462449452155 2.4251570614386617
Ni 4.38891815947907 5.28147223867293 2.189861034050846 -1.5195206827683831 -0.5047977962813822 -2.476596351055561
Ni 4.3187458615555325 6.644532748893907 12.29659076015003 -0.4840327958198889 0.7130972615548558 -1.4131461745661855
Ni 7.876805238423148 2.858626971638039 0.3206531367764635 -0.314634121376671 -0.25601631173346234 0.19318035024384794
Ni 2.8512670945046543 0.19293016695724072 1.5448644955730038 0.7401144135736479 -0.014755561042619748 1.246589083336821
Ni 7.643880147308926 9.132987941037507 0.38243667678368354 0.06862557158819795 0.3398157628486212 0.6678725853891014
P 0.5163761142530691 8.388194660414413 12.255330387730828 -0.051252627527389155 0.7740843427611894 0.7796811201226767
P 1.6175583024225964 1.8657757913050388 1.324321646727831 -0.2996451041670065 1.2067326134615153 -0.9905923119873843
P 3.620430580533701 6.421530349272016 10.06949569462706 0.4484574698184406 -0.6650829384591062 -0.2198509175564988
P 5.1617240336812715 3.0253694941421023 7.245877893644036 -0.8110879165687321 1.787329102040767 2.1000593215265058
P 8.471387557297142 7.293103146076698 1.4960611878519208 -0.7770930476805261 0.608151772489701 -1.2584182147612648
P 5.98101729508312 0.44693323272400093 4.70003537381664 -0.19942324582976623 0.11145603649016288 0.029916327943458155
P 9.04769222211667 3.7765557292649854 5.620608617908477 0.3271615644197204 -2.953282219592075 -0.9004247525623525
P 8.10635079411898 1.4405363596875935 2.0186913201486902 -0.3840621342615063 -0.4957066326133914 -0.6579170168382863
Ni 5.220875291101501 2.0404132840503992 3.207574329945144 -0.31729855558271164 0.5368792501969593 1.2775343667654255
Ni 5.494345419638032 7.319688824701375 5.401240157621196 -1.4009444902936712 0.16741326858207298 -2.4957055610811856
Ni 5.617970702762456 7.802286482447625 7.446944292121053 0.9544567426070918 0.7890263087830024 2.761221841885283
Ni 6.623298001348349 8.322988402036234 2.9076499491613172 -0.1231761531405685 0.8719508134923757 0.47763563404429354
Ni 3.5839785360069993 9.219522822945088 4.387621732142181 0.9896926829912505 1.7582008172162429 0.9846150113580268
Ni 0.43697392959797 9.283987461050899 5.33950824940509 1.5813243463387412 -1.2812077018519548 0.7441001376942733
Ni 1.0766824339058687 2.972169974097596 12.665186361875723 -2.115147583318196 1.6253753139113685 2.8342092899866027
Ni 9.377431615369414 3.4941955450584086 2.068223105504404 0.7101011550410093 -0.5220357574262235 -0.5086827331580852
Ni 3.05121355249441 3.3919270482585397 7.170378133637341 1.0202823828526495 0.9653546204665181 -0.9686276347908349
Ni 0.676590500840607 8.680505698908476 1.1580438103437962 0.05613926619572912 0.46968681151086206 -1.1764815278864578
Ni 1.7801796692358995 0.8351254460771722 12.984909187652292 0.0373756124349808 -1.219448261255971 0.46305002292063474
Ni 7.649381279962196 6.019666037631776 2.9765267585078052 0.8424759439617103 -1.0046102235330312 -0.36976705779507285
Ni 0.1699831214663651 6.523855171662191 4.730647393388393 -2.6041462077837925 -0.7653934998554109 0.29203001082391
Ni -0.048853061992520326 1.1714408519982016 11.279083991420189 -0.10588856970471441 -1.7833480059058318 -0.2551632197045477
Ni 2.044008734231632 7.873885695325594 3.3719558714555253 -1.504101005779203 1.0393309148436682 -1.3301537927333544
Ni 6.160949393317293 4.936477998045504 6.180226826599698 -1.3509769001262926 -0.4469690581983722 0.9255860823193286
Ni 4.942241983453537 0.9380013204925128 7.018307488648286 -0.6312562197176483 -1.0549318546057187 -0.3804589902912802
Ni 4.1923512369077045 2.3399058353085422 9.649569643695195 -0.018444065637800492 -0.8497133422504141 -0.33781621592008915
Ni 6.132429869425426 6.793833113599718 1.1439107809760523 -0.7872432487406505 -0.013944635105550177 -0.9153690325770106
Ni 4.013883604021501 2.3331373768733754 0.2014128008574024 -3.3373536098249623 -2.090826490074328 2.0519005024330923
Ni 9.437446531841008 1.4057553076733182 7.03986423081843 -0.17787945822071946 0.28724930160581497 0.11240888732173544
Ni 3.2347880389017383 2.880424975086662 4.790140359389816 0.9518424449126962 -1.9601452868059663 0.24623634952856302
Ni 5.597871854621412 5.464736934333572 3.844202763223114 0.4863650434974914 -0.6056894269921376 2.8758773591493503
Ni 7.889356457463117 2.992550450190171 7.9714021898232685 -0.2233108510806412 0.8275586605302457 -1.1516523846579199
P 7.898359164313776 2.6610461884411567 11.85645320989651 -1.8472108659980637 -3.5830328012984745 2.785158298096223
P 1.8569045108317621 1.2149993085019093 3.9378525059462475 0.2157613208681574 -0.36288472885294276 0.6119629187056751
P 5.24691648901988 0.2753326280560003 10.059232233313374 0.20222934781999363 0.17532866677440773 0.26235330969508364
P 3.787661258153754 4.767332250355029 5.441634993469353 0.9769896336022852 1.7270143643111096 0.30287055308283967
P 1.8800637160461255 5.730865960933487 3.771712667258464 0.9312363386265705 -0.6830066128170624 -1.350349808065255
P 4.380619522507243 2.702069993381071 11.924300199700227 -0.6981874343225588 0.3429897897012287 -1.873154582447019
P 1.2276913415176447 4.747411766583291 0.22011101931948962 -0.6338946857817599 0.42098703231231366 0.485344572652777
P 7.385148548235933 6.235374273308972 5.0193179212289785 -0.03384214536042558 -0.11056489213446119 1.3197333687309787
