# total energy = -381165.58488040225 ev
CRYSTAL
PRIMVEC
9.26307407641800 0.00000000000000 0.00000000000000
0.00000000000000 9.26307407641800 0.00000000000000
0.00000000000000 0.00000000000000 13.55744523671702
PRIMCOORD
 96 1
Ni 6.820873796554205 0.7460303794172375 2.4269587327821505 -1.013381284857442 0.06315297850940091 0.8394500126511929
Ni 5.225096250854148 1.4978390643902364 12.38072642576448 0.1636957105211697 -0.32962519546886454 0.18951524268743491
Ni 6.377626442997388 7.331324751917769 1.649466322553525 1.799275732879682 -0.6803588907815702 -0.21987508592621488
Ni 7.291845530566927 -0.20093367471148155 12.939998412599094 -0.4022763432766878 -0.5989904177054072 0.6829557049744689
Ni 7.719225238376678 7.385356262508916 3.636472577197558 0.0820187050656523 0.5116495290958931 -0.5062445560302378
Ni 3.4879549329731425 3.2839913067591127 6.383550178814813 0.3491424395661858 -0.02840606194651882 -1.6023958222970598
Ni 0.6553198747428141 -0.1296163417452053 11.444991996235393 0.7612763923632437 1.1998916792802818 1.8894188668246816
Ni 6.884872374759969 7.745486053141962 7.470504291251574 -0.6438489687809943 1.1805356433511736 0.2601475602930165
Ni 7.919474371920204 1.1713434954195334 8.332582461631587 -0.13618979179141708 0.7264762539649231 -0.6154719603001981
Ni 2.105441139774362 7.432292258422739 11.685799499249745 -0.2192744762277385 -1.1032369694690096 -2.0064218012750024
Ni 0.9693343778176641 1.2303678028919798 9.339669423808118 1.142737341556477 2.064254910233387 -0.16936087922674703
Ni 3.7322870356411775 5.708397136349267 5.692446122936279 -0.07526493128158651 -1.4409246302310343 0.12850682132486255
Ni 6.7185724073944915 4.251936223478085 4.135020482482326 0.3559172963961741 -0.318632958123419 -0.9289406006138583
Ni 5.5219036676827935 3.8180075223564978 1.9886736079624636 -0.15291224675242052 0.020919523761486553 2.346011821266063
Ni 6.1415662654035685 2.0935751419915305 6.485339319982809 0.09900186988721014 -0.14708407010641766 0.3879239312097577
Ni 4.87788844843894 1.7185410653065119 1.6502666521463716 -1.2485438930703465 -1.110861833004119 -0.33924189262302223
Ni 2.6197084816223346 4.798791059627385 12.20031787040288 -0.9590813858632968 0.5232768289221762 0.6165137713011511
Ni 6.603821446790493 3.6048549267431165 8.447684492739853 1.460970236028 -1.168074020549053 -0.16528696626768954
Ni 2.0731037484707984 1.8658054156199069 1.2638519627556646 -2.029940453222233 -0.8780034474443589 -0.3005347058608115
Ni 1.1029634832158925 3.2584530117651496 5.688826113620486 -0.6216755180077487 -0.3262017716096124 0.10869312903304507
Ni 0.11644795575919938 3.942864496684982 11.88056581929783 1.7983282813647479 -0.18318955757972322 -0.6937764497390568
Ni 1.9686718522930893 7.193203055633769 0.3746450275773847 -1.9333788173453994 -0.4524316239748402 0.8049748616924589
Ni 0.48729604930755777 9.043881871425913 7.040028864113936 1.110207744359888 2.226787967905023 1.0372840596169686
Ni 0.8398569821823281 6.23373385161682 9.76432949309403 -0.6123552690480873 -0.058548132747537875 0.20500665345481467
P 8.821910829372833 2.7638974913706242 10.2438566022451 -0.5939963069249253 -0.688474320799853 -1.442717203355083
Ni 6.281790679483589 6.652424796022748 12.413156447807959 2.1216511887646687 3.4349164332728 -1.4938556739021112
P 0.5269688689048178 9.341439597247852 0.22786698864853197 0.2434644432103807 -0.03478702577219815 -0.09318217788163952
Ni 5.870528720418668 1.4581653184855772 9.46117131273696 -0.3288340670261369 -0.12790569740575392 0.48938403282947335
P 8.400681802693292 1.3177926952216956 6.215085431057572 -0.6582715719642276 0.9019926112701045 -0.9500141334547058
P 8.653545196507297 3.3551224519381644 0.8203776638860619 -1.0909082727003279 -0.44253904745147654 0.10729907689899586
P 2.682530649431207 0.6130913730313594 11.016129270279636 0.9135826301005492 -0.12689319698083953 -0.6033314682829222
Ni 7.729683248912835 3.89774406327345 6.137699858319607 -0.025639297834659066 -0.7424664587455924 1.082637033830471
Ni 3.6703819121574424 1.4004748936678753 8.599202446630045 -1.0292645317466016 -0.8471689785620056 0.032063456193448005
Ni 8.96789687547543 8.652285418444484 9.400786259695195 -0.060060712737322365 -3.0707577228034406 -2.0488398612298973
Ni -0.07325887327484887 3.8318558179734636 8.167018908648416 0.9903025486611072 -1.3633685889224263 1.0150597010011293
Ni 0.9868045353652212 5.804659001266665 2.028044451347608 -0.7803082121837143 -0.5337787568947646 0.13592753926896592
Ni 5.001272594002811 8.363879609725931 3.57644044727486 0.5627592032875146 1.184837613160637 -0.34110568530463836
Ni 3.847565991462677 7.190526027250288 1.7580212129647532 0.4543409251824111 -0.7966899959758472 -0.08220973803053584
Ni 0.23389910243165457 5.355594437243323 5.896729325203008 -0.586321563988487 0.3000112292571736 0.5580687397903809
Ni 6.711662154196994 2.4932675216413407 0.45332557805933077 0.3934044947083547 -0.09150221907605531 -0.4802910693892696
Ni 2.865235520835245 9.090447344380086 4.550448045921126 -2.3453266222735802 -2.68891136524633 -1.9093847684236473
Ni 2.1586389737062923 1.3626908148574375 6.311397316574523 -1.747219378504075 -0.32019130374947435 0.8108210360605907
Ni 8.347613651797241 7.3805765163294135 11.26809414591649 0.25960685729819805 -0.3748496145243028 1.094967530371366
Ni 3.6841375770344955 3.1005546525097634 0.14801188038449145 1.3580728877411254 0.6445313395599996 -0.9192254302086235
Ni 4.241033585390346 3.7641612732451777 8.45492451137144 0.9568463258851908 1.3612384299533007 1.4292896170952676
Ni 6.946805287465678 3.225383837616274 11.32452016113438 -1.2672124160141274 -1.0432179086029 0.07030270218030474
Ni 2.851211226812445 8.415363774969473 6.867578215618247 0.09192130889134492 -1.5348053768415955 1.1548814331181787
Ni 7.7566943726714115 4.939098841373328 12.969797721629048 -1.917262371399511 -0.2657757051130713 1.5518703027436822
Ni 6.724130251789259 9.324673433323634 5.242393188918068 0.3885127138336922 0.09063395753848907 -0.6287265113172591
Ni 4.292517750633889 7.395360382419499 9.013165518070824 1.4712981003165693 2.066700286450086 -1.5837239569191695
Ni 2.0503906910441754 4.875730152198971 3.952713923259912 0.4849172553073713 1.8670315002684168 3.280045263021796
Ni 8.049537193831789 2.3647145807903347 4.151113220927379 -1.1230966845074142 -1.0431168642486617 0.7979979161539935
Ni 8.566796508578946 7.636413356894621 5.845319264551396 0.32354042272736533 0.344106162693859 -1.3879635046529708
Ni 1.3820043241292597 3.8446666493034063 0.593002544466467 -0.7921201172169777 1.859891032568894 -1.1428455849995671
Ni 1.734232712647743 2.338268504545226 12.360851574208786 1.2307415747816028 -1.69522395927339 -1.097882904245948
Ni 6.614288720400642 8.112211152456801 9.772396704233037 -0.11940974411960079 -0.15884686706930062 0.009016858786629632
P 9.206059770865272 4.589176958278674 3.918901850576936 -2.8466896818418004 1.9120941969350103 0.32120046174027905
Ni 3.1637010279083295 9.493446641444784 1.899479468500413 0.7564632872453165 -2.2310374872099965 2.507148769921121
P 5.15124176192166 -0.215240492491016 7.6284897234024776 0.12675847117518813 0.013665927522866786 1.032812654109176
Ni 4.380887476510716 3.7014317361762186 4.118521095089054 0.17247705625822554 2.7319889131620947 1.1027248057192816
P 5.359466402171679 1.9714137221945085 3.7672347611954846 1.539227417168691 -1.7762810717567215 0.4430836071010369
P 5.280072594992404 4.943748904516951 11.95115877987799 -0.929046015843471 -2.036554101884009 -1.9788598324963342
P 0.5356094643238852 7.01613013321643 7.568782727376874 2.808123391532828 0.21879522259847478 0.818833364842106
Ni 7.81948875125831 5.0845291030364494 1.9688524822359192 -0.19287747429144847 -0.0028739791136853728 0.7553451144804734
Ni 8.195060086234824 5.9159826244938865 7.959318558386303 -1.9509168262291623 -1.449365561909536 0.8258113388218358
Ni 8.764238930703113 9.060657298424124 2.155606243281547 0.9793427072154939 -0.2360306126401548 -1.1534752967992716
Ni 0.10098788526775038 0.3661591254939716 4.379054314167842 0.31323466992598314 -0.09619319679382143 1.0593163568266593
Ni 8.573669709480477 1.7383825697958373 12.702363512426757 1.2061376601899936 0.6085994015500809 0.9670204382047153
Ni 4.091573886541017 6.9653870138921885 12.780996821231346 -0.09068872203582447 -0.4640434971821556 0.4987135377605153
Ni 4.201924886999155 0.6521630191265853 5.949237060122588 3.9712284981123807 1.9819127603900446 -0.21644651986064012
Ni 8.613630610678864 7.078841144137407 0.46950538939990233 -0.7229805821068388 1.7134376540679392 1.3603305734270508
Ni 2.5851016371909066 6.11657449177509 8.022848425048108 -0.4620809741391461 -0.6500430134068482 -0.6016047153998026
Ni 5.954998692145165 5.528637922474455 9.415170887296256 -2.2433684979715234 1.8966212981103918 -1.2619596522556202
Ni 7.885284365818383 0.6780245954028443 10.842078888905654 -2.1657111551983608 1.2671648506056434 -0.9820238535920829
Ni 1.0720433422329947 7.788939133235064 3.287693757433428 0.7944253683113867 -0.43973268835093304 -0.6310273915362938
Ni 1.6670105846930126 6.959884747941367 5.34046783741556 0.9153584910540494 1.1267859604335433 0.6420039451524555
Ni 2.825839667150324 3.8403685829714513 2.3382258944048657 2.6199636344320236 -0.9344831276986423 -1.950689540709705
Ni 2.9961320194060455 -0.15859123718993418 13.23605274151225 -0.11622311886150308 1.8043001826774667 -1.6982437199363205
Ni 2.1218089915169567 8.27266612013378 9.163124496608281 -0.03899386476469414 0.5569708787405118 0.9818024816098962
Ni 7.712333511327165 5.247568468356997 10.49896721780939 2.3523711878251876 0.007878631417128367 0.303397115010271
Ni 4.845551057135375 8.724407712540602 11.152042649724114 -0.9048169680927771 0.21688232184647807 0.5779775628991659
Ni 5.592627237606229 6.0609404693834525 3.393672586967681 -1.1656317296561474 -0.14959603789499398 0.29163817470213
Ni 6.979170467991216 6.1513480715383615 5.56027409907688 -0.5525943469393709 -1.9453956393006175 0.30605512145840835
Ni 2.977253874611814 1.9623359096830528 4.066446872032267 -0.8051859492620004 0.3719409255179401 -0.5292962956433788
Ni 4.071639751311779 3.2119153280329504 11.09102029719175 0.9979328115128554 -0.17111642846527303 0.058275338702125444
Ni 2.2916567162210963 4.18461220170945 9.82719519735066 -1.4582538655381014 0.4356112099833917 1.0298448297301037
Ni 5.171055477189011 7.404271459599112 5.842879370862092 -0.6826913955694888 1.9298371227407278 0.27138970886573904
Ni 5.631170888483951 5.265038625904554 0.47614793975905034 -0.950432194828731 0.6782955804946382 0.3693657085915961
P 0.33111228504795764 5.9175017686284574 12.717751330941073 2.6004193937515088 0.8099892841879147 -1.9483956024692057
Ni 5.271374568514591 8.810897034397199 0.6200729518985884 -0.8719096758417952 1.6819321272604904 -1.078776008213168
P 3.37879886905988 6.91060519430775 3.826182185153804 -0.567058601993817 -0.0656618609741837 0.8445004305909068
Ni 0.7661303236709195 2.954383344927339 3.201265571865174 1.342425668122172 -2.5290897929685863 -2.008112044493232
P 5.6194994152549365 5.070606702827553 7.102365646845665 0.04572424150999222 -0.017874823397891797 -0.05637400791435452
P 2.161714314271398 3.1474813853495953 8.105779800184653 -0.9000773965252629 -1.739429964366643 -1.9934891523737344
P 3.2149350901541083 5.334808099206888 0.7141700364242244 0.28405933391360755 -0.1454753308584011 0.33174558424597705
Ni 3.7775834674585447 5.87487310212058 10.448221319562952 -0.06160311752377777 -0.6414215902864244 1.025252068153099
