# total energy = -340890.3896913841 ev
CRYSTAL
PRIMVEC
9.09192005111017 0.00000000000000 0.00000000000000

0.00000000000000 9.09192005111017 0.00000000000000

0.00000000000000 0.00000000000000 13.30694402015939

PRIMCOORD
 96 1
Ni 6.289744858713429 1.8364951228344277 11.434177816104084 1.3751316429956253 0.31690106303397675 -1.0058402392853902
Ni 4.676710947852864 0.2835242544729165 5.989907881214899 0.11929995801461389 -0.058086105509454804 0.632075373184834
Ni 2.61148129939233 1.8932287041964955 4.796594278584566 0.30312226408232956 -1.1987413677259227 0.3893076989311618
Ni 3.262808270805122 4.261001085574366 4.752827593654962 0.07796073294619477 0.6654719463674088 0.4860889070179693
Ni 4.890534724531248 4.643980035528594 2.6838111604769126 -0.1542880440540246 -0.27930433572712543 0.23962861440405825
Ni 6.927606696472819 5.9515163394425485 2.581679803721082 1.010992472910291 1.1637802782697055 0.7324191018119193
Ni 5.1844946848835525 4.411199605462404 11.56901735538396 0.8082172798891565 0.7259769457310012 -0.29004871872782306
Ni 5.648719032762691 7.696255804727939 12.554649682548764 -0.8565869294417957 0.7232608323514189 0.4744122420109894
Ni 1.7636324752325667 6.300291486017915 0.4900099424466007 0.012009622866366415 0.6549877590066332 -0.6800398168792546
Ni 2.569703926578435 1.5948409787603246 0.516611082246142 0.30741086415535446 -0.346435582157984 -0.3118233914007533
Ni 0.5596749617527822 0.072500789182276 4.9884674325894816 1.1697166983587983 0.8193468141434148 -0.839008297128084
Ni 8.518819999117204 2.2405673273976303 1.5157540026647982 0.353427697205101 0.8328841865082173 -0.5108555724396879
Ni 7.078732592210046 0.44905175163282185 4.858272046091616 -0.915432024604462 1.3314406298655779 -0.7366603935867765
Ni 0.8550787190153908 7.671362127521314 2.601533829621779 0.07111465655863881 -0.3621007994990667 -0.3895851209622645
Ni 7.492278577507107 3.91357154317233 3.848647960193122 0.09847196552566911 -0.3933834116624322 0.5223358051651456
Ni 7.731823396120313 3.6111560971362553 12.472877862450638 -0.3776639440446463 1.4208342872390625 0.6326196757240783
Ni 8.151642806279526 8.82612689816174 6.847207756308295 -0.7723244226472892 -0.4208332803432688 0.9407098253346444
Ni 6.847225030956467 0.6839806024162965 0.31706071091716714 0.480499842965966 -0.7827006236752907 -0.47848744052162756
Ni 2.124536243208093 6.479829632036626 9.237907232577308 -1.0284505204857384 1.0555430058271562 0.6980959030500171
Ni 8.946494828234242 4.782249956258455 1.5422478578072767 0.10716666508618962 -0.0048850960064432 -0.16525945546386378
Ni 6.466173568061334 1.9024842788481917 6.981514509070893 0.22243436201295885 -0.4922430995448232 1.1602959192655307
Ni 3.7442981749353135 4.516547683546103 0.43216532844952554 -0.6022757733248982 -0.5252635203349018 0.37514143473310874
Ni 5.888163840254906 5.8794901484889746 4.860746866740135 0.04649762934090702 0.45655593055585886 -0.009299680134371081
Ni 5.244355886756606 3.024109000760293 9.30933881195699 1.1597534164984993 -1.541530611380571 -0.1910314222216452
P 0.18787998270135464 5.333765828922403 12.428964797607584 -0.7099602585877709 1.4492238941253492 0.4981764343101227
P 3.811442004800517 6.356979607779532 12.64012009573953 0.46213522441584926 -0.7019690128521782 0.02359038572543034
P 2.4298429198328115 8.47697898286268 1.2780612081739406 -0.3894642791136841 0.3487452041277671 0.9345080673993068
P 6.31410211263474 7.838880755180946 5.884956210847128 0.15905126977062287 -1.3747642323538776 0.7011940823593665
P 4.717806426660003 0.9274394926282796 12.564044363577839 -0.5320856854630579 -0.2986799120402598 -0.07451802581323295
P 4.0605424314283916 5.972200457647469 8.535792795541356 0.6973965629901474 2.4844564705299277 -1.021357618194699
P 4.67629271952872 1.0545172597272578 3.9441113027548917 0.46355935845688556 0.5546892817951866 -0.5816724952522498
P 0.267091518102115 5.786888942371561 3.5237982013347877 -1.6345410395710367 -1.150401028749322 -0.30498914208773925
Ni 1.3091910333703485 1.0274051540186542 2.650902955710886 0.013574139140008882 0.7061138882584872 -0.06591434330462197
Ni 1.8028095589006996 6.585450467723028 4.749061720353654 1.551891642899921 0.7741007978214217 0.6690601779392994
Ni 6.080312479438551 5.341912189323111 9.273143878078402 0.13512149842790278 0.6645563765316749 0.4895156733113312
Ni 8.655998889436255 2.1234633966374648 10.207185013884086 0.1791207868269883 0.917857346216503 -0.2939963905216614
Ni 2.456218580014119 5.258921142740905 7.203741038296523 -1.1856971329474548 -1.4603619130200398 -0.9204916985155567
Ni 0.6876064601482184 8.967451704041865 8.802796122018597 -0.3842361979455253 -0.0592317890781238 1.518248758034495
Ni 1.6286901972556735 1.3345029389011172 11.571744931410981 -0.18154585132871315 0.08123888947683428 -1.1304559530859628
Ni 3.95853108801775 6.801274466821227 1.7278666799822295 0.8577197574946582 1.0488637940347678 -1.1697804617171983
Ni 5.725654860564905 7.682554281152197 8.222360669932138 -0.9414063371810368 0.6370946807762963 0.15101734372255282
Ni 5.252984118922088 2.734504070131134 5.214126161649116 -0.1652864520470573 0.7703081635482089 -1.5007210335633767
Ni 0.8872822999744364 7.366937367145334 6.912824143598367 0.632165104685163 -0.20117056753817608 0.0839449755540877
Ni 5.120387556328434 4.861867900487241 7.0902329619319815 -0.48755752114369577 -0.3553740222981944 -1.0207474954145261
Ni 8.187010375429917 7.204882983459836 9.245198952489547 0.23853640978114404 -0.2746879200010366 -0.19350893722786028
Ni 4.744427568683743 0.47174609336965806 10.173637647135726 -0.4645746870952773 -0.9628552510834322 1.577653325245057
Ni 8.310033146168722 7.419770514788759 4.600968889158476 -1.163507998444925 -1.4665037642517196 -0.15183238342468044
Ni 7.132029427778066 6.103624162549504 7.2436618410280245 1.7584368444864489 0.6860924508312377 -1.732391312352307
Ni 2.2537506115282393 5.354340844086243 2.6812026886030695 0.008143712153056943 -1.034248615224754 -0.5562265443753194
Ni 2.2932731881597954 5.153200295933514 11.535776386342635 0.10991311748307521 0.015567258310637705 -0.23096399675052479
Ni 0.8624804511607208 3.44440119076419 3.7834434368831316 0.4864059240377558 0.21144778109446813 -0.4687730414473411
Ni 3.8378085730617344 2.5392005346762336 2.659991239032925 1.0619193416671453 -0.5355155370802133 0.37510903883327656
Ni 1.1813859126641642 3.4054423131782183 8.407473981350083 -2.3889960381370727 0.6689596478056931 -2.7232368780010776
Ni 3.8416817310201066 2.9817224693003634 7.162196418636934 -0.657850425266409 -0.931575210023228 -0.11052169760135158
Ni 3.680391068622176 7.01010677937016 6.420786702971679 1.3561219346623419 0.34545110675752766 -0.20073373711107362
Ni 0.9355222095883563 7.207537824126138 11.401136869304741 -0.6725622775552869 -0.5459053649549696 0.12273315206587894
P 0.23864199094826133 5.567573645958772 7.976754268194879 -0.1815077990019261 0.6629900604858194 -0.31985037547028783
P 8.520938416498192 1.613588517986059 7.8921621344848125 0.0021921225553123537 -0.04434664443617523 1.4236830695417675
P 1.7082717738041 3.2787554986431138 10.341305382284835 0.2652861670711625 -0.3819633427509486 3.8119591987936805
P 3.9687322223588146 6.2849261410656885 3.8348882483288027 -0.38922722340221355 0.4103735184625255 1.145104299126757
P 7.062039826924669 3.770264698712568 10.395850538481222 -0.3216807438108073 0.15003106854988355 -0.093806955949832
P 6.491840058475615 7.931145560255027 10.5531389376555 0.2971241375173657 0.23268046522099928 -0.9127580773167248
P 2.5947157987462313 8.734907663898015 5.753882544868562 -1.2892688815935345 -0.3248270027492729 0.32600276822492885
P 6.747150266525011 3.870203084342672 1.7526039761633057 0.3901973006249667 -0.7489032155098715 -0.6966833389732066
Ni 5.494529159955109 2.7393591554592347 0.19507623745264902 -0.35155541988305256 1.0537334634222433 1.6429930269931317
Ni 1.4937479192787806 1.0279052096236083 7.02376466172947 0.24973150716601505 1.6836264842437778 -0.5401610062720246
Ni 7.085533348437422 0.4613585746667473 9.2308409922833 -0.3890205067080461 0.5428483232962006 -0.4757738982452064
Ni 2.7839913911814125 1.9379882267999349 9.112755134153407 1.0756217788549025 -2.1952839837594706 0.7592531912856278
Ni 6.482775414145811 1.676413685808477 2.656984541059137 -1.0537815430513593 0.9472676810578202 0.5767190079017165
Ni 4.588655701780488 6.681424776193858 10.542639588335483 -0.781249493051061 0.8610822462089881 0.40873623996941866
Ni 8.102628265073932 7.248115063488143 0.010497530936000584 0.4695186613641139 -0.4786974996499046 0.3734231664904214
Ni 7.542766009767294 3.896178700040016 8.126350902972955 1.5583381698562129 -1.1297735823069577 0.10089420181391658
Ni 2.933371638261345 8.444993607985795 12.399676995421427 1.3177297080373886 0.09176061494376456 -0.05043733071494539
Ni 9.247664681217977 4.935466993616398 10.007832846413073 -0.6225093267629537 -0.16668358950490003 1.440339704261842
Ni 8.613248681172722 2.5844601128846265 5.9565341701402605 0.5322450938590576 0.4496486619130643 -0.5964571097605921
Ni 3.628112528104245 2.8022752424825534 11.840332979559923 -0.9281397019791178 -0.6820856436646898 -0.721083365084126
Ni 1.1587015720394271 3.4696312690141475 12.887828549401615 0.4246261717267978 -0.48610356230598867 0.7839105848229919
Ni 3.280492055380318 8.74981841284574 8.376295059785189 -0.9225845764888433 -1.6917786810372673 -0.8122330859167689
Ni 5.508321602731754 8.287112415621642 3.3614274188301563 0.8362631302827791 -1.6787760981300122 0.034057089584709085
Ni 3.0312188822707316 8.590482513267176 3.5538188122802064 0.4177901226415707 -0.31801100826870393 0.2797149409019828
Ni 3.4418281773786985 4.302414781584656 9.556421741516877 -0.19580107569614666 -0.12564415506508686 0.5494236625208732
Ni 7.303775798279582 6.055091493108683 11.324302871007536 0.31681261708522857 -1.0692863235551777 0.470698540604828
Ni 0.6707409483811293 8.991990796364977 13.35484866270845 -0.31288679966826116 0.24217554919562806 0.9858918211879214
Ni 4.484544124829039 0.4041122090115991 1.4032569478142733 0.2872184483678795 -0.8195435035352532 0.07963195000103061
Ni 6.087167787186468 5.429321909069092 0.35909447587760185 0.0698985247633506 0.36997660270271765 -0.2761429072800083
Ni 8.418208811400433 8.92926563966355 11.348947429603694 -0.9419411266385842 0.7879107071213205 -0.2961442901025996
Ni 9.140652781757794 5.1149869557949295 5.681679061473231 -0.3013394611502939 -0.5154293078532994 0.6061673950698205
Ni 8.063960328930841 -0.06466900921668539 2.321050822418992 -0.1634486275073701 -0.8266898847720472 0.2587026003163738
P 8.560924681054342 1.6834962915586456 3.838680488198373 0.17676308522808912 0.025117363892918035 -1.0097997381537704
P 2.2638699185884925 3.3447173788966076 1.6932819251515934 -2.711709336977452 1.050653796055655 -0.27055795699306306
P 4.760647554124437 1.1318531320134357 8.16076291132188 1.0074741753443874 1.0377216613750193 -0.5315164432231492
P 8.771038954335975 1.8257211975276888 12.577923179595338 -0.07597249887157238 -2.6479446930259813 0.20821898974452527
P 6.424441654847889 7.631621344807597 1.3287459351000817 -0.2816054730564763 0.7790452863108905 0.47642541578627634
P 1.8183840180149984 3.2620263656773756 6.349940643245797 0.2590790098191861 0.07930259168606987 -2.0902533911796772
P 6.857771658260954 4.149106825025812 6.017879173372015 0.649274767782256 -0.4266869109105684 -0.5796896604942663
P 2.200290121398598 8.586527528027991 10.32344703284391 0.3838978407695001 0.5275129784907108 -0.8357100859927865
