# total energy = -340893.076839895 ev
CRYSTAL
PRIMVEC
9.07010928750950 0.00000000000000 0.00000000000000

0.00000000000000 9.07010928750950 0.00000000000000

0.00000000000000 0.00000000000000 13.27502176296979

PRIMCOORD
 96 1
Ni 6.3378202898943865 2.023495965810799 11.572340730729039 0.6443277081896258 0.045212591980896326 -0.016577444742706934
Ni 4.715359193212543 0.3994584841859592 5.988627442737167 -0.12562281490884816 -0.1468022771999407 0.07265911822762325
Ni 2.64008197516026 1.4191001829480345 4.9378036162677885 0.5482021314089462 0.42186454982126054 -1.519365902358074
Ni 3.1872363001677075 4.2955129180319425 4.71312341134575 0.9966063793919482 -0.11159513317118845 -0.6391466782093186
Ni 4.843438202303802 4.534020504113929 2.6843685963407635 0.669919183505485 0.11542761954340121 -0.13261313018375226
Ni 7.248504583344411 6.003886087096223 2.6648016502099963 -0.2626124768937413 0.1768697860092825 -0.07567193691201807
Ni 5.3787197546393095 4.6058920477750815 11.73372518004288 0.3898396601752318 0.40442527129889055 -1.2182935788262375
Ni 5.771827348508315 7.888146809754277 12.282315303303932 -0.5986217215120787 0.06482419556423674 0.514790645828036
Ni 1.6224248162458705 6.439505281815786 0.5131142059564244 1.6828178722995535 1.3618017586559386 -0.21704970066227783
Ni 2.6115836927040084 1.9284321534543454 0.17343318210024702 0.8863711026827639 -0.7687284777659148 0.9414952973504173
Ni 0.45867269074727074 0.0317707777809546 4.989297346054191 0.3034048283197549 0.6257571442762901 -0.49907092109993406
Ni 8.853360598470688 2.374445693079977 1.3899615507968714 -1.7064745924865448 -0.9232723465844874 -0.09820997011353409
Ni 6.89339167604741 0.8937875874068192 4.692547869094952 -0.8303776180362796 -0.9630959063393285 0.6225944302775923
Ni 0.630164869522999 7.154529184067127 2.5617733751467204 -0.7048733309831667 1.4863151425506917 0.13142425208197367
Ni 7.641049830455846 3.799495867527471 3.9300301551231556 0.24732855415147728 0.1604862024449365 0.6297948046807734
Ni 7.65158022699681 4.003673091070656 12.654148956529673 0.06985507311992487 -1.5260042336101978 1.1956498732847924
Ni 7.581994350801913 8.92894181671001 6.88365582105424 1.7134767348359912 0.4767270061870951 0.792508610904648
Ni 6.832522174594861 1.0771842842359627 0.5544693679103648 -0.5511319034612315 -1.0972820374371552 -0.12660600475772388
Ni 2.0719212777248437 6.511068441771175 9.063109589968322 -0.23809752247151253 0.29286716201322466 0.5203948793886909
Ni 0.03055629018678142 4.777271757199295 1.3691057421781871 -0.752717189939323 0.48482006760787477 0.17895572200403373
Ni 6.422816281268523 2.1328270596133647 6.955487456235823 -0.9173089299122008 -2.024268085427804 1.7048141740649865
Ni 3.2409313454067314 4.5267462767014806 0.39090265037278843 0.14091805050502182 -0.2608337877267637 -0.12064927295365674
Ni 6.068356421819024 5.755936517552442 4.7782640271231385 -0.6306381265176753 -0.45088690519553964 0.12095163468542396
Ni 5.231212572084877 2.854490281647638 9.351721365138971 2.0961831264005517 -0.984363557468853 -0.3593268362983553
P 0.3109777569366819 5.663711649310822 12.506968297898991 -0.7104230571568023 -1.0874797066347528 -1.836270050715844
P 4.1089135657173435 6.288342845337144 12.372625471537114 -0.3710364114257997 -0.20835885775649923 0.7441669863764667
P 2.315208811246183 8.382494960204022 1.419139184416705 -1.4364935910428744 0.449204118176478 -0.1127809259491735
P 6.301621484903011 7.920146154281858 5.634051485892557 -0.4463779615815925 -1.786841363771071 -0.18283320268156897
P 4.5920782717786235 1.1622165560460715 12.750684847575704 0.6963580944233039 -0.02730562979348846 0.031048384665372335
P 4.01694266052753 6.310591822697165 8.168213635242548 1.3652580926356552 -1.6072413233148188 -0.9642762998006748
P 4.605429472216434 1.0312441821860212 3.8474332075776885 0.37192935555371426 -0.2057569013572779 -1.045429314431922
P 0.014901282064728308 5.489112051194065 3.8215870249910124 0.5760098976498339 -0.5152603863756029 0.1936338928414988
Ni 1.362257809888413 0.9590823950370905 2.688669642025282 0.4297166988758277 -0.12943447534545452 -0.46152921540073416
Ni 1.7659683611703272 6.428920464620864 4.794897700005544 0.4680377059432133 0.6664530793337554 0.4115379710842719
Ni 6.3100929667025465 5.696336831358924 9.231356483746326 -0.06372556318341929 -0.8750037413860865 0.16597782168712708
Ni 8.661999438934723 2.2955810953851614 10.372291843061939 0.3693168576315317 0.5062463558024507 -0.03355238203414867
Ni 2.535984334246701 5.217825091211094 6.968629137155894 -0.29626024685517366 -0.16440842031747815 -0.4051688343331345
Ni 0.6870544071493846 9.286249690383336 9.290111742792588 -0.1804042815251022 -0.6451242359489922 0.23070251555902205
Ni 1.4801057360354792 1.079206918541419 11.52350182184491 0.05493881812972474 -0.010497557097214179 -0.6391824165432605
Ni 3.872138370453035 6.710783171689765 1.5497786852767093 0.6756951667573137 0.4918057548970885 -0.2021848677353034
Ni 5.654559909336806 7.858242660404098 8.10005992925766 0.4136241641893393 0.15459529088179824 -0.22954706179834017
Ni 5.287283985880087 2.912874573236083 4.797552520907819 -0.7588808955478737 0.6151240900424761 0.6684672815503068
Ni 0.9056204515991891 7.507129671173045 6.856773832020554 -0.4643330033981165 -0.02503354592986011 0.40716452460692454
Ni 5.15808935338268 4.605438542325428 7.152249865677166 -0.19903860879683785 0.8865132846875828 0.051631093912730436
Ni 8.373542762627855 7.428500896312049 8.642144970348875 -0.5589282595771987 -0.5122444823674145 1.1578063200744577
Ni 4.500370399749609 0.441463065943804 10.606542826993472 0.17707290315902408 -0.4443092519780219 0.5252115840510438
Ni 8.263023484547196 7.18700924437134 4.932466764136261 -0.42889625985706137 -0.3477566149622527 -0.4484510420605374
Ni 7.352393611751129 5.9405767263245375 6.904656751416813 0.44002476567005505 0.36409469000064393 0.08718765086110145
Ni 2.0766377344012446 5.322013433214583 2.6324367802899946 0.9793277948171585 -1.3318797742855257 0.11304060736846337
Ni 2.4148167482081684 5.347028793817494 11.188148146989331 0.44182762320674873 -0.3740240332992139 1.198374471304807
Ni 0.984524050762675 3.293737519964433 3.81879887348654 0.40888227862897963 -0.17677028431694072 0.14546916021081396
Ni 3.637866525270816 2.4663349672888533 2.470667758354846 -0.6834910086526487 0.25761785189262726 0.2373333906119784
Ni 1.1118139603715356 3.2562598296050336 8.305662973934556 0.3657741345855959 0.30086637816861733 -0.14223368399265182
Ni 3.9452253087192597 2.6443993470409657 7.070355851578663 -0.7130630658828107 -0.7551080587690028 -0.06542043438733895
Ni 4.222525750964642 6.963349426711023 5.9761360886319 -0.26661105653017314 0.23020089333225516 -0.29388634730635843
Ni 0.8345026339953616 7.55234416450354 11.121494637031894 0.4680279357512004 -1.3073398801626324 0.5411449674518487
P 0.47833033796796925 5.574906212159593 7.940042345369074 -1.3349946657654235 -0.20887179283717577 -0.5772597108965348
P 8.449205611848114 1.5000781160382377 8.204162105225715 -0.4966425141640995 1.1117267521075758 -0.7114707816950263
P 1.9868164450427903 3.1601438846053824 10.380933842910544 -0.6200937753429256 0.8041593077696988 0.7302236368224972
P 3.930014735937867 6.162476942840197 3.8303614484309163 -0.01820263905095575 0.18464531618964328 -0.2365180937995346
P 7.197140556116609 3.9228674900513214 10.446034550208363 -1.2534924953248734 0.4595170700667118 -0.5810076079747413
P 6.777430332570904 7.560951697937972 10.246391474150817 -0.9593739774030511 0.7468435047673654 -0.5728507831955618
P 2.4978535960398003 8.6094835078648 5.867957805682354 -0.5159610119870534 -0.929797806407831 -0.8853742859871333
P 6.964211087065364 3.9150671963172745 1.7009819372458208 -0.33048780057947597 1.1265386203094276 -1.0485812297973425
Ni 5.257960323505466 3.1373416305967843 0.43470764876575924 0.0031197765759043046 -0.5369862080884688 0.4246891637542492
Ni 1.3619494261826486 1.1169113616256456 7.1417221901689 0.7997796906447645 -0.15542987096795166 -0.41314799588386913
Ni 6.842544645032214 0.656550723594763 9.61910727124402 -0.09676552435752367 -0.39285736395563314 -1.3675024085851417
Ni 2.8794512215965895 1.5196332710273144 9.292116236880059 0.015635649654727912 0.03956053590144155 -0.9200476689996027
Ni 6.299090924493942 2.228444148618396 2.7976977941874783 -0.31778243719766563 -1.2202638151787308 -1.6459050584336044
Ni 4.354595608012854 7.022232574294088 10.130739421390976 0.12157589853298416 0.18348214911947755 1.5487911495977262
Ni 7.936835154829121 7.022613518871797 0.47090917478983263 0.37065743081982616 -0.1461553876445612 -0.21481618334606875
Ni 7.783042386742486 3.838216162818922 8.20980462003031 0.1621281089237337 -0.24088819784277227 0.5267838136341702
Ni 2.9747236464598834 8.457985477353413 12.674592075189173 0.9374586653871985 -0.2778807159067214 -0.9163709914789636
Ni 9.379309008652319 5.1172375824778555 10.056876988805842 -0.8122186877390656 -1.117615863898501 0.1581380139277341
Ni 8.577293691048364 2.2229658027865766 6.000946464771566 0.3858199974928775 0.09753788374717395 -0.41021436717684195
Ni 4.000489482814086 2.860050258460395 11.362621670591084 -1.9563482816573794 -0.6407633878771352 0.4071987202789697
Ni 0.9741841265105657 3.4344421207740563 12.529097549820305 0.18331914117905201 0.2637278214451071 -0.5713294614550289
Ni 3.1424843823958595 8.372916925107331 7.892491391961961 0.6908893579992489 0.6434255080903305 0.5177337876167599
Ni 5.516304237955314 7.889053820653585 3.4696522838851864 -0.12292212814823347 0.2891804571902568 0.9198532936006093
Ni 2.9920929051816283 8.251595147215918 3.4114013228989397 0.14736560590257847 0.04416615299425297 1.8499061534420398
Ni 3.5155923859351277 4.1953244940944 8.99837985012832 -1.0373462803134716 1.1540517381280317 0.5625141771562441
Ni 7.530058906707547 5.949918938587407 11.502540799961906 -0.5929663229985143 1.462400026495991 -0.7273085200582312
Ni 0.27262842910304763 -0.23949350692953406 0.40010608996806496 1.5416799924742417 0.8178378336980562 0.6636161241055926
Ni 4.391447460851732 0.21862137211466232 1.5759704390160214 0.5142100907342178 0.33939770147459614 -0.55031712086942
Ni 5.912876613459676 5.641743845329587 0.5096258420376866 -0.26677560713249543 0.5068330815438562 0.42032600168954715
Ni 8.02587641481417 -0.3276350121024702 11.635954847162893 -0.6599489596666505 0.34852203237336754 0.08030583613960364
Ni 9.433276157161135 4.472978670590512 6.004026673785615 -0.6839669198478027 0.8948400593857234 -0.24106971772595903
Ni 7.886849784168267 8.796536365629054 2.6282817633602655 -0.16245952412122344 -0.023848010262191185 -0.32214559926236774
P 8.54359823613908 1.6317035377457896 3.5836581118627846 -0.006559141274756446 -0.053226206313992205 0.41044576646135766
P 1.6342522383728446 3.2554888703406215 1.6526736297377866 2.5156804615412156 0.7060223569859454 -0.1987737851712254
P 4.88963226740555 0.9023407001872921 8.19546749874495 0.09177269912862258 0.7603078578023873 0.9916058408535632
P 8.63664848429907 1.5250481260961821 12.568272257572309 -0.4668696537770411 0.993328737081941 -0.19210331512958528
P 6.191836885650791 7.85176660258304 1.4228570220929675 0.23108740970226652 -0.17385568177330704 -0.504333455050454
P 2.098759730235362 3.130974414083643 6.062781932831878 -1.677648155173156 -0.3053367552351451 1.3181606249272202
P 6.870072425826206 3.8865507736430365 6.071503749639621 1.131302617356974 2.3010008037730114 -1.3233061736839016
P 2.527648904082062 8.428698095414763 10.089905790704137 0.3517120000655749 0.8989132010138325 1.350857858049925
