# total energy = -340866.373609167 ev
CRYSTAL
PRIMVEC
9.21864025351442 0.00000000000000 0.00000000000000
0.00000000000000 9.21864025351442 0.00000000000000
0.00000000000000 0.00000000000000 13.49241184545553
PRIMCOORD
 96 1
Ni 1.4302535648406787 3.550826551755535 4.924608571442548 -0.8951053972319681 -2.4213065773443203 0.7118703311262902
Ni 4.599114985201618 8.222169581666249 12.752393669853053 0.3937441374359606 0.8304313540923505 -0.7337661027581169
Ni 3.614739383149046 7.599966690843571 4.110382330462118 -1.6544154098974606 0.6681080984386752 -0.010790662857600771
Ni 7.860190461877182 6.790846654580994 4.757006320613304 -1.4002731752582591 -1.2708716100332693 -0.2666586219386569
Ni 8.722778610368573 8.5545384296486 13.206709453869268 -0.3593954847527617 -0.21965294261307974 -0.42006760582183783
Ni 7.195185425351336 2.8663794033864876 11.589603274068967 -1.071241904619652 1.685849974257658 -1.0839202714182687
Ni 7.066640708641237 6.3152201403855805 9.536814025500187 -2.255856346025889 -1.1381654059150785 1.7382205174395742
Ni 4.692601213841686 3.8136868538404287 1.1381037996224423 -0.09772557427794783 1.6103965811143492 3.122910750657912
Ni 6.970554823510043 7.251557409192576 12.202347840211168 1.2889210113358125 -1.0048205397716243 -0.05376228132312031
Ni 7.725413944500415 -0.30426490195808215 3.872187421666778 0.10172132570090224 0.9373871887193147 -0.8614046625454134
Ni 6.058305861126132 1.9083967677668618 9.478311613945829 0.5762711217310205 -0.10522316820657361 -0.7035499841860529
Ni 2.3876001142975816 5.823912719483062 11.297924581356746 -0.18057294589248254 -1.791763740773353 1.0550475542479767
Ni 2.414112923051042 7.493353118787326 1.4960654360823162 -2.5830670185159903 -2.2544355544189627 1.6780132518220583
Ni 8.57029308547602 7.428721233470737 8.487765976114853 1.5773939009360833 2.1496049936651174 -1.6944312881687658
Ni 7.637993581006305 2.556006230538265 4.284002509509114 0.5680114528253896 -0.3868643795969918 -0.7386558267502504
Ni 5.7677435457226895 7.298056229551565 3.3313574664723316 1.3809582769797313 0.0007584754325793389 -1.4713906600303757
Ni 6.390259870306709 8.592500789331057 0.8850235527554017 0.493696287051582 -0.055875985232013446 0.17115062413731813
Ni 5.146517830744194 1.5709668864028523 11.53728011693305 0.5222720418067456 -0.3940526698153149 0.2931556397879209
Ni 0.22368661310125257 6.800618413022812 11.163175719900096 -1.0462019309318886 -0.23383154810630694 -0.15317681326771684
Ni 5.077562403249103 6.512554349070061 11.279804422495202 -1.7366639715857317 -2.0911710178979406 -0.7741761311440474
Ni 5.575571775460302 4.276969609023018 10.482403121450773 0.5513692162830182 -1.0246530011165191 -0.5773373582120056
Ni 3.833820363686589 1.964704221127826 4.064832108163189 0.4175736357553905 -0.4576041693147151 -1.6532442724074947
Ni 9.15874653511427 6.751851807214118 2.79939215553982 0.9077475114760108 -0.8713419762637832 1.2956637293762847
Ni 4.194794651711355 5.309743071282706 2.93257569191777 -0.06836460461732743 0.08207681199709736 0.6763433418642739
P 5.5981205689968 3.3930310902002594 4.155541682423375 -1.3447180637007745 -0.21689877690671036 -0.2758336035697056
P 8.860477436637847 4.49019675313551 5.330811351228866 -0.953341912276358 1.0038350359299035 -0.6184577824013995
P 7.281232211479568 5.074133069154429 11.504803769938071 1.179859443219755 0.5538374753178527 -0.07845155653968425
P 4.54254019127951 7.171051025728054 1.491693956975609 1.097125200144317 0.20474568648394412 0.1466672942839732
P 0.9959910885022801 8.83911784766644 8.993663738607808 -0.28939154475979834 -1.1052270033158451 2.4673869166421505
P 4.662649852353512 7.412920484443119 8.826627512276989 -0.6635374483488573 -1.0518984670960334 0.22701298252257676
P 0.015328754657598425 5.622411685500751 9.207868980428486 2.008241628092561 -1.8413482365696998 0.6783940537457155
P 2.2974879079119526 2.4782562204455387 6.796829551966597 1.3288908668605308 0.7207434652462039 0.11527001091961439
Ni 3.800089359782239 6.115147995609385 13.295287678552333 -0.7736899355362482 -1.3756034404257214 0.2701023575128832
Ni 0.38758112690662866 1.9516137522718062 3.103740025258257 1.0347314683984437 -1.0534293019182632 0.4648335971836188
Ni 8.255725431409848 8.718104759868572 6.460072631325468 1.6478033038975817 -1.3047785471933593 0.30497551524098443
Ni 8.382868914833951 1.6762529742934174 12.860898906845394 1.7045588635210707 -0.9368197462516189 2.486704900244472
Ni 2.3421522189030903 3.9518005189114773 0.5612750550739407 -0.5370638554039396 1.2946802824170929 -0.7233197106138124
Ni 3.9887211722694773 5.848544925668474 7.305857964616951 -1.326442148209722 0.7731572029612298 -1.435327081538599
Ni 8.363749455392131 4.572058276685831 2.8300468992630043 0.7839134130364693 0.0795177930206695 3.169559817975019
Ni 1.8265352442165408 6.8956810291096255 8.192822041100658 0.12303268558416876 0.07891949731503826 0.41235043968323826
Ni 2.1761060745125067 2.1372955999464196 12.507020206058993 -0.10404920250313049 0.6318210910821828 -0.011250633213154818
Ni 0.14573748038367423 6.512287008508916 6.377890299101773 2.01211088123998 0.18173379896980316 -0.49178904272654006
Ni 2.3260656920342493 3.40812200394484 2.84612973867583 0.5729081187960584 0.8865132846875828 -0.7289470841029188
Ni 1.267830345985599 3.5661663687811807 9.996608447291846 0.15423250822574083 0.508606114283879 -0.19328370859093164
Ni 8.53809237581822 1.1376539299885173 8.747360114033768 0.04909881440917996 0.21915440571010644 0.3222381589761741
Ni 7.584424063737058 1.7102605373989506 1.8744601881896326 2.003245974650182 -0.7466812681578882 0.4205681996073402
Ni 1.0530821262665977 8.039013641362445 4.339389020730137 0.4629286668514221 0.9684052343673838 0.9969017991451798
Ni 1.1276977987459107 0.5813495656238483 0.8572016971163399 0.40835211715712255 -0.023592956828591624 0.8699358399448761
Ni 4.447496012472775 0.3311796434172621 8.724678572080704 -1.5483237230430045 1.7380639372570519 0.5250395772495539
Ni 5.6579864174129915 4.611615461095114 8.170613415381617 1.229831661372824 -0.821350989057637 -1.2731269817263493
Ni 1.8830823822185307 7.806077044845607 12.685916212800567 1.6508467187095954 1.002488549204338 -0.016006659840901466
Ni 4.341094469137436 8.339633493048929 6.793267469455354 0.1129750442378506 -0.6316408567505767 -1.685506731985626
Ni 0.3728681774036655 4.213130526749823 12.259204724518481 -0.7273985086688762 0.11750172846361052 0.5625113489427667
Ni 5.986271407857865 2.177544182358661 0.43682986758938547 -0.10083738043405213 -1.4870299092295294 -1.9272943017142163
Ni 7.7455105797864165 3.8770557854716126 0.9348936297768174 0.25379693548464033 -1.518125087972437 -3.2597564308657727
Ni 6.69710230401982 0.856357269688726 5.762689887253063 -0.4960362480386683 1.5535888280966856 0.4597027037149567
P 1.7484533630823944 5.666513659449483 2.731214781264059 1.284603357797065 -1.179267318161711 0.6007945607936814
P 6.402778783480282 5.260764436753105 1.9274452436803786 0.15420654008381185 0.4422762807083932 1.4186156823211893
P 0.5664153687599384 2.7413469885314194 1.0659043326974695 -0.7476276912315576 0.22051091973800088 -0.3288878030822078
P 7.060915933176738 2.5059674524041275 7.710737869557609 -0.8597640416181966 0.42334987611753544 -1.4508174638647142
P 2.3001889694435116 7.435699743980602 6.101511783263029 0.23473657641907963 1.902616339351562e-05 -0.017701273934505
P 9.145711378098486 0.9412508039480226 5.189883235353773 0.17932750352115567 0.6106028051333549 -0.5595090717813331
P 8.616828780395167 8.48858827880637 1.906733725103745 -0.5491387842906027 2.5193049456676806 -1.237949919604584
P 1.23609978696981 6.044680711147825 13.420186423126829 -0.7465799666933335 -1.7779301773243703 -0.04633230740763634
Ni 3.8448366385337325 5.397384682137762 9.50116738819564 -1.057801977064662 1.055404423366763 -0.6106994786122193
Ni 2.7693163424111122 0.49975261704265933 5.467839982367271 -0.49205720878626225 -0.938549584458532 -0.827753293039555
Ni 2.335819013195988 1.2859449736631192 9.553774479444767 -0.23996825713166411 -0.3835553698284168 0.9336963701312888
Ni 4.564664927374191 3.7199885964794537 12.48215384641658 -1.2788176043532233 -0.5383391225719374 -0.8557672617539779
Ni 3.7336414023778794 3.8180841451392467 5.4832618452892685 1.6567453435822177 -0.04014674742221473 1.2020097540645494
Ni 8.238578760936472 6.584754737859036 0.7678730751340637 -0.8693881949715221 -2.1614156131468003 -1.104674987467117
Ni 5.680074278947514 0.8694938317449432 2.6705662703085173 -1.0377039207632064 -0.2645284629695316 0.9685546154610545
Ni 1.352429805627637 0.5862077889246388 7.239502193612987 -0.5868941486625054 -0.05976709275630353 -0.7872180519296701
Ni 2.6107465150925226 7.866625072624719 10.294507878302689 0.9827442766978752 1.597049213273166 -0.20123175979341476
Ni 5.766517466597442 8.45690381299078 10.352282017293929 -0.9391507083776407 0.9916981434570534 0.25151739542184426
Ni 4.633150204227269 1.697114756702694 6.303209174278181 -0.002580873353298781 0.05274695268472852 1.2287456273974966
Ni 0.9072460064345013 9.423662593927961 11.5215881478579 0.4458082051210515 0.6528933383714498 -1.4208936797220884
Ni 2.462750467899183 5.4962085033606725 4.912803181008027 -0.3167583668085254 3.2244502993653112 -0.7031884870815761
Ni 1.6056474102312652 4.713380028490608 7.207349420883391 0.0955740751525838 -1.2605182918234032 0.2607018901345897
Ni 5.098645433019327 6.163260077975277 5.227837298260195 1.0133555738258289 -0.9409756774015213 1.1395897970664308
Ni -0.004324464042506268 2.555453112135898 7.074853595052383 0.11624240213521271 1.1598516326392605 -1.846350831990614
Ni 6.106427162132064 5.257722285540086 13.311748482206776 0.03204700113321578 0.6880012378181765 -0.3230683681869533
Ni 3.7246624469794547 -0.061154614293707256 1.1906850786794605 0.9271392857390613 2.20277669259209 0.9519095507052058
Ni 3.833903331446944 2.725085307501828 8.402480649653878 -0.047964186584104486 1.230311943443352 0.31881473511692193
Ni 8.108577499100138 4.814951004445275 7.385503327101789 0.8734374253402312 1.9763874596964417 -0.45902084715658364
Ni 6.770556427854164 3.991975352203403 5.867161969228144 -2.2448399403107278 -0.361631573172132 0.004487346347392272
Ni 6.527958696575982 8.735122369381397 8.049828949856728 -0.009194522015074489 -0.5588917499123084 -0.14287543134170877
Ni 7.9476016067312525 8.8360941337335 10.2993246177233 1.3527866996415219 -0.3149151429521996 1.2916440666939302
Ni 7.790073485737121 3.9155251703562395 9.282198875066577 0.32643317089412816 -1.8838537140320781 3.1143973138702616
P 3.383176363998087 0.5406760039057884 11.877072735739173 -1.9763319238681576 -1.7657740015778107 -1.0637391684847033
P 3.647474773929135 1.9902490726771436 0.9811315626226897 -0.011987254268863226 1.5701187074309089 -0.4026504387866549
P 9.17164341252946 1.9673130962589906 10.854456371074951 -0.10575770055380496 1.5076462999283002 -1.043299926793745
P 3.4346993431785764 3.7112954189222513 10.69845670059936 -1.3812143588545955 -1.0097598860547707 -0.3977612290151537
P 6.775847927236808 0.1024283094783354 12.165379249924962 -0.02784633278830688 1.9181707421463932 1.0842285466873067
P 6.841189647836433 6.758719694043508 6.779181387475073 -0.039216779408777616 -0.12430615297995365 -0.12665845526221411
P 2.42068581339917 0.266415009684106 3.1006102969648635 -0.34023742376707206 0.3597001604773741 -0.20295002803610207
P 5.2195110225765635 9.030174162484052 4.654382575966133 -0.15081525501407575 0.5149857925579776 -0.33655508981947846
