# total energy = -381176.4030921865 ev
CRYSTAL
PRIMVEC
9.21872245604106 0.00000000000000 0.00000000000000
0.00000000000000 9.21872245604106 0.00000000000000
0.00000000000000 0.00000000000000 13.49253215717279
PRIMCOORD
 96 1
Ni 7.772028454874531 8.095596399099376 10.714622581017863 -1.6174331762461565 -0.44551818468445853 0.6622557534229563
Ni 1.7573835249856375 6.421872781627927 13.08080778030264 -0.47988534931041865 0.33111617819209427 -0.6068266259203743
Ni 1.6860121746853796 0.5227891487797066 4.763673492999881 0.21679130479456857 0.4817861658775574 1.3014253144504102
Ni 4.288890842113303 -0.0012943086517897494 11.732539179570436 0.7085595215855023 0.1480816581329966 -1.1840734813011027
Ni 0.3984009248580606 3.4311440173474517 10.886139680441964 -0.0972424639939422 0.0040134920347672815 0.2600344317539199
Ni 9.070808187120962 1.9790938033014744 4.566763422198609 0.021570269971608012 0.8852686136472043 1.1016526557010253
Ni 5.425706837156784 0.3485921666983739 7.227666573359402 1.1814794953216812 -1.3165914806678873 -0.06421201590153457
Ni 4.468287183736013 6.409381412516994 7.80212389664542 -1.4285524818189268 -0.3116102469486827 0.05576928445082008
Ni 3.517440479522693 4.704129763783998 2.708922555265549 -0.07283241058069392 0.18072721208215972 0.3953978709892997
Ni 0.33081939141500166 2.54392493645787 0.2693931990460169 -0.061018705775217494 -0.17665998399132155 0.6608329049335006
Ni 2.2291516535849283 0.5018958358992487 2.4630887236733345 0.39678395270354894 0.06759790165463198 -1.713030648437508
Ni 2.823574886258739 7.727483587314359 3.6125988997247536 0.9619759338022724 0.28322269694492513 2.668085943860547
Ni 3.517440479522693 8.543700066807327 6.019693102379777 0.48316067762758075 -0.15464157073870144 0.035366295314435865
Ni 4.878326745865331 3.7176987903690515 4.568841322270642 -0.15374528417667715 -0.15777137461693475 0.07542999610454106
Ni 7.005095266353558 2.693240586265837 3.1873272422581693 -1.3001456764070383 -0.6520394750115867 -0.16263718734966828
Ni 0.44383632102053183 6.065264935636596 11.007113289515868 -0.5426955997684202 0.28468925418812263 -0.7435123835116034
Ni 2.1696908928723655 7.446939421422154 7.686763567757233 0.4259016960051117 0.2257821954392692 0.7654040413783721
Ni 6.040171572743636 7.535254783844844 5.023485673656973 -1.0563151081064903 0.2520023054780628 0.4272885490503093
Ni 5.017529456990866 2.198121433343302 13.075275624875724 0.8728620124527354 -0.32669542341657926 0.0508880450991188
Ni 2.4085111203172747 0.5562927522925234 10.120978330402998 -0.9396191633736269 -1.200825503948461 -0.19463276641965835
Ni 4.281230083640103 0.232487886897086 0.7945958094000721 1.0955467999136035 -2.6810895552090663 -0.9724338959108028
Ni 4.33912366151218 1.9202230408347412 2.0173090959306 0.4153809989794459 3.121134118373463 2.1837685269207037
Ni 3.4099686115557066 2.2475522238767542 11.03512437810891 1.079050087810161 1.981471044866936 1.5637693681741132
Ni 5.831837660907477 4.8617699200917235 9.150433059757027 -0.35306851409346934 -0.27521833858320993 -0.18049555568732786
P 2.427372626738655 0.6189505659996785 8.006009774831375 0.6047394043740424 -0.1011381995039226 -1.2659937131156778
Ni 5.460498296215577 6.663191282895023 1.71514333807324 -0.29528657008799464 1.554479201121439 -0.42643442858013003
P 4.602004754919847 6.402522682909219 3.7334102592810545 -0.1825886907709307 0.374838044560077 -0.15703398223027795
Ni 3.4113975135573265 6.018903979725979 5.552824724837653 0.6816344150598842 0.9469576060165692 -0.7555132646272215
P 0.5535852134675188 6.890607950494747 1.6487196761876226 -0.22154193210567652 -0.5094972586395806 -0.5457518700962407
P 9.144613280185268 3.133563652106903 8.768391680009124 -0.003969526170709292 -0.6357844466053051 0.22718164688995715
P 8.346917214377811 8.32586165197975 5.677913571676222 -1.790874139079548 0.6722573447203584 -0.8504018836770064
Ni 5.060839015723831 4.310121560240595 11.81716428733991 0.7110439785702528 0.6873769739706161 -0.2872367032003247
Ni 1.5088467639297143 5.2631346642628225 8.998871729125868 -0.39342069265827084 -0.13256299367210717 0.02104036561006699
Ni 5.92673519126021 0.345865268555928 9.935455225746248 1.3586508717317827 -0.002661863102879287 0.7564828276293424
Ni 5.367951540123573 6.987330787920517 10.465226635016448 0.23985589992351594 -0.19898847228519279 0.7515427100152475
Ni 8.799667118271673 4.163801995274733 3.0591621076909514 0.6505616049144796 -0.21159124865086787 0.7475202191194159
Ni 3.9092730645345983 4.160326536857891 6.867982439639423 0.015011385807167694 -0.08096069611478314 1.6935108332370252
Ni 2.489018224705308 3.600113983719633 4.965994032089869 1.1106533165377388 -1.1893673827101903 -0.0458247716435985
Ni 7.197480788107121 5.308850309592062 11.023777052471532 1.03654743856126 0.580333207615536 0.5449980226493516
Ni 1.5837304475371796 2.863372111684497 2.7982436803229285 0.8644586188803887 -0.26537307035801394 0.10296419696906783
Ni 9.007033064235767 7.0909676672896085 7.335174394344494 -0.1747072311403249 -0.1769271216097792 0.7399277514841386
Ni 0.4350361284350725 0.2767589583963019 7.075524463205006 1.2851743998091867 -0.3540519610526612 -0.8686168640231363
Ni 7.846008703668069 7.179771622009627 3.7051438120722393 -0.8312448511325814 -0.9023679923316524 -0.3297241829405741
Ni 2.067685727401898 2.654180858647367 9.047282928940746 0.3030998954848264 0.9032179990367736 -0.35406738767162893
Ni 3.7276826669352072 1.8104833671103455 6.430716302209564 -2.2455963588607775 0.034723005303482136 -0.04626931538018483
Ni 5.188877853791551 8.990605300578434 3.2161071723153087 -1.544741662118701 -0.5455968325756152 -0.7791535297539807
Ni 0.6598309913298896 9.033656735078848 0.6078834895290688 -0.5619223092085162 -0.06448146751283733 0.33029213962890214
Ni 0.47406359052447344 8.228069442733412 3.3671292076748873 1.038808980901927 1.1025018910751982 -1.2903585151132875
Ni 9.055597294845654 1.2767838601440777 2.4742203312020816 -0.1520038760055382 -0.020488863981971164 -1.963128023583374
Ni 7.270815726319282 0.39136427390427775 3.812085603490237 1.405660664822418 -0.707237460339969 0.7028177340057187
Ni 1.4890172916362687 5.323203860666397 6.630513676926368 -0.301301665933823 -0.728337732653694 0.11883535967336953
Ni 2.7738675340475547 7.217236510619837 1.536718649811631 0.5106061754330432 -0.37006659131336267 -1.1430975531093734
Ni 8.248636412834147 4.68629153557023 7.577433205315882 0.30854729175264284 -0.10868747260609023 1.3831503995350438
Ni 3.6931032384960094 4.230351953659849 0.3253766575972191 0.1570290971342715 0.6686246330637775 -0.42380290449455404
Ni 7.815282701271949 5.648956642145333 1.6098341824261244 1.6181592557789035 1.9370421251295997 0.9069245013540832
Ni 7.503376441124837 1.2731885583335507 6.277009774831459 0.5004333486650995 -0.309923346164563 0.2823531498557782
P 6.729261867705402 5.345762074846807 13.419200352326229 -1.8133499515845608 -0.4257466584844861 -2.548993473871049
Ni 8.451439091115647 5.700065240190365 5.491393001235114 -0.4679813987839811 1.3073344808459937 -1.0876491423330816
P 0.7613715331817655 8.269738068845163 11.608920718985145 -0.3251530186301239 0.9361227201845942 1.4720046394652906
Ni 1.1730547935490758 1.31645202345356 12.079675709971676 -0.5361683401728637 -1.161539818974961 -1.2373289981911335
P 3.4147070349675293 1.4884549495582118 3.9998746701598806 1.0668759143414723 0.845328582919157 0.49846362653323834
P 6.506878622640415 1.1669888740841354 1.5726089806032826 0.1018557943962375 -0.25820637740624564 -0.23770928589415838
P 8.275499770464597 6.517609215736449 9.187740308210929 -1.4133073827343983 -1.4381085009384782 1.4758870052388324
Ni 2.679228127927373 2.121403223940209 0.14439285194432228 0.2776151209501606 -0.6377009469017276 0.4530895692738133
Ni 1.0439465836607893 2.469917031496559 6.795392374212622 -0.21879702237068768 0.9433151241679754 0.06724771740406484
Ni 8.560773141046035 1.1365486520883392 10.418568836238398 0.22385258251672419 1.174896699897841 0.4691296534558114
Ni 4.180451008274251 8.295679554216505 9.066887464402969 -0.8107765559759004 1.3888178822334662 -0.911876960263352
Ni 5.7140684798062376 4.390499602512352 1.728460704728336 -1.21018509078649 -1.6336411534645863 -1.277908976496025
Ni 7.339449116009985 3.687111068811798 5.307166048974669 0.1184782334442669 -1.6801112720016675 0.10689875613678365
Ni 7.28999066930876 2.7032889938901308 12.056117264390132 0.8915068812474324 0.6301568160058825 -0.26098625414422794
Ni 4.2623593584961315 6.704316004373898 12.83728139497498 -0.05693733661699226 -0.08265942397344474 -0.06794165814729589
Ni 6.434235088622586 5.20291796829779 3.6501209444150287 0.9285117406065556 0.8089109635220714 1.4339939645494724
Ni 7.851005251312442 0.4684088260870957 12.807448686797935 0.5731238343512904 0.875692282812679 0.27256881677550476
Ni 5.487841027420764 1.4327830838305888 5.053817114726194 0.1635249892712603 -0.34174743265369534 -1.4682009494484842
Ni 2.839348120612103 5.207112487076738 11.235542172856094 0.13335412211483486 -0.8046668435337369 -0.0981166390687794
Ni 2.460228154053318 7.493918031746374 10.513516147693123 1.4064517932651455 -1.2475900137975096 0.8323370557554955
Ni 0.4466922812792531 8.182575046746358 9.468938081534844 1.9356128488822404 0.2542898159606588 -1.048162397092369
Ni 1.5529399140829219 4.647305557732488 1.243608443155504 -0.9836017396021641 0.7746026771585047 1.0290788980983567
Ni 2.586119029757312 8.729918263147447 13.052946035015577 -0.4514214375427709 -0.8166767235104193 -0.8684425432288011
Ni 7.598679595271579 3.3063040760188422 0.9457008132629708 -0.8177373035644497 -0.7044966643700383 -0.11490157183660211
Ni 1.1064863977187782 7.521850761197392 5.5246255743037525 1.465746831481037 -0.2720669374384217 -0.777378697241745
Ni 6.116318221346081 8.239758782978923 12.877785696423471 -0.4985752124104382 -0.6417789736258431 0.22182732455657928
Ni 4.4380682110824035 1.6482707243974364 8.759446753478985 -0.8187973693978479 1.1557967458435965 0.9902500981566171
Ni 8.978814554384423 4.9026272986154575 12.93998626149011 -1.1843735290400248 -0.9839205563941633 0.3099745111174726
Ni 8.302326253204685 7.195720012092222 12.872037822887926 0.48318047512192275 -0.0558153071974071 0.8953668784234708
Ni 7.9612150798889845 0.10200885295950352 8.492726062112126 -2.5801729847976467 -0.282112751710198 -0.7153467197106648
Ni 6.509349240294828 7.314438721620345 7.30392569037746 1.3073817891441615 1.193953459418976 1.2897105971166434
Ni 6.156373571004388 5.188158793429445 6.596512262393632 -1.2036082088999207 -0.4872330479247416 -0.6368797365520128
P 5.636400741976261 2.4449619494424644 10.772370503073 -0.6075025689414764 -0.2696927807792904 -0.7748309911192269
Ni 6.842845748750284 2.5363287090428077 8.661477544758899 0.5943426345207506 -0.20439910177780282 0.35021278981222914
P 3.613600974870405 4.805231494440538 9.210623021426546 0.36363240565224475 -0.27338617047047753 -0.429883306360679
Ni 1.4994713230545704 5.534847293912759 3.9751297749808634 -0.4055239036797081 0.8145211106199972 -0.9406162371795737
P 1.6651870803520958 3.9288628500406753 12.656602729039848 1.2832085343320674 -0.27390296220589605 -0.15195759614863508
P 0.44817833936093765 4.0117760410249845 5.204636338188768 -1.0400479955153505 -0.7238421587761856 -0.38208341326858064
P 5.767334258937585 2.8449807601152624 6.785933964834159 -0.026383889310167465 0.1185201424257959 -0.16868056533027076
Ni 7.827211728304826 8.435647419317101 1.6128302672682304 -1.3058398985783382 0.08429284581180967 -0.12481266030272699
