# total energy = -340861.90870530123 ev
CRYSTAL
PRIMVEC
9.34123064906966 0.00000000000000 0.00000000000000

0.00000000000000 9.34123064906966 0.00000000000000

0.00000000000000 0.00000000000000 13.67183528098130

PRIMCOORD
 96 1
Ni 3.0822605447525913 7.973627921003531 2.754670118789401 1.0058412677266548 -0.2398569283647805 -0.4530720857723165
Ni 2.2739825244401555 0.5037921946571319 12.015451455675715 -0.47249034239792825 1.4529406808553043 0.4061000878981523
Ni 8.842894837333672 -0.06337277812273051 11.534927332865802 -0.38148537467326554 -0.10564945711071483 -1.0038628038440451
Ni 3.540840248122345 0.8752630523929004 3.533007626080556 -0.16724049044963457 0.4258793274076085 -0.941290894649095
Ni 6.381714047279365 0.26483790556684567 11.380476620134063 -0.6183078870870965 0.331277643470623 0.35934869067522623
Ni 4.371770753171024 3.1100413652085033 3.6082568450666512 0.9421753541365773 0.6646211683313392 -1.2778521551161606
Ni 8.858830977111003 4.086274715647806 5.779303676496071 0.22566443891448232 0.8545035645502057 1.2443352543056374
Ni 2.809057566987269 4.300534526944801 13.492433627771296 1.321155445889486 -1.5782955868147464 0.1863497004752597
Ni 0.854559148405515 6.822760260401726 4.835413403644715 -1.065907894001248 -0.9757279932810422 -0.3101740287227884
Ni 9.149530080200442 4.21090541723583 10.522733046142328 0.8635106531448226 0.8167826529606642 -0.4829285070121167
Ni 1.7922645923315665 3.480981641033749 4.213605032942541 -0.3156268243072435 -0.23222100908607748 0.7744622949258984
Ni 5.055352683279702 0.0936888086229383 9.222062869264352 -0.5490469959077448 1.4373238002536537 -0.2812462899448447
Ni 2.9600679044083447 7.485483222091422 9.035100936789924 1.197986491837769 -0.24886247429750044 0.46169479444432093
Ni 1.4346916178084095 5.961750992115643 9.934529753311757 1.5350257203825177 -0.6254247006375359 1.0704793154220145
Ni 8.31339650958554 2.361136207982073 0.6804049775071129 1.4116078835447885 2.144867736090448 -2.676762902809255
Ni 8.727586684103079 2.3340186149143145 11.741139673812167 0.17418221187479035 -1.5680379136424802 0.8288863782027337
Ni 3.9546661146379383 8.480763342170809 11.089649542182404 -0.34833434184259365 0.267454635477391 -0.04887898508889001
Ni 0.7117186514587973 2.422610848002369 2.497324814462531 0.08915685877233033 -0.5970896011382684 -1.2657214332908975
Ni 3.516384905838022 3.20101561215542 5.6808116069859675 1.216295574559602 -0.06546362892044855 1.2630243460747088
Ni 8.18863503076605 6.365544376731555 0.9376690131258572 4.078003584187106 2.354503403676842 1.668320450014327
Ni 6.327077188218628 2.7896371481144238 10.73237735529162 0.3327683690835366 -0.47277264952503745 -0.6880410899171764
Ni 4.3108005396149585 5.522460930387268 6.354368528179621 -0.04264894501877817 0.41423994339646725 -0.3584045815944021
Ni 7.566593129293402 8.92932924610252 4.427145569466468 0.1666321674416743 -4.2271815607080745 -1.1192258886980984
Ni 3.7661974416323942 2.452147819852266 9.682818145291868 0.5465347710088523 -0.5304730895602993 1.0011623741937468
P 7.449781037900939 0.02389580255826139 9.434632851906178 1.7123958430669863 3.7045019990502652 0.7695810555741972
P 7.63597045058663 4.138492195926405 11.959109821990499 -0.7098252756718033 -0.6647319828775906 1.592554924947238
P 1.8795490531049508 4.224618344078224 6.7096033926287655 -0.38120563864931767 -0.577430175036128 -1.7012907342927603
P 4.476850258654736 7.882270683593032 7.588839270489015 0.28788025032159453 0.4743924445166475 -0.23696803685275966
P 1.5334657924892492 6.5575066700634315 2.677260273114855 -1.678164432687942 0.5571986784806017 -0.05783979382660361
P 4.793574030806103 6.149874039580881 10.142081626757578 -0.558822844347586 0.9195097942182616 0.3992684096882995
P 1.8720293622956 5.566374056467713 12.26367785047701 -2.3033117112943753 1.8513161464156889 -1.9216867257194516
P 2.9190038537277156 2.7053045162798655 1.9629615737038308 -0.6630664222497097 -0.898312591315356 0.1610528735816839
Ni 0.1417653212794427 4.6865889142353 13.673065942242724 0.4169915379996754 -0.6711733676275603 -1.0410586961680521
Ni 3.6374098923298845 6.600934052141285 13.054251436018063 0.349738678389288 0.22624550822893294 0.5054261738940005
Ni 6.843469769127602 5.626232663556309 10.680055253227847 0.9367410704948835 0.08599543032521319 -0.7260311960077044
Ni 7.079242435000913 1.1868220580244033 5.572776536071102 -3.261336373758384 -1.0709089467602653 0.9842020921903243
Ni 6.747918319079342 4.085499393489823 3.533704481899658 -0.3962939004410079 -1.3329719789084398 1.7722112725627222
Ni 6.2630430509539075 2.5851949704082715 13.079995868155418 -0.13282550330487447 0.41524267362936873 -2.1144032489530034
Ni 1.708174832498304 8.687708969736471 7.1054856888640066 0.32653087281425697 0.6726669214539512 -1.7549350019807775
Ni 5.905040379813074 3.3120081167476028 1.4497478136425854 -0.5967129345251401 -1.1772042649850951 2.1615122866256646
Ni 3.4448310777639506 4.81738482816391 9.08687657685078 -0.15931506495497078 0.3460817983629911 -0.737375160265614
Ni 8.533812191992304 3.790736854994089 8.280798416396236 -1.6211720744632983 0.6102729325977619 -0.8852094782744948
Ni 0.8929749601489377 1.2746576514161128 5.539581538232458 -0.025266744986588742 -0.047362291334047464 -0.35238897152794146
Ni 6.087932338019632 7.51913033550171 1.1189636208623557 0.5907688011265633 1.0423504183962822 -1.4732377405414434
Ni 5.875989151965767 0.5522797214696754 0.4085704900567843 -1.0233805621619987 -0.035289933550545674 0.9825383313346562
Ni 0.5920098443893413 8.028077955447886 8.935091851394803 -1.6055263975062415 -0.18670811225594297 0.9776550351004258
Ni 2.4794896024596818 2.0073277494790007 7.381738578491755 -0.43582743975925586 -1.3540334275644292 -0.08762139596441038
Ni 1.830983994076609 6.175216798793016 7.425269648231701 -0.372956511266648 0.2354246036250397 -0.31368101343478233
Ni 1.3397940539174837 3.5921796527039507 8.654846519714985 1.0011361489415016 0.30282915832194296 1.442073399123497
Ni 5.5647673647668325 7.154915745866195 12.033580916449365 1.4117091850093428 0.38622726023362514 -0.2034989585610366
Ni 7.93659928203674 6.50973561565471 7.429124774190731 0.8323841069433471 -0.754856604879829 1.6322879818708016
Ni 5.791320235821723 4.517923650566184 8.787504140945835 0.11730761017493346 -0.2769299219576779 -1.2321708510289617
Ni 8.342812045434792 2.373793575741912 4.140009211811422 0.5898344622377518 1.276425449971963 0.21547361442440957
Ni 8.538398736324465 8.380120921326155 2.1244527721039024 0.5163263657462721 -0.9179902722499417 -0.4471004415699138
Ni 3.0919006949578707 5.319886998844928 3.613588819618176 0.9219502853389542 0.708488816248567 2.252991108662952
Ni 5.549167509298987 8.727185011177859 3.054397521465471 -0.20589419826609057 -0.643692388598472 0.33735753111611577
P 3.034321348189127 0.557262333988567 5.514903874654641 -0.48559499810068624 -0.6764574988446351 1.2899085720600623
P 5.906572341667401 1.437989072287541 3.464279520329253 -0.2655401920634975 1.118843822768331 0.4566968270090973
P 4.076681271596622 8.393404151550872 0.7276407793899011 -0.5213060783490506 0.2480312366454567 0.42353242444198674
P 8.952999924998043 8.00605133317652 6.177851025883994 0.01684818190559034 0.43889039495529575 0.19781193547858836
P 4.901633388921097 4.509908874523423 0.09366825791513635 -0.4586364672339714 0.4629507783386092 -0.6368203440689871
P 6.459974879081528 5.103674870306748 6.599545011118489 0.6395002048939954 0.7118978419301158 0.35267899196453456
P 4.467041966294713 2.803387439880094 7.8027627974765235 1.7794604979259674 2.326475293895032 -1.046998715801571
P 4.1173249668903935 1.562087323718878 11.639777044071364 1.9813242348764264 -0.7284930272846357 -0.46431320590377456
Ni 1.3738708639454489 2.405105381447432 13.317775964531746 -0.7762679806760696 -0.7034206576970402 0.6216325805849553
Ni 8.6554910646415 6.877135564999529 11.885746597506772 -0.8389370775705164 -0.9866469541863911 0.4923392588030554
Ni 6.808589613249198 5.543628159423279 13.426507891265713 -3.0552362301290734 -2.089274572206176 -2.978700916775496
Ni 7.055160741949353 6.180961655746745 2.93449535091806 -0.4796166690300643 2.0501308121271786 -0.6511498733177818
Ni 2.4562766438742947 0.460700162765683 9.170096668094788 0.15586155918873157 -0.40944946398635934 1.3216190157894656
Ni 4.596987828218787 5.930457868871761 1.8248757632440196 -0.6731916836091697 -0.5924446461670894 -0.663029141253871
Ni 7.663844683350733 1.1598539246497501 2.1875350379481597 -2.3005125512826834 -1.3206111433502419 1.8618813235260452
Ni 6.496274902044432 7.717108381481067 8.94099737751862 -1.3521853186120971 -5.0897984983940345 1.4975362080774919
Ni 1.45857714501277 7.113291221336421 0.24452446502769737 -1.0681586377086378 -0.28555880127726946 2.0359612054950165
Ni 1.9504022888675923 0.29033386096441366 1.2961966614387228 0.5362871251389151 0.32534867958069774 -0.15879055991006846
Ni 9.200280987240447 4.786306553228866 3.6946632301430427 -0.12391405974785757 0.6276988413836931 -2.3248567844550028
Ni 4.7453172323947905 4.297890958623005 11.568519333014258 -0.39848448033442335 0.8909247834917172 0.19705757381106706
Ni 1.3677336752973202 7.836405240271402 11.745432903496614 1.2751920917854942 -1.123066088379795 -1.3208338008840093
Ni 5.491391996683043 7.961643121862664 5.719434794053574 -1.2593875206530696 -1.1461096004628197 -1.8431480087826
Ni 6.760005871759218 2.2633148388447784 8.51068984334586 -0.16492932581795466 -1.846233075465827 -1.1528335494502144
Ni 2.3918314924535347 3.6867876384394855 11.001561735558578 -1.2340109895614941 0.8650998520088133 1.2754294046072807
Ni 1.8991656378249964 4.639443722291458 1.8329008146406822 -1.6684852577269653 -0.5264652539524869 -0.08160809989079493
Ni 3.8468963346783345 1.927628368130701 0.07830753795625865 -0.13887428060211565 0.34069970811547134 0.3616575413140611
Ni 7.644368217092974 6.40534736125161 5.095602178632909 -0.020014752559030045 -0.15092941199443682 0.592639792897031
Ni 2.903123761335298 7.500326437862923 5.198770468291039 1.9331019095349287 0.7472032020996293 0.5155131258163573
Ni 0.2958778814555313 1.2881277062572107 8.745654492753323 -1.7170045454835914 -0.11972856091160025 -0.9701705537979226
Ni 4.818954154941514 0.9781950089113078 6.924182674019772 0.10143259081588983 -1.581811827498121 -1.3254854407234073
Ni 6.9709775698079 8.843352557643806 7.123532012683368 1.5872175718947246 1.093650354221839 0.21410013111565063
Ni 6.274299234090885 3.137299076738548 5.830928922740741 -1.4560445165916085 1.9879934193664857 0.42551011699364777
P 7.768606586986596 4.33798352129845 1.6286987065665797 1.5661710356370704 0.026328867702515944 0.17040011912453878
P 8.44038120133997 2.157880366589942 6.615500767480541 1.7056595527844174 1.3685493617924172 2.4280081577342116
P 8.790378437668863 6.203614140482988 9.665071674981801 -2.1318399563722124 0.8013282660788071 -0.8563377895454671
P 1.2695106332348056 1.9409489632786938 10.521092726010501 -0.4961946279934036 -0.2578261112486914 0.43392019543421395
P 5.097304150888143 6.039413985145386 3.944557034645541 0.6598085774340443 0.5979812597146024 1.1362980136890364
P 7.380562517531635 8.760850807049783 13.287069470583303 1.099344833503455 -1.4096327620962885 -0.7086821632062956
P -0.11180705991960527 0.47689692288286734 3.5981533698127457 2.4376729345174857 0.8305599092504148 -0.7798189312521214
P 0.30785520761174207 0.2120982504854618 13.522416176331264 0.5832421537322149 0.28045927526717507 0.4050562200146701
