# total energy = -340857.93886861857 ev
CRYSTAL
PRIMVEC
9.39570341821684 0.00000000000000 0.00000000000000

0.00000000000000 9.39570341821684 0.00000000000000

0.00000000000000 0.00000000000000 13.75156168481496

PRIMCOORD
 96 1
Ni 0.9865582382702652 5.9620998794661615 4.492799803269706 -0.6969533048051416 -1.100792107472943 0.441074289980492
Ni 1.387886307426522 3.034652426845888 7.452919874415145 -0.9689634208636989 -0.5959837696685993 -1.2604591564506937
Ni 7.590159153689805 0.1299106307298754 6.854039627601315 1.4042558140550911 -0.19015416182301442 -0.2533590766162733
Ni 8.342538883844451 2.4240350675164883 11.64161834588939 1.8153299581290674 1.9951367152794863 0.7465313728435853
Ni 9.088585910000143 0.9971941743634638 1.8104890674801546 -1.2244518851181494 0.06835509153563066 0.5595584369620299
Ni 2.3285935137755778 6.183772706539336 9.563248382690873 0.36050851531128236 -0.18124374670726204 -0.13589565758976596
Ni 7.91411360647902 1.867950369922888 9.505780503255858 -0.8348600792876655 -0.3153321758849601 -1.1022550651717147
Ni 6.385160210268681 7.436116598700414 4.967668981432212 0.84948117163495 0.915633599092307 0.1184592072808734
Ni 7.409254283072804 0.35019571243117203 11.694355488731716 -1.4012154845668707 0.3244359379584412 -0.1953151371986636
Ni 2.004329002778698 8.262487492047585 0.43197497405801905 0.7928220283800088 0.8929011904917977 0.9085540665377063
Ni 3.293024870862555 3.018886436771341 8.557280500620847 2.397725961810903 3.996986323802774 -0.504883414016653
Ni 3.710353822674922 2.051147792135949 6.330834254004657 1.2704838876765474 1.7319369984237079 0.6023145969826337
Ni 4.929502695209436 8.750321801142075 10.467001348538023 -0.2702895338230248 -0.12000829693554815 -0.47095282270747924
Ni 4.3867786876551715 2.988463149607227 1.8456928884642503 0.7640174454434906 -1.7678442538432781 -3.0350885515366053
Ni 6.386221924737347 9.044022089425903 2.6240038200531886 -0.4928241688592738 -0.15143103422120374 1.759061365444325
Ni 4.115994519628686 4.218172792608839 11.64982737182987 -0.24726659056529024 -1.420353490947902 -0.46338040967686006
Ni 9.242337198188395 9.237752094996274 9.538563991079522 -0.5721463009293695 -0.10457370754803282 -0.033639028210684
Ni 7.9345962395913645 1.6006332164002806 0.011536044465750152 1.0507345286949192 0.5098983507327413 -2.3917373483276356
Ni 6.992150828138738 3.7094330437551926 8.127049369088356 -2.004544638856948 -1.0528418048459094 1.0329388952743952
Ni 2.8708383404634525 5.150799694152109 7.176059505088774 -1.4344963581071877 0.06660417028279497 0.7141550133954088
Ni 1.3848139124596703 2.801009473816234 2.21401479162952 0.6641575984313594 0.46487730593736065 0.2758302611355959
Ni 6.440219031387182 4.207254985417765 1.6472857018097844 0.01947867754990194 1.1345172676395299 -1.0240241092832687
Ni 9.090248949477614 1.5571874845142821 4.566934720722148 -1.8955072391106065 1.1476373499612558 0.34863207558867054
Ni 2.367331998327042 9.175430395255827 10.250854134553549 1.0243624664592939 -0.5403201575577081 -1.370572819980349
P 4.783108242675755 4.213550106603669 6.637163307043669 0.6972422968004701 -1.4712471924739758 0.6432151918517374
P 6.403848264057877 1.5630597990533714 7.922329209411788 0.27544099611697725 0.18956589341971222 -1.9093737126800534
P 3.2502744210179846 0.18396035331797964 5.487780349944514 -1.1338469810453828 0.24458055909269494 1.0163352252794433
P 3.5532858512349925 8.3122753236358 8.511583558233143 0.11816815840301584 0.09845679601701753 0.019912422653210866
P 0.21337078367039136 1.2801645695214678 8.063901787031131 0.25514059399672834 0.0812489167791633 -1.7529282559633939
P 6.909590783570773 8.562680211285832 9.76492903236201 1.862805120891895 -0.13573702052471462 0.2516953157606052
P 0.8054823658538862 5.898274867203707 7.769082470488735 -0.11112924927836344 0.17209961831414877 -0.7512614313294028
P 4.247280681316197 6.244779007823026 10.422116194912203 0.5221591703779652 0.9034164882008247 2.093313775272556
Ni 5.116824831154753 1.8170444496464306 9.466423781429716 -0.7986052107206891 -0.28246293596076516 1.3429483733948613
Ni 9.117487093235725 3.6996896994719357 0.742871278452953 1.104679101232175 -1.8757732510167888 -1.3468376811469385
Ni 6.718651301869377 2.6895106631996373 5.932863269624106 -0.9256189924397931 -0.4440063760256224 0.3177119889710464
Ni 4.242441894135988 8.257902388855465 4.164192598224878 0.1966099447506872 -1.4981697278964328 -1.5134785903393613
Ni 1.3777671350127632 7.705857843664758 2.840880140610835 -0.01696670976132562 0.9197453072678354 -0.16648407189958425
Ni 8.520747187625103 7.81331650187846 11.233279202958624 -1.5494395818150026 -0.01418451903049815 2.034932764230502
Ni 5.3254846092093056 9.143080988922891 6.285467100801468 -0.5330087114979595 0.4049266364153413 0.2661318029009094
Ni 8.939804948837777 7.1158170744803275 5.990689125353427 -0.23523614176331745 -0.31489123169279964 0.8178794855692688
Ni 7.454447615765635 4.592779481686424 13.213201926942538 0.06141362722079101 -1.4805157622600955 -0.7706393216353824
Ni 0.9000285090738765 0.5289254777428941 11.723329958452744 -1.9635144603885155 -0.5656344679527807 2.4539246204896576
Ni 2.5165075790264355 7.759986490160267 5.926399965349804 0.057225557281372415 -2.536501512051625 -0.7051903480029532
Ni 3.117437968292153 6.05716560507657 12.670647042047 0.9483043498524507 0.3763940761932873 0.5529378463217187
Ni 8.866170822369227 5.349659753703829 2.0976903478172817 -1.3031271276328655 1.689121445920078 2.635455045199403
Ni 5.746111452866826 6.720577421038198 0.9949241724552333 0.5488690755689837 0.7222195355710982 -0.3179235907612202
Ni 6.485252637124549 8.944296094997272 0.14832057170250196 -0.6723033674669453 0.14005750227693944 -0.9515012595231935
Ni 7.233423092217577 5.484920297871396 9.45110408726014 0.4499348256949154 2.200551145695681 0.15399545251427027
Ni 0.944550048983436 4.583609275302183 11.3629286331378 -0.026578778929792934 0.3627754569685881 0.6752457379247209
Ni 5.916070329182964 3.3777929056972162 3.7545887936349738 -1.9977926648450948 -0.25540516051202466 1.9237973443045515
Ni 2.9650678484834954 1.9315029067907281 11.589664804699158 0.4991166867362049 0.5070639666077397 -1.0002874277879612
Ni 3.6411544681462935 9.253781164762172 12.378082694287613 0.08622014474150959 -0.6275178357211387 0.7175378138247126
Ni 0.20156038466937493 6.964179819526148 9.719919855453124 0.8843551006939996 -2.6285925137516153 -2.521033241212697
Ni 5.821746864130296 5.808884146363875 12.03206619066762 0.07399557765085965 0.5287172832114572 -0.5638241542169192
Ni 0.03790696481272926 4.228611418933525 8.99574884520361 -0.715421024592026 0.45525752345940945 0.5557485762976365
Ni 4.340805511591549 1.2827765750284548 4.115691038413305 1.540010832301935 1.8006903538390213 -1.0044112201483475
P 5.230334322269534 4.31409352721614 13.640998631759704 -0.15459811909527568 0.28384336124805953 -0.855449730513559
P 0.5050913972768015 3.5828259422924273 4.61369055886754 -0.9134247643664463 1.2494232103515062 0.27584105976887335
P 7.247873683835367 7.349084199379479 7.37776740229937 2.122312733608067 2.5270665918909705 -0.25503389321553493
P 5.248054618622691 2.0022243652478884 11.693653629698003 -0.14525961530316917 -0.5836489022523303 0.21501647228233292
P 1.539063172920837 0.71865103458277 2.5681595181419388 1.640012604208569 -2.1778660453933396 1.090155196584387
P 5.224236510852143 7.799100802842233 12.52558208152497 -0.002153041787260808 0.16771228787973053 0.7238421587761856
P 3.6876068250763057 3.6074896633566023 3.5563046906932474 -1.054060764854675 1.141091578422938 2.660486534246734
P 1.6590744906932973 4.928657081915807 1.6526760167715053 0.27723228368944514 0.4985181339202576 0.7143532454491439
Ni 7.830069040795574 6.8197208818645505 13.302407552428098 -1.1967770449107002 -0.14382005464316522 -1.4704887170413965
Ni 1.8574177865655774 7.680057242505815 11.904561799543282 -1.75246031518804 -0.3276696144043905 -0.6460935418407969
Ni 1.9208199921812168 1.8067091760576333 4.813596360192381 0.5523102400400488 0.5048271068574208 -0.9545909541921109
Ni 3.0484922977516136 1.0050583779942122 8.343966091170032 -1.1433801173467988 -3.316222484273302 -0.41958500975846447
Ni 4.447324599478998 6.134520430037086 5.830744189574507 -0.6345300053729136 1.4574282843130126 -1.644695611506535
Ni 0.6445583977950093 9.170873479173494 5.920391413113407 0.10724842616671852 1.4037266810244984 0.01188441014241179
Ni 2.2119928362874206 3.9654189791431733 13.486651655984607 0.430073053773982 0.07613704947389467 0.4378221015917815
Ni 0.9018212092563698 2.0517303257382267 10.01670569268837 0.36739521512878665 0.29593654496716776 -0.63666607787931
Ni 8.119700989566722 7.962191420073452 1.424166876004505 2.223825028621957 0.16936884964654703 0.9862569178368239
Ni 3.9642633076418807 5.268302359153471 1.3117144015067606 -1.4479334574487 0.07585885611184355 0.4225644041017626
Ni 5.593741333058167 5.721908121262515 3.401970868902718 -0.48945268128387964 0.40241929661245535 0.28006795336602736
Ni 1.5284084454211133 8.221390685977223 7.9295357138141584 -1.0170836734096935 -0.321338272869724 1.167616364186344
Ni 0.5503796265725844 6.274309703177199 0.38122784116669867 1.2514548960695542 0.1824886748579567 -1.3708232454282585
Ni 5.469398596081676 7.280664688221642 8.37692903692601 -1.0404693993234857 0.45052540809106284 0.7762903492735728
Ni 4.323724123060247 0.6022890079574813 1.8666227570518907 -0.18868400503539118 -1.4518353636062673 -0.8761633089118267
Ni 8.026392260466407 5.19303338031724 4.466479619720344 -0.36832903979696563 -0.2959352594155871 -0.4273042327795931
Ni 4.90295043778949 5.0141391901984225 8.951895339796017 -0.012355693351875495 -1.9739158582274974 -1.2639982799522036
Ni 7.8283966056148415 3.0373583893855 2.8370297814138445 3.331328229566488 -1.6979274742474821 0.02041687309345516
Ni 6.574427256789344 5.730552168264055 6.4817846830503445 0.2961982832689867 -3.4767580518989347 0.16821905231281997
Ni 8.467746025521098 4.098029934990704 6.636118504840874 2.932496650305292 0.8659498587139346 -1.5471291885142708
Ni 8.698758181637238 8.928746206097763 3.7344707138092166 -0.6619086544961826 -1.7035000832392535 -0.12650933127885952
Ni 6.355140938344856 3.609162098537335 10.726066255885138 0.616397557438261 0.06759430211020616 -0.14297647569594732
Ni 2.8862472938140233 1.5026454270752205 0.09098423211316026 -0.7843862389078298 0.09317086502772987 1.7304694127392457
Ni 3.030602878739732 6.039896302480016 3.5530180736920096 1.0919760518432098 -0.43283184746604164 -0.5521642013804878
P 8.35546737153371 5.337915124625651 11.246508353152281 -0.9628064001233677 0.34388916158704647 0.5299843228493388
P 9.38036007911515 8.348251471428076 13.242203644203029 0.4943249217745164 0.2674888311494361 -0.28910178143352144
P 6.514219590282969 1.3765926721049455 1.3463479033028198 -2.531606902963485 1.0281844113085452 1.9574212030065836
P 7.391261511325035 6.986372470632274 3.1573443387591515 0.8268068699658857 -0.9475235058223681 -0.15458526357946925
P 6.692286958514681 1.1855780247774486 4.322596638668741 0.6914861110429833 -0.25655238674259045 -0.16437859552080722
P 3.707572694509209 7.527358273082968 1.8345129411521506 -0.06265572715800823 0.49104316569945117 0.7353103073167853
P 2.416988290069581 3.5596561380469964 10.279416132901353 -0.05627707732517405 1.2504850759571173 0.28703667137437666
P 0.9992800204877483 2.286932965509463 12.959031241424881 -1.2012283958138346 0.43887728232917317 0.14359096935149465
