# total energy = -381176.04678510164 ev
CRYSTAL
PRIMVEC
9.22377277225956 0.00000000000000 0.00000000000000
0.00000000000000 9.22377277225956 0.00000000000000
0.00000000000000 0.00000000000000 13.49992380544323
PRIMCOORD
 96 1
Ni 6.731297045037901 0.6410134509343881 9.949943537627322 -1.468478371479587 -0.8320184960738122 -0.2663351771609671
Ni 4.672348093526068 3.225313435373522 3.4681440052406116 0.577242227395038 -1.0859846101464652 -0.7973124600511946
Ni 7.703196732666586 2.6089440598826354 10.30300649061356 -0.9419053883046423 1.4796549569216968 -0.04022645162021459
Ni 5.819527130527034 6.59687900796995 5.534563290123838 -0.25304488780996426 -1.2559337577765144 -0.38207518573846455
Ni 8.715099921754387 2.0610427478759594 0.9609464577502662 0.4472544506492749 1.9875172510610157 0.5904571834234154
Ni 6.623351235128738 8.193052844147042 11.785149594143979 -0.4252141830197838 0.39865288759148765 0.7542979041628816
Ni 7.376748975313337 6.692557200415284 7.69399786432322 -1.539670932464013 0.8630290855227136 -0.18789699035772156
Ni 2.9657288050844044 0.7395574695045423 11.22846725068951 -1.4865784235144075 2.5289941479309865 0.6511120781013109
Ni 8.048931398378379 1.1492636095925637 12.070268393925666 -0.08735965766259149 -1.0134902996314805 0.6014843877718545
Ni 8.773827681447766 8.689540848075987 9.76938173372757 -1.5968391541448885 -1.9982078980056424 0.7613818075928565
Ni 0.37734730130110156 3.9370289474986913 10.310850386772387 0.5995632594897417 0.8126686307922908 0.7000085466916977
Ni 2.49542709136584 2.32380035591512 9.218908833939755 0.6161985540535775 -1.5470587402876517 -0.0260496458992003
Ni 5.846571231582632 6.8396671484834055 9.92872148179215 0.5081291746474603 -0.8450133656715834 -0.2827035912166615
Ni 2.2358055659866056 3.455631035427506 3.7504680019459524 0.48005247101590226 1.3667125656939945 -0.5420587375153697
Ni 0.22412844868689472 5.726818992836101 8.515130378075957 0.9922619863803234 0.22751486185965977 0.7641567992348323
Ni 5.780335321050487 8.50003844146369 1.0175509050074263 -1.3139350168816468 -1.3562265785610064 0.7451825721251747
Ni 4.4986275617112215 6.427715019784526 7.510871851660353 -0.10321333686539644 1.355518239640072 -1.1001632156396923
Ni 2.760444523674654 6.663382407905442 8.998873895501317 0.03663976271022077 -0.5554582987507273 1.1673137453442606
Ni 9.209706276087378 5.981441233504513 1.2272266245183265 -0.3532063252229143 0.5879069061977359 -2.4615939641094577
Ni 7.017473811528686 4.132508358709908 4.599653697468982 -0.23421181426386117 1.3714979028977798 0.81033561178374
Ni 5.270989378215844 2.562511588970671 6.0420524875483546 0.9945194149559322 0.1316055148548443 -1.1170934157361276
Ni 3.4978574660661583 1.263057291285235 5.784797782200112 -1.3747819729656903 -0.20073270866980913 0.765937545284339
Ni 7.279668769443566 4.8825578694664085 9.200953838334424 1.0863851880189934 -0.7281243310913073 0.39157129815435787
Ni 6.6154187907536315 2.655016803665962 8.050813970351587 -0.6734691056402724 -0.5403201575577081 1.0983241055484245
P 0.18253661359825132 0.2633433175947647 6.017050529730721 0.14771424749124884 0.562627819915973 -0.7560475398641365
Ni 7.885725967246813 3.5211290441573158 12.47564397281123 0.7070567117877307 0.8673331122147063 0.3438284835524401
P 3.7227699354180346 5.227508514513221 10.845905750777655 -0.05169305749891742 -0.4519832235835119 -0.7578025748820304
Ni 6.0408976712277 4.618887107946858 6.824008872237846 0.6780621243275936 0.39618000057096286 -0.02478337759226699
P 0.39216436949199945 6.795577515793856 10.571398901290806 0.0035969733226389666 -0.33777970625519893 0.16275545809508746
P 5.138683585057079 0.8560887668838785 11.858589271021424 0.5769784322106902 0.3903793347287857 -0.15763047816369627
P 0.9112174105363676 3.900299885287439 0.5492618184547327 0.16401298465127237 0.19094220494194858 -0.2853382006260311
Ni 5.311527858481654 8.833708412707297 6.2642753048307185 -0.6746582408523671 0.4216550049136158 0.3978257637045019
Ni 2.6079847875395994 8.186845245234894 7.270127699139367 1.1795354842214332 -0.017218934981447765 -1.5612962240432724
Ni 6.478427321150037 6.1482070408323475 0.44334800563375215 2.1867538348012725 0.6283719561913179 0.9487571211191532
Ni 1.0217634019215096 7.80607869145722 2.812790355155085 0.9053232183052344 -0.8577570384904969 0.19827756226109722
Ni 9.183372405516527 5.048834816850197 3.09335906794812 -1.2753694979036228 -1.3318098402795386 2.4719958761690717
Ni 4.103850097461701 4.682568033488415 5.14093326317695 -0.50983998669098 0.6385913199264809 0.598024454247712
Ni 0.47464149869354993 9.250613707254354 1.2038692653426475 -0.8965894379766622 -0.16810618088403953 -0.7011300618906505
Ni 5.116758677755184 2.5308740491955346 10.31422536514082 -0.7360759818382162 -1.098606926896166 -0.7837781730101857
Ni 0.8544201864333473 9.06919132537763 11.890786693789083 0.12570123355526738 -0.9944350827722422 0.47248108642654757
Ni 0.10830092515153604 8.05166163504702 7.525114278822683 1.4711860002187374 -1.641652196694521 0.12784579070209595
Ni 8.966724436350809 2.939607081281726 8.299050593298038 1.502241069752329 0.2732727848210648 -0.6140516829139038
Ni 1.8563487879080771 5.943282486551236 6.730130237812958 0.8672004432915839 -0.5794960564262214 0.06421458700469586
Ni 1.7724862480726418 8.606194839502187 9.381515642234175 0.43054433698344563 0.9462896334152671 1.4975061261705047
Ni 5.038854694973609 4.76873651645615 8.92485312095453 -1.6540117467011386 -1.4999489312840426 1.1462237574431808
Ni 8.171164831935263 0.749750660526555 7.834397517876352 -0.9094421255696145 0.5054441716161294 0.33276528375974307
Ni 4.392037646363851 2.9098604148750735 12.755227586698147 0.7989034586873983 -0.48960977568703423 -0.052672647803367355
Ni 4.035612628290721 8.458300870769085 12.892386006584521 -0.2532778297563767 0.3150573249570187 -0.08842178037851868
Ni 2.643081242013184 3.242469652277824 11.188669439357794 0.7613118735868695 1.8199409745385173 0.21592869968395714
Ni 2.1123176993657506 3.4640338922016025 6.673457534639082 1.4187388381626145 -0.44378706092596476 0.6668677982736708
Ni 4.110408199729958 0.5667888310147079 3.6758264675079526 0.29364954870520393 0.04367687206266026 -0.7054153195295658
Ni 1.7905279471397457 7.57193322580362 0.21062761283591286 0.477136840031004 -0.7870475877900769 0.2890621864448376
Ni 4.113894785745994 8.433737964523841 10.345113012209332 1.9999631901338524 -1.362746639067711 -1.4224615384298405
Ni 7.832089729989548 5.934824287141964 11.779965833982573 -0.2739405003120508 0.16066180879085235 -0.9860399167300113
Ni 2.447445026668971 4.448570148195284 8.91139379207993 0.1819790822113898 1.0673520826469425 -0.37429142802798765
Ni 1.245928745698521 1.8982985053708532 5.099353418992594 -0.26721038067706887 -0.820697157523722 0.7102669911949122
P 6.340079956984649 1.0150484955202561 4.642056302162941 -0.5200608930880398 0.15130993526230715 3.360735479084012
Ni 4.516595470598093 1.2981260744412322 1.25346364547762 -1.4629564132200934 -0.2630585632922244 0.594691276109421
P 3.429232598448952 6.859857986549812 5.406543784059391 0.45166594945340927 0.01592207054689516 1.3897769037126257
Ni 5.04352192387338 6.229311672681554 12.270417801168414 -1.0010155642032375 1.2804888214080592 -0.8204223065957807
P 5.932795057185541 8.423794737737369 8.49401716275663 -0.1837917099400964 0.12522506524979723 -0.8040706047106346
P 4.279775110911026 2.82265886938407 7.986257708797009 -0.15369771876819335 0.8466652994527096 -0.004842929914598111
P 7.337879997875312 6.424034734545377 3.8760302950086225 0.6005940147471011 -0.5655861312133486 0.03958727537431892
Ni 6.491949371677835 1.1333433782071742 2.6860123688730666 0.13925506098030208 0.24264940350825306 -2.62819039321719
Ni 2.143770763690304 8.640101427319507 4.864035611850534 -0.625057289995788 0.16250220443370078 -0.06880837702296537
Ni 6.413519633862095 2.0559788967574315 0.20988509914731268 -0.16227440469361085 0.7100990981584803 -0.34268639952819696
Ni 0.9328093396499587 5.483671125194008 12.410398695448722 -0.8856249685453587 -0.41858510773904034 0.11897574190597575
Ni 7.917059122528487 2.2979645690608463 5.943165344640115 -0.2421259269046153 -0.6123771234249583 -0.4938870629061495
Ni 3.1178841567259954 3.2251289599229387 1.2239245139528747 -0.3125433002859134 -0.37121098933045105 0.9432032811804595
Ni 4.152238008149855 6.682032875959473 1.0847756039547012 -0.4615914360972373 -0.30344750863223224 -0.4376760629322204
Ni 1.6645312143909505 1.0338280963896957 7.695267055423237 -1.546399252326782 -0.03390076651250291 -1.8165203788927426
Ni 7.577808768904716 8.269490247096476 5.746175079488616 0.839048149227084 0.7917678760838815 -0.1777699292260487
Ni 3.474161594438658 7.120448008044612 3.2873257804645495 0.33955299610553774 1.3623254923698924 -0.6048553611266164
Ni 8.511826422756 7.629222076982447 13.29025620176308 -0.24030610008705708 0.8750302237486479 -0.6069037590152129
Ni 5.987178420017671 4.443921366840569 11.174818100150704 0.367326052453748 -0.12771337888928974 0.4148606076996016
Ni 2.2551201456627386 1.020684220535594 13.665162892852958 1.2943013018111194 0.23964275547144534 -0.1413620800209759
Ni 8.754061136917704 0.7870396057303292 3.751763941986304 -0.5537346311914012 -0.9415829719682172 0.20247591661316097
Ni 1.8806995473851502 1.2422484604593724 2.735651945493432 0.18021890498717347 -0.021401605604227658 -0.0973962159629871
Ni 0.48526820702443485 1.4190497322989708 10.121337834010307 0.6807167883416212 1.1538653331488387 -0.02744524069514628
Ni 2.479709782976093 7.004532858670226 11.420031170462083 0.23550019405798148 0.39345360277873526 0.03213853240575756
Ni 8.890323928491492 6.249954475601891 5.775712366258855 -0.977996991820877 1.2028451054816511 -0.518373735193604
Ni 7.919595659974015 8.007876386850935 2.238786689268041 -0.30162562493214506 -1.2198858630140215 0.9003231939874816
Ni 2.178101645043965 5.298909737661715 1.831035066578956 -0.06865565349518499 0.7758110956443091 0.7453327245497938
Ni 0.3123464539106158 4.15172147688822 5.412254221632215 0.533725535059326 -1.3686115824889205 -0.9856190271425088
Ni 4.107668739288788 0.6850717227973381 8.29980694264543 0.4692191278458242 -0.6108786845025608 0.15880290120524262
Ni 3.1156427800014006 4.904141497184724 13.07012625846759 0.14650042968880575 0.7989695360386433 -0.3154671588009276
Ni 7.069735706679102 3.447541786919403 2.4904527108408456 0.10451997149196192 0.20585434616709064 -1.530317773383887
Ni 1.0112390774656987 2.344507725243161 12.358126654148522 -1.6747703194047285 0.5948082613032595 0.25229001192181066
P 9.353735484130747 2.7806353617410604 3.2866506003154123 -0.2498418074916342 0.6426819450560867 -0.21757420570718014
Ni 5.320622498195438 5.616281302846236 2.9875596299065017 0.9064943557952001 -0.5901478797131127 0.021350954871950326
P 3.0430609139691702 8.834759922775625 1.607071723420334 0.7090390323250821 -1.2635683915036366 0.8300073791810544
Ni 1.659245992731722 6.013004983099417 4.273913403468723 0.4300943939302206 -0.448756232005782 0.7666463984259054
P 8.250609184729214 4.5241312927544435 7.059177254264933 -1.3023930776803183 0.15833521754020471 -0.023895575670674976
P 7.4826102126309015 0.2504899905753323 0.7105809881040781 2.292441344238774 0.27260455510944664 -1.2478905757570637
P 5.4339549912616505 4.441919808201734 0.962941559748331 -1.1220371328946481 -1.5404610324654762 0.5170637581329288
Ni 6.033435639251581 8.206962293121068 3.8919735858253355 -0.5335334736531778 0.20051879288679014 -1.3478072441490594
