# total energy = -340859.62748913985 ev
CRYSTAL
PRIMVEC
9.40877984235896 0.00000000000000 0.00000000000000

0.00000000000000 9.40877984235896 0.00000000000000

0.00000000000000 0.00000000000000 13.77070035333598

PRIMCOORD
 96 1
Ni 7.173131375297672 2.697478339786869 13.234358562200255 0.09569003190515778 -0.08671096833499904 0.19958085445355306
Ni 5.786804130260886 5.419532412308264 5.873685743447674 -1.4292356239288806 -0.19139780442212842 -0.7803208105892044
Ni 3.2382950004226223 0.11026149001375077 8.808263451444162 -0.10108394922721946 0.25867226129907067 0.9027593142328
Ni 4.308948275713581 7.1024996656353085 3.7710652726071636 -1.519710430181686 0.7072338607955433 0.7864071259926005
Ni 7.711887513165867 2.7264479726695674 3.6825879303729874 0.23148310247878845 -0.48579271593378914 1.0145693916282719
Ni 5.905495886940079 7.918184418195435 2.3921220379264483 1.278305440603495 -0.4443444760913315 0.06870219046240425
Ni 5.843642568794298 7.923660328016068 5.560898387332379 1.541150859443649 0.16034607732264644 -0.7263309866363103
Ni 5.442536878822781 3.0413692400345513 4.151535626807867 1.4464195919073346 0.6173221261350593 1.2316358044610982
Ni 3.673930912115316 1.4100750051523852 0.6913232651972315 0.35053803436213177 0.5662142517156507 -1.6820149167822838
Ni 1.2087929797351848 5.748755024909268 6.052057390147962 -1.8240015177611362 1.2390727203551177 1.3621941089983507
Ni 3.7132125676155643 3.08013341264797 2.857585663216001 1.3134069122923187 -1.3964291189218208 -1.3886327628058537
Ni 7.287786765459593 5.092313869796256 9.4769821232667 2.9527057782633146 -1.244405959642573 2.7774064220649457
Ni 6.262549670072754 5.171140626630048 12.338822436690416 1.3979720379289085 -0.3592687293669103 0.04309708829979029
Ni 1.4529508145211592 3.0590765635438846 12.758539633906254 -0.47337068812035255 1.3026589297471953 -0.602533397861659
Ni 1.914413826656531 6.989180322199384 4.507962785208492 0.3389559859514872 1.9554537948675677 -1.8467452392155548
Ni 2.1537073223063063 1.2822849584447509 2.4107815299475477 -2.404012309040247 0.8351105047355748 -2.001588384442101
Ni 5.071558101644508 8.843283870590861 12.257451545809374 0.13772319771680797 0.6127129094978222 0.4620701755058687
Ni 9.015831482619378 4.821510370728437 3.562025708277399 1.779401105442942 -1.5920196212690583 0.20203831485511012
Ni 0.09970766175635473 1.3032006758524282 13.824957076549019 -0.4010805231963738 -0.357150654582643 0.9154765046891524
Ni 9.428632285833244 7.6252891042498705 7.397358591916897 -0.19634769222823603 0.44045851077336406 -0.12515410280254574
Ni -0.020983460621952978 3.607975365993941 5.751071466486312 -1.0105895810449177 1.7286495859216873 0.1380399576262784
Ni 7.272666856384409 0.2700884318060184 1.4566512876009787 -0.07813042575483962 0.2604409231637192 -0.30999148039833707
Ni 1.8294337278593469 3.902376084701191 6.9447567685600005 1.7157346776322324 -1.5826988580887644 1.7670590389378211
Ni 8.09197398915234 7.450953824066852 0.3403936568106903 0.021975218719510543 -0.36374167753659936 0.5994488453990645
P 2.7440988435003373 4.944981787525984 13.25869154841696 0.6295646909478384 -0.5580800526442905 0.1015482904581477
P 7.232848900437809 3.8816955867875276 5.590050550542433 0.0523556307835808 -0.9930541432643155 -0.5886466125772378
P 2.2123992904525456 7.940351503311263 2.5115006355281606 -0.1457075014738652 0.354091556041345 0.8693095192147868
P 8.052579428294965 5.151118743299622 -0.07213241003416847 0.2139435509331283 0.9551049177140518 1.2522547662630303
P 5.519801778216324 2.6468685134549323 1.6405590603123688 0.340599177981865 -0.5691823332050392 -0.3357721889068669
P 9.195341591670692 6.792884950055268 11.009757025276267 1.5538600794802016 -0.2502976640821302 0.875180376173267
P 7.3337110194707815 7.484919519002397 7.365575733885797 -1.0903881385307994 0.860784255352595 -0.2936500629258362
P 1.8716791489841647 3.5372777948732543 3.393059077825744 -3.4401619979424556 0.878381656719384 0.8206933008689802
Ni 7.196314608627637 4.175522369929385 1.963234103078013 -1.5597250229014106 -1.2047888594715832 -0.7075861019286395
Ni 7.740113852447482 7.705000286381153 9.893669693399644 -0.6124475716515775 0.6732431056723953 -2.7161002669562966
Ni 5.682488989055796 5.635962573139932 1.1752422119870805 2.246916620334098 2.907616856344476 -3.913418014861815
Ni 2.6810788366642506 2.266132831664981 8.784287998858357 0.6280757651071377 1.1331147308650487 -2.0180910100828147
Ni 2.258031872291158 3.489217747856424 1.1227487479470841 -0.20698228912394676 0.7397277196581905 -0.17709964263190145
Ni 8.396366831965283 1.5848336804246275 6.285581422048577 0.9909175565372871 -0.28860761540592234 -0.09011305203801255
Ni 1.401146073159634 4.206637204597485 10.444538694331557 -0.27036023915996016 -0.2582547141456778 -0.820399166667329
Ni 0.2448747838037273 6.66590405840704 2.4413525371454896 -0.06793163084496688 1.015258961496129 -0.5148513238626423
Ni 1.6996960637412815 8.588644655151647 0.4583148344274955 0.6467579148976733 0.6230266327190045 0.7271835644445928
Ni 1.2474912908902798 6.209079574693614 0.12272530056253614 -2.3556395741638143 0.13839297009032295 -0.5624365298407733
Ni 6.480748681499403 0.6037397570403068 6.739711231238585 -0.939703238447001 0.747202687878997 -1.3876649995759456
Ni 3.2158644694734986 6.402806349963101 1.3226495644954375 1.0515269426892278 0.2923439425199029 0.3882833714317055
Ni 2.8693767460119077 0.3117627399993716 4.111105159298857 0.2807181853555165 -2.754998229573075 1.9714673966870049
Ni 5.18601590743146 1.9282729592438037 11.99646987193358 -0.527103144646802 1.3491473031167216 0.3567135670452244
Ni 5.388991513205557 3.2327250028043837 9.650506366634358 -0.7128524925339014 -0.1905873927056911 -0.06239630284903448
Ni 0.3148610511745169 9.09013261638835 3.0933264036281973 -0.3107039330843294 0.08752343693396539 -1.6186760475143218
Ni 3.0138673767944977 2.4845106099070797 5.069586962284675 -0.6421142454780748 0.12209988935725423 1.1780275322173388
Ni 0.0592875439050813 8.783124132801978 5.251332597407094 -0.42083122346073976 0.023678317453546316 1.2708626111722048
Ni 3.2329978574174394 5.0978274147359315 5.019640454925858 0.6401784619079426 -1.5503988604044783 -0.4212595692474099
Ni 1.2030253977419747 8.567465491910676 10.00132871493163 -1.8436807413576184 -0.6884496382095047 -0.41356708569915873
Ni 2.3828957884932644 6.43649919028559 10.733048576030734 -0.8015177563817938 0.33014224431459915 1.1876141474645094
Ni 1.5822556747702399 1.522923909600284 10.927271193993603 1.063996021690516 -0.7832958340571283 -1.6088978850816356
Ni 4.838239181142674 3.9137230730924 13.697329801731241 -0.762514635645719 -1.7234271611804834 1.6840082930632287
Ni 5.327928532559662 0.5996601101361373 10.171094150784954 0.08876759375371165 -0.8478811741376817 -1.067521518345271
P 7.663140625226517 0.306143816726378 13.051456588045268 -0.16832498176306496 -0.5873718596298723 -0.803713478481532
P 3.148234160554748 8.68530104963166 10.749202510001602 2.1761562617910846 -0.6368609674989354 2.3261834736862257
P 6.996039322644815 3.4013491536727547 11.079120431426908 0.590694239134886 -0.7403630392493443 0.895687237877367
P 4.814002164479528 1.1187885925458734 5.005498118067791 0.04942945827572132 -0.6930660539355935 -0.3891331210265105
P 2.1316907776666465 1.019243702679376 12.908764915952892 0.09026166180073486 -0.9978430800125265 1.5044416769480735
P 2.483851995323842 7.916490837838537 7.525260603103681 -1.2986045571721634 1.2354808892388012 -1.0372411221941749
P 1.2768278661836387 1.442205988034624 6.3699678268428706 0.1742464894538225 0.5184763222097393 0.3153303761127472
P 7.7350707464958335 7.806332844402153 3.81367104999681 0.7964693953246089 0.26924180928480085 -0.11109685337853126
Ni 6.813057373861863 2.8143542019722783 7.598093967230009 -0.8260633069316419 1.3158062657624308 -0.7819750583631758
Ni 4.140474665321379 4.520100111099586 11.66434747341038 -0.424214795220992 1.7591726942112091 -1.3800452782471588
Ni 5.589539653801435 5.512641696818553 8.323065851484856 -2.1866479053510277 1.0237852537995853 -2.0411581763149234
Ni 6.978040326962905 7.4139585020484144 12.017139079311532 -0.038864538275681454 0.482603262462214 0.3575311778505133
Ni 3.6060277485835095 7.070105236919775 12.718123279566884 -0.46181795028574657 -0.4973104867654016 0.20331975267069502
Ni 6.594416149786469 0.3539695851271713 4.002000008317677 1.1475789859194947 0.02539555725496917 0.5525100147556807
Ni 5.43762549578778 8.50047498001564 7.884441711340215 -0.08380716442464277 -1.0154664495212447 1.10758830445917
Ni 6.906223111050715 5.757872132497229 3.4706024771001984 -1.011181963213278 1.692994298611923 0.9492561722427586
Ni 3.845500011048736 7.0646575534384235 6.206288930616638 -0.24283015206049147 -0.6932581153417415 0.1218065264865515
Ni 0.21942685718539878 8.4323177794303 12.415043902408515 -0.8050411961540199 0.3578759627844417 -0.3445946722945033
Ni 7.7597217494684445 5.341383087617232 7.235015742416661 0.12083722059474673 -0.8830541224943889 0.8078910068979892
Ni 3.4715762858054147 4.83939646105322 9.132260427766163 -0.8675652828301704 -0.14014286290189412 0.38239503097172856
Ni 1.549324945608355 6.453350314836715 8.559137780944623 0.1581747807029405 -2.5582962393292132 0.9969339379346959
Ni 8.799890578335258 1.7900956196805355 11.445448448769547 -0.648348913533877 0.30728256610760624 1.463895122984279
Ni 4.659716993966217 5.121603401190813 2.799307681379225 -1.3699441852574148 -1.569629169389 3.262407238225059
Ni 9.111659904480462 3.5865798008184764 1.1406244886141312 2.166049512374386 -0.417032675650256 -0.7715790598408324
Ni 3.910091284104832 7.374526306071998 9.086624082415645 0.5715348925976157 -2.565661164334717 1.1964060347245264
Ni 0.4132260800590428 1.9138869349899406 4.382635957042167 1.7768215176412239 -1.1970336410061966 -1.8423124002551818
Ni 7.475397833884732 1.8938650516595146 9.568075106274305 -0.8163365665621811 -0.7320504056185909 -0.4784241913838599
Ni 8.795515495746608 4.733942857497105 11.645536500035135 -0.25273661254092605 -0.3131120283051898 0.19833412653064553
Ni 0.381064048203594 2.5873579814695264 8.526983276112983 -0.5072637413233716 1.1092104134436251 -1.2011646324554346
Ni 8.316712102512565 6.237145964719301 5.335760400832334 0.4467525713121919 1.6133782894504924 -1.0565369943093095
Ni 4.7119639479764865 0.5557201677764464 2.567946727945559 0.35481120781618897 0.948618795769076 0.1318762520177277
Ni 3.4462948945888474 0.1792861800930134 6.541661121669129 0.041178016900206504 1.3029546066107431 -1.4683649858301744
P 8.77356481256527 1.5797999832527392 2.19951114393656 1.379513831223721 0.34096813128550957 0.3526028873109605
P 3.9739298547800863 4.3483898804697585 7.106520978104962 0.2494399440675253 0.8611611790760394 -1.1543088484441604
P 5.133618412945021 7.647409145466897 0.4648426458253571 -0.3233609597267076 0.2574856971901372 -0.8884601240013086
P 3.2894975798794728 3.0217519342338286 10.56972815431338 -0.31077258153873577 -0.9252780641606064 0.8718345996294856
P -0.01471627242345828 4.929617250177025 8.511573576621172 1.41316314384705 -1.310790300605078 0.44254598943001205
P 9.295206380049047 0.7719847340843282 9.350980685591544 -0.18382744827403824 -1.097566915667426 1.1343704576490206
P 4.908654488870545 1.4190886161629808 8.198097497827407 0.9557705763225088 -0.0668445684283752 -0.4499332830330187
P 5.625904587575916 6.173053356990512 10.447486465030533 -0.7130412115059397 1.066177602722867 0.2527219572529067
