# total energy = -381163.7229737068 ev
CRYSTAL
PRIMVEC
9.33964769697052 0.00000000000000 0.00000000000000
0.00000000000000 9.33964769697052 0.00000000000000
0.00000000000000 0.00000000000000 13.66951847057144
PRIMCOORD
 96 1
Ni 4.397741148853244 6.15123195195252 1.2549861827085154 -1.3611286438483137 -0.7776167813944801 -0.6161743856838614
Ni 6.831718670322525 9.012685140451655 0.34987160181425897 0.3223566868319094 -1.0720407463718633 -0.33019855147383137
Ni 0.2201373599962213 5.282523317094585 2.5110903212252778 3.275006415046308 0.8893916346766424 -0.7223339496617752
Ni 6.315507012196962 9.025919420988716 7.9305347389052026 1.2888670181694253 0.6910431099682938 -0.49571768835698504
Ni 0.07473492549718556 7.129868238131002 9.910961231431136 -1.6915326264647321 1.415404631583059 0.24496133947088136
Ni 4.37201975958079 3.7508491426157797 0.553026680723297 0.008979577790790987 -0.6910479950643001 0.8676730120526283
Ni 7.949216835841184 7.719171977754831 12.301431872853986 -0.40682051100394456 -1.046354654459669 -0.28044256309662674
Ni 7.233603703145216 3.941611443229386 6.853869512347753 -0.7348523938437602 -1.8829656550001699 0.6914524295915704
Ni 3.683071320556884 7.713437434177022 3.0501476911516217 0.4496733445034126 0.12769358139494782 1.9545204844200208
Ni 2.0508371612209593 0.041674441202838294 3.5380265945578975 0.1720659368627359 0.03809115044476666 0.7087523543225986
Ni 0.6201488595262279 2.228925560148756 3.3007649908321763 -1.073228081811745 -1.3127620796194681 0.5672612049229263
Ni 8.566091214946596 7.420751560168249 1.757052944663733 -0.8621891061199215 -0.07996233675725584 0.22873767852316734
Ni 0.4558868747883155 2.038415430018213 13.400147073243437 1.8132951870872256 1.5285411410994385 0.5475596127289407
Ni 1.013491850726339 8.133581477902998 11.696979224951319 0.5602114971649965 1.2636776633879914 -0.5296835037794684
Ni 2.8145121200592818 3.8394450389986767 9.612992852784563 0.7823293563788011 1.3774674902176536 0.418144420657196
Ni 4.536108026874814 5.909549893055175 6.818136954897688 -0.7035386713321432 -1.628819306595911 0.7632486855982662
Ni 6.403925455276963 4.257889266875857 4.600736519789676 -1.1677593175221113 -2.7786840032257887 -0.45325026322139356
Ni 2.583860184884074 6.406764708123305 9.98670390489582 0.5528051773985964 0.8398541900681471 0.2974357552205135
Ni 7.712241959294351 5.547956099637482 3.484948443732087 0.7345991401823736 1.3011476353089912 1.2771502439531297
Ni 3.2603775530577126 1.6243608364758382 5.662475121679283 -0.7941307198891033 -0.612436515907984 0.41217586177858695
Ni 4.924198400309193 8.69797637758869 9.881148142579793 -0.30653077554324626 -0.04078463811652976 1.0674405285956907
Ni 1.7526689141174403 3.4348234894523726 1.575753574918264 -0.3584431481418214 -0.33830858217547544 -0.2038586558933005
Ni 7.51946229481624 1.9137778338523097 10.02019401297613 -1.43270172810061 0.6243538361708602 -0.6364405921320652
Ni 8.350279979682039 3.5272299620237813 2.324132059046919 -1.2623342619862195 -0.5836519875761239 -0.48297247287617456
P 9.334370620012704 -0.011659615965044109 3.1863645823138897 -1.57408411983656 -0.606886275513716 -0.4850787205859001
Ni 2.2624548947486507 1.9896437906642717 8.3902405955648 -0.5047278622753952 -1.7237133249623344 -1.0327820579815568
P 7.5626488249527055 8.535980191339338 9.761731409378053 -0.2844735386328907 0.9138960475759099 0.2738083456095607
Ni -0.3602750351877471 5.351804822404338 6.514796410997115 4.115503123794461 -1.6132289083568216 -4.9788209442021865
P 6.43456883879291 2.1062773089047964 7.833945972173953 0.2749298608085136 -0.6595833487971157 0.5139552944109342
P 5.152515423604185 3.087500677446557 2.64049954330959 -0.609465349094802 0.03442578577803748 0.6048581893400938
P 4.683020682377974 6.193054893550941 10.483044528956 -0.2824765628075199 0.6170642444879825 -1.1126127542569548
Ni 4.390577639204743 0.5506861650545689 12.857890874041198 -0.42490359375790043 1.292185283909381 -0.2468097055335298
Ni 9.324171724919923 4.638732073834046 0.002871941612665062 -1.0136003428467832 0.051304306700930995 0.5597301866532037
Ni 6.7757181437874365 6.052997539328095 5.931189856361012 -0.5367375824127724 1.6102492569032072 0.08484563299148615
Ni 0.7212822987411299 -0.12590311840498006 0.8840107133561166 0.9793229097211521 -0.15760013914639312 0.6650911659892224
Ni 2.2080981461772335 8.906894952982851 9.66056247950257 0.95574923616627 0.8908839029514527 0.28179959134515337
Ni 4.6796303903279 3.59829534001002 7.847834028037474 -0.2796807452299377 -0.4028990644623513 -0.6220313586852706
Ni 4.314254039664259 5.521244707727816 12.443594383628033 -0.6766955829973701 -0.5202784084154847 0.051312020010414856
Ni 1.4284804090207999 7.621236433851072 8.000604510465719 -0.2768216785145878 -2.438503400838581 -0.4205113782274758
Ni 6.397882703330964 0.283648831067587 11.645745654510877 0.919716510912429 -0.695440467705041 -1.2607239800763061
Ni 5.934869677484232 7.061193809910104 2.9173080165328975 -0.11415440925793244 -0.2527759504192937 0.4614610811669601
Ni 4.414076192367232 0.967466067743531 3.557737920650677 1.3003338811584444 -0.36463282189230106 -0.2641631092103128
Ni 5.5637401039477385 1.9328120354998264 5.751409113302435 0.9109793881497472 0.621167982243711 0.5782953512499008
Ni 8.54782286439579 0.9809151601735723 8.172294316876972 0.10999462145328798 0.20484004596996336 -0.8122827082077817
Ni 3.3398205948701647 8.019693816033607 11.843106416097973 -0.050855134978654355 -0.24672254513636221 -1.4731822047131597
Ni 7.7522530092737245 0.2062362286261703 5.848080068931869 -0.41628474174063795 -0.02482271547063467 0.12770566557980587
Ni 0.9423237366173706 6.778025036725089 4.6946186566693795 0.23781341557219043 -1.8979263900750605 -1.9023283757974978
Ni 8.25526774545231 1.3616365517139906 1.4603967864938416 0.5766835266780906 -1.0401258999411376 0.9303001999655462
Ni 4.800279957002395 8.984610160003944 5.626278383747431 0.7821648057764787 0.22402818886263998 -0.1208305357265274
Ni 8.078160009514203 4.548342965127143 9.876268176750143 -1.1207554379687474 -0.9477839585726064 0.5470487345307934
Ni 0.7435629618668983 8.496305368670717 5.954209285605681 -0.878303495183281 2.2837952385280023 -0.31612818942369425
Ni 8.535195660947585 3.1614333272217006 11.731713374081405 -2.1192173825121956 -1.0679660620818574 1.2608005989505127
Ni 3.187136037199113 7.373119357811853 5.606225226555387 -1.1640366172548855 -0.11104903085973133 -0.7151315183760651
Ni 5.5291740684730275 7.574827725319909 12.454257459202601 0.20617959071699327 0.003414424998187668 0.5601163663480289
Ni 7.808066742858395 7.713110546513792 4.223635175628343 1.5933915619159202 0.21622849031256305 1.3636472965051096
Ni 8.001967165039012 6.045423085188675 8.109318941573305 -2.315874121340418 -0.02103805161722183 5.986064491593006
P 8.319375086035507 7.342008991919862 6.699785875478076 0.8527994373749056 4.967319628430807 -2.9603830923029144
Ni 2.781431088540389 2.599560132366643 3.614261467446934 0.8233729045836724 0.20548513575313 -0.34905527916901824
P 7.3206865766297335 2.644567893769677 0.15683322909981873 -0.26198641327396816 1.8575546711262332 -1.795205162354734
Ni 6.753723273875806 6.123838765773832 11.064983022544876 0.2787880582123392 -0.6446706933513414 -1.03686754090484
P 4.933743520075514 5.891356259684535 4.719455581321609 -0.9556947287792508 1.490557976987446 -1.4321283720956433
P 2.6629389804432124 2.2023355836568617 13.613240471079425 -0.22001238283502753 1.695161481466571 -2.643748395556447
P 6.430347318113481 6.763548583067753 0.7129223802452063 0.5068011998646561 0.9403637548491354 -0.7039302503436071
Ni 0.7199000309080422 7.059615409479078 -0.10989402858947053 -0.38482369501787916 -1.8362453681254955 1.0061130333308026
Ni 0.8433047936011917 2.112030531777647 5.807303167855785 -0.4368198855795122 -1.2720568885906223 -0.08275995410705102
Ni 8.650241439109564 0.38497746891567497 12.592701856298595 -0.17436270331671264 1.2625574337406191 0.04918288948255401
Ni 5.756389013360558 6.855432035377994 8.556790793945321 1.833460863401823 -2.240300143458845 1.7103317614491058
Ni 4.557495819697588 8.476486636631446 1.053223645244838 1.2611762371223763 -0.277947821699231 0.5910469944886143
Ni 1.1187870368765371 4.158328624303468 11.65705036387013 2.466569562947178 1.4080139955459428 0.010692960937471905
Ni 3.054531721697914 4.865022393617012 3.078156360101935 0.4239412298446312 0.906560176036129 -0.12062021948793421
Ni 1.8355022479799654 4.293958985601425 5.282024579916969 -3.0501428747665664 0.675945592205223 0.3016785896572675
Ni 5.6902269503227725 1.4450115851327254 1.2355316969225598 -0.4842551962433402 0.868450513648601 0.3751324358720443
Ni 0.5032127367060274 3.5345335663850954 7.582946680909794 0.1062760349511202 -0.15842854858495942 -0.6319159647888343
Ni 3.8370260702907735 3.114240088298785 11.902801707192314 -1.3591067283222786 0.4198675739958898 0.60297099961971
Ni 6.933931772790839 9.172757359311708 2.745181114617667 -0.2812979691183865 0.3797876752558685 -0.09748543324268372
Ni 4.096005156396756 7.923047143487728 7.783997537232382 -2.4649148009525743 1.6564458100639279 -0.4928820186804027
Ni 4.2015711923250585 1.9595514463520542 9.915567545588424 0.6531100823679462 -1.1174520846271272 0.2664143671383348
Ni 6.451128033847399 4.897318894744152 1.7812202165887154 -0.7740642881565314 -1.5069608438255016 0.17594316042995506
Ni 6.0508961186359 2.4957873087623454 11.835191998788794 0.5283413879292772 0.5108190627747976 1.2077643971601393
Ni 0.12231669375696907 0.6949613040978365 10.427313918234264 0.025558822305710823 -0.7078447549066649 -0.5119184664865636
Ni 0.815027142802278 5.13750661003816 9.294192390342708 1.150551181173941 0.7335606716155302 -1.778215569775273
Ni 6.490139741542039 4.757859277962641 13.11646275151527 0.686262914970831 -0.5058542625703546 -0.48685483864971635
Ni 3.142380446279142 0.9265378643776097 1.3845859336022526 -0.24629034269495004 -0.7577670936584047 1.6968077588207422
Ni 5.390200113362601 4.014675505785089 10.099914442319951 0.31000176481098224 1.228000521701356 0.35363209990642325
Ni 2.2019619977560274 1.230732052061589 11.384398967758356 0.39060687735855953 0.7492168900955484 0.6865169399631661
Ni 0.6334746686089937 2.9887432445609625 9.756071582980407 -1.1900402404074988 -2.7161856275812513 0.9469239245651562
Ni 1.8884767287182944 6.825386389303381 2.1009499739588966 -0.35978577821264485 0.3210091716650794 -0.9411050038905341
Ni 2.312067102379469 5.058764041789773 0.043482596962877165 0.4140867056480546 0.7897480174403754 -0.09579956089982855
P 2.3680863082095995 4.874072512064727 7.448862031276539 0.28819238224537463 -0.3768525038869445 0.46480968592421884
Ni 4.364314550376079 0.9985951129305641 7.778721570347848 0.019067043933780066 0.05154239085366607 -0.2677559687678937
P 2.666245215665598 8.066167902097417 0.14065228976992533 -0.7669549308052598 -0.01921231126239272 1.1519796860903515
Ni 6.865621590823254 1.901505537009897 3.7396798581455815 0.10784440787950461 0.8979935174130406 -0.05987225087560012
P 2.313514747745203 0.003541594339910867 7.160995415388531 1.0910339996449148 1.4076280729614339 0.06915856127353251
P 8.95053912584784 5.92217709650338 11.735732224409631 0.6816979213079679 -1.6025691146501304 0.2503280030994334
P 8.468155671042837 3.1410728956262215 4.845597794703122 -0.11583282540161986 -0.009692801807731693 -0.06518774955124257
Ni 3.9151148632127004 4.075513969735985 5.29997258055781 2.502231278014845 -1.0952871184943138 0.253398414494641
