# total energy = -381168.843837505 ev
CRYSTAL
PRIMVEC
9.24625559692459 0.00000000000000 0.00000000000000

0.00000000000000 9.24625559692459 0.00000000000000

0.00000000000000 0.00000000000000 13.53282969193727

PRIMCOORD
 96 1
Ni 8.85326207602573 5.890225472925091 4.348490931250658 1.7576817114879792 0.5212076050979734 1.06856692889065
Ni 4.794313018305442 2.916592660813743 9.934139194282107 -2.2521678414307083 1.3620321294991897 0.5963406387873859
Ni 2.5322350584000395 3.1957741048532764 4.0633539739268345 1.6601883078254958 -1.1350818818937483 1.3935613104557225
Ni 6.189739433207683 7.47884315403128 9.555463415984528 -0.06773828388723818 0.2525517502236296 1.1060428143489212
Ni 7.753577149088134 3.574528476324144 11.054034586887768 0.168499045447084 0.10375429697053097 -1.13902004060589
Ni 2.8692333392144023 2.956527239101043 7.428129290870784 -0.514948768672455 0.37841496327805796 0.3449517985236059
Ni 1.262659429575234 8.154920123188285 0.8839207767390237 2.269018851549776 1.23321831845687 -0.6525907195293663
Ni 4.292500229972874 3.552263492643705 5.525887863312421 -0.30213264647555066 -1.736714622318009 3.6015982230054875
Ni 4.2686171515482165 1.2626779220865962 4.978362511517343 -1.233602955489798 -1.0822999622060263 0.4920590085584751
Ni 6.167761083453361 5.159762027850998 9.85061406821114 1.3691072911784161 -1.8909430167786918 2.714723698323744
Ni 6.2051806801953635 8.656982560424247 7.660068840758128 -0.7798808948383086 0.6325800807353944 -2.726476467984298
Ni 0.9402424939701958 9.16389003563718 9.444684026667524 0.7207522069969522 0.11217080316900037 0.4566729157496974
Ni 7.665081235962931 1.9322362809883238 12.970947048335566 -2.086305462275523 2.0035213397987555 0.3995579159042602
Ni 7.261528406754962 6.7081215117210435 11.601641305732842 -0.6887185756001751 -1.5325422918390315 -0.0380744382742183
Ni 8.629595151096396 0.03330408833827895 -0.026873317511972552 2.11124490582968 -2.0661153604808935 -0.0356786843485321
Ni 9.066305053177313 -0.5445341880821952 2.674831738141779 0.9348029729319063 2.5030072369489216 1.3907413245084241
Ni 1.3431203465134343 2.2296236024642297 5.775892747549783 1.0681133862929992 -1.0078719250034385 0.05898830560875002
Ni 8.020664490696598 -0.16177433865021132 8.733804151126309 -0.4869026611685162 0.3568629481388951 3.605279528511817
Ni -0.09015099289214575 -0.4953986607664874 6.921460369054426 1.748681050651266 -0.08930469720410426 -0.976963151239724
Ni 9.109374112140555 2.0093592996255945 1.459556595056225 0.8399007270353663 0.4615754952576373 0.057902014523106726
Ni 2.932070892824148 8.442441689852302 6.021012834910743 0.5380372750608025 1.2722633481744734 -0.7420951914491025
Ni 1.4194851721848425 6.7320415751684255 6.1457725628177915 -0.9169016671714532 -1.2257027268061147 -0.3349275815183844
Ni 4.493994633778581 5.435235723362351 4.7745990765674575 0.9037741286505596 3.0060667103829584 -2.4046381155497043
Ni 2.861068895447862 1.4769506512437844 9.922771847547581 -0.5900555771096225 -0.31701650556591854 -1.1466330770664575
P 7.191645206316107 4.024617710375823 3.779719533151213 0.31817607309165846 0.10553915678509566 0.1050493616328707
Ni 1.8866429942241012 0.5258854149986908 3.7672823946343694 -0.7000260301931944 -0.7331953178563114 0.9620306982996077
P 2.473937416329785 0.8103316770231254 7.47368096948444 0.0365150642068984 -0.23398015786902931 0.5070079165588235
Ni 2.5470290674900324 7.147087500188183 3.9958119254264703 -2.682354023743787 -0.6831493090425138 -0.09662257102175617
P 8.942719599741784 8.052268192615095 11.339239041878066 0.36571448499225406 1.7088682895297023 -0.4640344983210911
P 1.3440449720815586 4.532015237139864 5.439913404111494 -0.41423300141793173 -0.01756603390822136 0.020019894765352618
P 7.512009473159908 5.952804131375761 0.5521262886220661 -1.952467201435418 -0.6658833228732145 0.948371198534644
Ni 6.696119871846786 2.044125220987078 9.282276319503145 2.68411111564421 -0.593589815515126 -1.7037679921886593
Ni 2.883306140361258 8.30867610891172 10.627818260379499 0.22975275005124302 -0.20730110591594622 -1.7486352850149949
Ni 3.2332584253850465 8.25077605583576 12.808376607071198 0.735505711157043 -0.2723991239668599 1.6866860970057078
Ni 1.489876916686166 4.9728859542773405 3.1608630172775967 1.7636901224655885 2.051630279490841 -0.5904702960495379
Ni 6.307934319581047 4.066697419981173 1.7322564138632053 -0.14535834566456257 0.6877382139647769 -0.5398090222492444
Ni 0.07567967812542807 3.2405259823505053 3.8089099623369056 -0.07587402562049514 -1.6910335753411263 0.7292131932801118
Ni 4.453634727729944 5.080244228992284 11.28092660579872 0.4504989257285016 0.21359670911667086 -0.09146288119768764
Ni 4.819472080014111 1.561664845795358 7.712535793995788 -0.49910254566881784 -0.7430680968853332 0.007102415372736155
Ni 5.765234588626011 7.337088808182101 13.42104830251963 -0.771472101949323 -0.7697178382623776 0.6926019698149813
Ni 3.6556273849043506 6.173845119691622 6.804049565162831 0.11868315036622142 -0.28197108392601117 0.7084391939575541
Ni 0.5942133952319604 2.170549274916751 8.019216527056914 -0.6265760406331596 -1.2286247855489163 0.42602510895685336
Ni 1.0268799097034682 4.586068847852426 7.707731439543813 -0.44265089043899253 -0.17198340445125865 -0.6226311970527986
Ni 8.764137417514203 6.685477431557672 9.581324268499403 0.05721990085441759 2.0395190980496034 2.0244202947349526
Ni 0.42948765176829545 5.0746040130267245 11.185777087085295 0.5616384594195102 0.07009084327981477 0.03187036634603544
Ni 8.844080544134254 4.501474854624709 2.053512019754679 -2.1689340330110323 -0.927130801098629 -1.7235788562669994
Ni 6.622510430368389 1.1354124588899304 5.29984834917528 -0.4315450103338181 0.9687811296495636 2.0691675170436556
Ni 4.016286834007021 5.122240722296502 0.050393018088357285 1.6435920940297115 0.35674570583474047 -0.017924445688904615
Ni 3.7237075654853626 8.284293732680275 1.6513165408807164 -1.0406491194344594 0.47227411262206404 0.7853496312623636
Ni 6.9756896586249315 5.25612650456094 5.581642785070333 -1.0470316259220356 -0.08516522111443398 0.6882871444897114
Ni 6.789090972721712 6.206623096081638 3.4207068421853726 -1.219223032619042 -1.1068650531399002 -0.8481948487233586
Ni 4.790984366260194 6.327480904091201 2.055731121118178 0.3721399289026236 -1.2376850959789718 -0.2840984146816591
Ni 2.7515377506478256 3.48899136501694 11.556116441260661 0.6590755559227617 -0.14784717352468732 1.4444670961666541
Ni 6.293916995968279 3.3835100802052893 7.033336364295226 -0.08529609026534342 -0.4649675516583218 0.36426875368466294
Ni 0.9146571798746207 2.665122245050903 12.705391811293484 0.11754209478324273 0.08211794964767793 0.16088420921430355
Ni 5.746695845985113 0.5111524311961939 3.180134063368449 -2.581922877609218 -2.438905521373006 -0.7992945234782299
P 8.244183475535031 4.778483428579149 8.87247487070579 -0.35625719623409613 -1.6929439049899615 0.5729680254997165
Ni 5.1426287160736495 0.4447837325417802 10.201222837388297 -0.5742052403409272 -2.11291252334009 -1.7256511654149957
P 4.867968691062245 7.715870918420014 11.405644725555204 0.7664707920799896 -0.4983988347335739 -0.5408708878548556
Ni 8.614727171960954 4.216690179642341 13.22054602194852 -0.6793222219869397 0.7615995800306173 0.37947220089797873
P 6.04437904764282 1.9026944940867436 11.33385309794374 1.887466628194317 0.8137261255225278 2.773356677475604
P 7.3242087740181265 0.7296969304781177 1.4107030785387953 -1.5842808578639038 0.47532755473640725 -0.18428639018832776
P 4.372360140291794 4.185705976854486 8.244985125902595 1.2839991485541629 1.2679081565295711 -0.730093024781904
Ni 8.478215453083042 3.0998164633933083 6.002744082935737 -1.0862046965770713 0.5821756601409135 0.6447452553430187
Ni 0.016368646432509293 6.650979651610944 1.9726803279636609 -0.814666892169242 -1.013587744441293 0.3590437578402978
Ni 7.108068301213326 8.159663452352765 4.737830416225416 0.18222205146013135 -0.6021641874476984 0.17707650270344988
Ni 2.538004721945137 4.51283850285696 9.476134240741713 0.5354666861201487 0.524024248611162 0.21758089057539945
Ni 3.9280590622965743 1.239257156446001 12.043095461603805 -0.09036964813350888 -0.1543204399538568 -0.16486813356271604
Ni 8.701521774040806 6.327268240210532 7.454450606918585 -1.0961322401034284 0.3576682176490098 -2.35092057142159
Ni 8.930967608770919 0.9056300604530205 4.733242424156382 -0.29685879967112094 0.0697440014633573 0.419238167942007
Ni 3.9999671927296223 6.324568333551608 9.24192103658235 0.43514404053898614 -0.06877263868902349 0.9311031554828157
Ni 3.763142845965876 4.048056968527781 2.1227461330447106 -0.2656692614421941 -0.3677677679768569 0.12526723134164233
Ni 1.741800398977387 6.989300146987725 8.669577809913239 0.2905760519862028 -0.3691345664173965 -0.4571508838273804
Ni 4.5285293987480335 7.825485279521182 3.8421733671501874 2.5863212637872297 0.9226308563457466 1.5928734846289214
Ni 1.4545932050065327 0.5185069029650567 12.21789869913446 -0.4917761872107337 -1.3943876630117598 -1.697267214955664
Ni 6.071544546834319 5.674510327881627 7.861639988485988 -0.09508453711067495 1.4360480188650238 -3.6659745323990283
Ni -0.11870805356367313 6.770552230080814 13.10134884145931 1.9023890538321042 -0.028953192699240463 -0.8202819243631743
Ni 4.445664455332709 2.7617363706642393 0.08935396565242236 0.11975247217100023 0.27395721248259913 0.8486964709501256
Ni 2.689624822606204 1.0217482378003768 0.5208045975018463 -0.8434755888708183 0.7474400007007838 0.3104565929602137
Ni 1.8626027294528624 5.016139938354208 0.5892832917027202 -1.7977227865702652 -0.8560174300915709 -0.3471256662464731
Ni 3.996481354337792 8.292892750463833 8.08326718941204 -0.7427153415316048 1.1743961061123387 0.6672804603310573
Ni 8.697693824188772 1.339579030587517 10.990606197539991 0.1553614796238615 -1.3701560441579048 -0.7713278630619748
Ni 5.255728915566646 2.8995055803148007 3.7086047314556163 0.489027677931319 0.21000667777256735 -1.4330740238383644
Ni 3.552587111592548 1.3332823304685886 2.5863940764273683 1.5125874459836597 1.2070457738265599 -0.10911144751738629
Ni 6.898307744828585 9.02605610219685 12.053380071798056 -1.1655597387676315 0.5047489453213178 -1.2408131000849922
Ni 7.317847350109429 1.833310591454676 3.206130835841839 3.302521589747441 2.9345221653757525 -0.09202029636305442
Ni 2.607388624577205 6.037166968211448 11.992793981446692 -1.6828595241707662 0.7120629067530704 -0.3984348580434106
Ni 6.1251913222969065 4.131143822079455 12.70479635242761 0.35060514015464134 0.35726044068762985 0.1298607642495957
P 1.782779804156668 2.734090066177315 2.1704632847389154 0.24339682319723888 -0.115923071122581 -1.340676289531233
Ni 5.122730773847609 0.41444584302604487 0.7304421786860261 1.545211659776584 1.2315715268820662 -1.1783201237570933
P 5.3358847060673655 7.451298558356849 5.999333139214926 -0.460886953831045 -0.6624627272274397 -0.13026211345307243
Ni 7.080366519192314 7.955728037047209 2.031467096959453 -1.653502411164888 -0.9091392496172148 -1.2930044373765668
P 7.803821302460023 1.288891056942928 7.203240935565957 -0.5677152617412093 1.1294182558500678 -0.5490505954521705
P 2.463221005995222 6.596639406972264 1.857502494819087 -0.14084040318955102 -0.6482067315290578 0.3327567991193108
P 0.1582283995964536 8.070742211466225 4.907680434587628 0.64977459023681 -0.6660288473121433 -1.17854149573928
Ni 0.9967463624382884 2.9561573888737933 10.198353724250406 -1.151774769168397 -0.33251100165709185 -0.0032745569862137154
