# total energy = -381159.5680581164 ev
CRYSTAL
PRIMVEC
9.41184479426511 0.00000000000000 0.00000000000000
0.00000000000000 9.41184479426511 0.00000000000000
0.00000000000000 0.00000000000000 13.77518622026737
PRIMCOORD
 96 1
Ni 1.3845764818976478 5.343424270095026 7.586422170633132 -0.11646814499277361 -0.21888495409880368 -0.2463487067367112
Ni 2.5226943970427174 1.888392531629013 4.558429358310149 2.126341909372119 -0.7929441557801699 2.203271887060954
Ni 5.958977740756912 0.4843636489918771 11.831823925423562 -0.49132007350992163 0.7035612970399625 1.8225910105668546
Ni 4.532433843097034 0.8457549579692746 10.103424283968069 -0.12690862359980723 1.0540977887401977 -1.6110653250465996
Ni 2.5987326908177915 0.05534352952793522 2.2519400942397647 -1.1227909803415372 -0.6532224395760944 -2.3668824940674846
Ni 1.9798756626469256 1.5490861163690572 9.870471714438814 -0.33805044341808227 0.01596603641095315 -0.7473057891157645
Ni 5.835023745334493 1.0766303333611167 7.916599096480807 -0.15853807757963018 -0.551978824842559 -0.6244839339908212
Ni 8.27727510525683 1.6833084344191038 0.4242285492992074 0.0005620431510570965 -1.2043821109514676 -0.6622570389745369
Ni 1.168951118562218 8.707547000073177 4.396378097688727 1.3274291947133396 -0.0014531875067587876 0.08868840377634403
Ni 7.78811329780889 7.476120056027739 8.370753547362787 1.001646770029333 1.71004328367441 0.6160262901417713
Ni 1.386430615314369 0.39319393240430356 11.912381787049954 -0.8810576608896504 -0.33754136499214765 -0.3016449082058547
Ni 0.20762435410926466 0.8710304670586371 6.129241777111484 1.6677378380379793 0.07837416633452954 0.21428627898452773
Ni 6.457560804804536 3.9553465819485445 1.1518441495356584 0.5180199513986111 0.48820801024350113 0.5510408864093219
Ni 3.610091880803473 9.217433689671472 11.958679592583927 0.4645718588817999 0.3584531754441504 1.0511543898411575
Ni 6.460939657071555 3.4339492062149715 3.853704305702161 -0.050689298824751414 -0.8399544630914373 0.4827107345743558
Ni 3.694337303204845 4.540509205896763 1.5338116335162824 0.43052479659941983 -0.8278738777778193 -0.6470942151911694
Ni 2.9825571317685626 8.273924488524075 9.975603902720326 0.347949190589033 -0.8817821977605007 -0.5990613801526586
Ni 4.359547666793738 1.5155705371967538 0.0751262860183211 -0.03823693199401157 1.3052457166377651 0.4143407306403897
Ni 5.031327498021571 4.1300115969105216 8.521688478144162 0.5223617733070746 0.0938781755073996 -1.3560512293254066
Ni 8.813326723273828 2.662149700776505 10.284498765208154 1.3773289077572601 0.4826179177502333 2.35536755144935
Ni 8.72254006876778 4.187979148756131 6.294295416209728 2.0754613204721677 -1.7662769093561583 -1.2036732578099012
Ni 3.0945863198864862 2.262946305496179 11.742313517066284 1.0144884018786915 -3.779045478784795 -1.7042451889353942
Ni 0.3481111960281922 4.78646894487733 12.054279464497645 -0.01715054363735756 0.7339190833962135 -0.00277242053881458
Ni 7.4929107870705325 1.8467639422779607 5.790812545782688 -0.8947364439283235 0.5420980753937373 0.684125556912854
P 9.281961297311266 8.741109638469254 10.063475708905772 0.05753383255041059 0.4247860943434297 -0.22378136295915654
Ni 1.706292159310641 5.73492877636582 0.4292516508449131 0.28143295203435403 -0.6193131884231592 0.13420155771679468
P 7.5442335765191615 8.851604695892124 13.440931258163756 -1.6146491857431158 -0.45612449944539507 0.9437205871365101
Ni 2.4599079806825843 5.685206000525529 11.08286696720531 2.2230015042793974 -1.4401029056606875 -0.1722348583404324
P 0.893289479904045 4.276939905379724 9.91137088582136 0.42645859694984617 0.12294655362826568 -0.7768482786595718
P 6.284260507332022 6.506464750151149 5.308158087798306 0.002112932577944748 0.08043927639367437 -0.8248091228095665
P 4.370465406709456 5.500310310314942 13.270188158911157 1.4392184461732054 -1.1733422109265277 0.4697914554095264
Ni 2.9234695703971165 3.9276475228347874 12.777793382789898 -1.0309336919189083 3.407620059450693 2.791525635075147
Ni 5.8062799714529385 7.957997095635363 3.3733501025758836 -1.9471799848945497 -1.1800185945054387 0.7097859377934357
Ni 5.537647098457747 5.443989831301446 3.210527070684558 0.7055194492075978 1.2535202632390152 0.005405230175971336
Ni 7.242781600863531 5.474550091220701 12.787367111274612 -0.013955690849143708 0.5106884507342043 0.3085760881080492
Ni 7.308513924631957 8.86417892048471 5.989726237571266 2.3882054239149775 -1.1222438495888156 0.1658955463859659
Ni 3.812277129828864 9.187918144520014 3.962391347747609 0.7729931665795396 -0.30570493720784125 1.6951817931815452
Ni 0.07340485961264452 9.544175292183596 1.8963333050487468 -0.5449036631633325 -1.6185852875727285 0.18996235752718252
Ni 5.16185096108293 2.504153062875507 5.883836395786982 -0.49845462767217386 -0.16385126226242747 -0.0067118648025368275
Ni 3.9156756563065174 6.713638276896652 5.1043954135919885 0.3962432497087305 0.10513883602288344 -0.22425778837494278
Ni 3.4512199413402667 6.682710955031954 7.726874188726466 -0.6948151754162164 0.8062966658276758 0.8330129987765976
Ni 9.306648566103446 2.5710053961697694 8.139357696955997 1.1743907067957 -0.18341504332696798 -1.5403327344177278
Ni 7.812866449514354 3.1888835924861225 12.600768818347861 -0.01694485538445469 -0.17708884399862404 -0.2637064812888684
Ni 8.476420328426379 6.361541164614747 6.567498681017915 -0.2910977288176277 1.5916218716100072 -1.6452964783153277
Ni 2.996533721229633 9.06191236694102 6.653910710081871 0.10558080865630849 -0.35865397860104686 -0.9166299015673053
Ni 7.050939969223808 3.0388023160240203 8.734473346732553 -0.9464559837898023 -0.08965385301340689 -0.5705892408548947
Ni 8.335308540015724 5.081022038327597 3.717577971458192 -0.23796973864439658 -0.24134585420548113 -0.21194863199028657
Ni 8.313934240577279 0.4020636549013489 7.963242316717285 -0.21033243654310224 -0.24508423820199082 0.9892008309564964
Ni 5.576103896126388 3.6293579270168137 12.749609613671263 -1.2494108690563321 -0.7173048718783 1.6488751968055215
Ni 5.38224812970911 7.914147310922148 8.072079948278812 0.04847840721636167 0.523428266898376 -1.512116162774196
Ni 6.002799289935862 8.145829281409487 10.19953333668303 -0.13974125658810127 -0.06303059399892372 0.44889224336301403
Ni 0.5745724162299723 2.4291406601787204 12.597752322103904 0.3043710488877661 1.6029231555554395 -1.1605036644009628
Ni 3.008317350862804 2.4607079874867535 1.9586801882588247 0.7785243808104141 -0.14629165611210934 0.5814873758246373
Ni 7.482651876287659 4.575323619645246 10.761823295507819 0.23355669717836552 -0.6613820925687512 -0.9732720755413818
Ni 5.756265428425245 7.668140512717806 12.5130626606301 1.0607145227257666 -2.001689171686024 -0.2399610580428125
Ni 1.4655559941690595 9.119522268685943 8.324937628280267 -1.5488055477754292 -0.38031809383804177 0.35728435194702984
P 1.5806722673665998 8.567197571087672 0.2916100095954007 -0.43024171814136225 -0.2878763936668526 -0.4558966997053052
Ni 8.42966228368389 4.9327666597479505 8.383675069026829 1.044543569392859 0.10298990800068071 1.8897294560865647
P 2.6015750679337803 7.39082991885857 3.2289178153356897 0.490864988250374 -0.1186695235194666 0.4153066940980848
Ni 3.745678916342985 4.712473021414077 6.673072284818431 0.2587481088423286 -1.0406331785948593 -0.7502574155449208
P 1.001090867358054 7.529089918308481 6.584883299464744 0.7539294650798692 0.15688460113660724 0.4721823242392062
P 6.033961907919433 1.9855604168789032 1.6674033579677485 -0.9847335392137622 -1.4255214083020868 0.131760809485786
P 4.479661629556145 6.528046110174201 9.93379648831893 -0.7665301845630154 0.5671308499926491 -1.3017294759543905
Ni 1.0667478963684407 1.7901422842323063 3.085641302631401 -0.9977134964131978 -0.9321534511242011 -1.8948793757186206
Ni 8.011616375204195 2.1151991665332988 2.517263762619123 0.44932881667980035 0.2398782685210191 2.299829923393362
Ni 5.232166853247007 9.113856338143474 5.7966535366375975 -1.8760547868129498 0.23842173858015067 0.2794727429841896
Ni 1.5600697391980594 1.3943648004427744 0.43671242018214557 1.2364877332367608 -1.3173936648542086 0.3394097856594542
Ni 1.4113531802254218 7.450868076550264 11.796283858444475 -1.7237994569182375 2.1370880921450293 0.6427153693971834
Ni 4.0152153264346495 3.9236286651244323 4.010907525090318 0.01065053773531069 -0.6745731373377286 0.152069439136151
Ni 6.571255889444082 4.461336767818298 6.430738929621938 -1.6791530218534565 0.7049293810320827 -0.07909613210221861
Ni 7.262602945917413 0.9732600424177281 9.954087484426081 -0.7159272748044833 -0.9111436816417534 -0.753430928176896
Ni 4.067978128130783 6.68657922322623 1.6048917674744594 0.339549396561112 2.1074167903328416 0.5466314444877167
Ni 5.003167258514822 4.594890844890744 10.830271877672518 -0.48967533881764697 1.6732194299778411 0.17276964779797988
Ni 0.7910373161175421 6.567340562026031 9.83464270382575 -0.5170547592718643 -0.16341083229089923 -2.2217552905771223
Ni 6.998685407144441 6.336665658927469 1.1093910825840745 0.027622646813275007 1.1754636281449047 1.5212785459997542
Ni 6.269653324272372 0.8378179492874427 3.8468722475945576 -0.09836372208257897 0.6725954447860675 0.04438958185896871
Ni 0.726444766748938 6.3924214272556705 4.6671022825884645 1.1168777001808958 -0.6502754411326285 -0.42829796415143007
Ni 0.6432261766103287 3.3849887897998294 1.378579254419807 -0.25613021160350724 0.93956517020724 -0.7372288644957369
Ni 6.915992939127632 9.092830276960962 1.797427993257097 0.7797253430970508 0.7773208474206161 -1.5213528508811156
Ni 8.948339636283288 7.214969599612716 13.25493908803922 0.40075707841868397 0.3410187820177869 -0.11574515078382003
Ni 8.116991389080384 6.937047235844409 10.831525535393874 -0.43065823685349064 0.6123149027284552 0.7225563500852266
Ni 6.5401497425290405 5.869188741794886 9.16538901173014 -2.1657612917100058 0.22748400862172435 0.12983839565209251
Ni 3.201580171060522 3.8044370631480082 9.729744870478635 -2.6795877738525595 -0.9978873029869009 -0.05242042258324521
Ni 9.224934929941151 2.863694944358561 4.50998188743415 -0.21819332734841776 0.7153714023010131 0.2816936618949084
Ni 4.789706619473026 8.758850965832297 0.3183556488354833 -0.11793058847091305 0.0903274820416638 1.8296422609866814
Ni 3.1540785905823943 7.152823188695917 13.091192754177436 0.6453332666360047 1.3362061695750214 0.5034878192207071
Ni -0.02164159582948441 6.914016451729097 1.8422933160193693 0.20511232579474353 0.14604071644356784 0.9627053557691292
Ni 8.220869919640538 0.8006938688360995 12.052062033873385 2.1877365104295166 0.0005574151653667819 -1.1585221151945597
P 8.741871997894403 0.2648210758694454 4.253102526168914 -2.05210387669315 1.2132115363176397 -1.1257279514826741
Ni 7.959606521088457 7.600921117478101 3.8564318583121397 0.9823002471819212 -0.19504105760167054 0.19375910556545342
P 1.0974210984247552 4.504461840485384 3.175221358639867 -0.7501360594757082 -0.09796160154815388 0.7612121147842117
Ni 1.9844027599740466 4.066123994714062 5.123198397043387 -0.8294517637879005 1.4033523284042153 0.4902057573998203
P 9.071484213056783 5.1785663973676845 0.44663815166069404 -1.9106608069225932 -0.2468439012055749 -0.026744872194012004
P 1.4724642882191779 2.6522484400943194 6.663057140814711 0.9220238188893669 -0.040439338961969065 -0.20463512904800887
P 5.990874482631367 2.667382686460246 10.811703249155517 0.5258088513154106 -1.006349831931957 -0.5949005639067497
Ni 3.6150895703683408 2.2093834969958763 7.96840753711879 -0.7387015923865213 -0.26860186170795675 -0.7805414112404427
