# total energy = -340860.5219338583 ev
CRYSTAL
PRIMVEC
9.36388132934793 0.00000000000000 0.00000000000000
0.00000000000000 9.36388132934793 0.00000000000000
0.00000000000000 0.00000000000000 13.70498684113325
PRIMCOORD
 96 1
Ni 7.6936644308211095 3.832449293900996 5.730287960132733 0.5337047091237196 0.5523953435546873 -0.6525488105478374
Ni 1.3153631186788037 1.3515451556012856 0.717187151532722 -0.1859699485383378 1.5605205222195124 -0.6674815205982697
Ni 6.389921888700483 8.004367372623614 10.886624313760809 1.3083212702392952 -1.390569060596618 0.6088523981011514
Ni 8.71331618148439 1.292805528889399 2.4204106566407275 -0.7327104078000929 1.1802857321238964 -0.39611906542604036
Ni 6.824415339849574 6.344310423418545 6.747101518406986 0.9120422821966228 0.4268046674353553 -0.44113702489762735
Ni 5.3811509679812835 7.991857227352279 13.588356862190667 0.9628123136606386 -0.23111517761640843 0.30570210899436384
Ni 3.4956679429812265 1.7697360895966396 9.321583603390138 2.2253918588884445 -1.7330865386471184 1.7849392616523518
Ni 0.49044076848978646 1.2720832598134537 12.085673982224133 -1.604775635383146 0.3230354580664888 1.359191574726601
Ni 6.133061263746911 8.582090750472053 6.0699796053267026 0.4519408003813507 0.10543117045232164 -1.7363721513769255
Ni 4.4903555863889855 7.437777649511413 7.372762349625238 -0.9426566646483702 -0.26490255847949856 -0.30064706306895966
Ni 5.792028710766374 5.746688798038978 0.8190483875178285 -0.4462918296256894 -0.8558819329549712 0.38951930072133556
Ni 2.515878234548538 9.05044399600823 8.491472726633123 2.441256538103686 1.3552927538928272 -4.051628436627687
Ni 4.004978804847355 7.921028830022658 2.0830487450871087 -1.1124877986433162 -1.294412373467687 -0.8895536141758034
Ni 8.848408895428657 8.771156875601928 3.69515232232434 0.023231973944747086 -0.867732404535654 -0.20784463712424206
Ni 0.22164962251060963 3.5811039949689927 1.8855317171822497 0.18503998052490067 -0.37967069006202997 0.906791832430961
Ni 1.8732257045208818 6.114857878711376 5.915127229292937 -0.34171169431975346 -0.44875108979945943 -1.013271498752455
Ni 3.032689565248753 6.018409902442856 3.5255396603690143 1.0186947266505553 0.7192925917322902 0.6613489253379706
Ni 5.187590179879672 3.211520968236735 3.0746182160582243 -1.1908455099176136 0.026568751627463923 -1.1769474117792829
Ni 8.732970968104546 6.061081109030783 11.852291416581052 -0.8027207755509594 0.1685260420302775 -0.818503749416829
Ni 9.579999569009557 -0.12154973257755243 8.59545207254366 -2.159688346043048 1.252588238343049 1.3850918395321308
Ni 6.789497426887893 4.19814630993894 12.946114470159182 1.4192126924752397 -0.6758363203208683 -1.0159724426233858
Ni 5.367695070709646 4.158658822955993 5.204646489469294 -0.18209375341238315 -1.1968590631015452 0.7603623651894066
Ni 1.7729572647263845 6.566477868559023 1.4227424898498364 -0.32506971488769826 -0.783359083194896 -0.571093691295139
Ni 7.40971409758163 4.037518291986492 3.389161285537206 0.29237042488246423 0.2727264253992916 -0.8101237528832499
P 8.35711414097424 8.9690812323386 1.1495428286058809 -0.3541653467020739 -0.7325628264786351 0.20638502185958005
P 1.1137493927528304 7.261184214128107 3.4839443637299463 0.0455360367585861 -1.0429104046648106 -0.0659505958591961
P -0.18472690258591012 2.981497226776908 4.207279839652757 0.6711342868595086 0.6205095227241055 -0.22712225440693143
P 4.966771133630713 -0.1160241062866734 11.988409475515747 -0.7325774817666545 1.7544444354976043 -1.642505802944068
P 5.7766719456129385 6.623597543824847 9.104770425514742 -0.07162373498457342 0.19192693745272107 -0.3519200023113229
P 8.964202650238027 5.442540573070256 6.641888949343577 0.1804346205424054 0.33885828403135837 1.0255150920064984
P 5.672583042292466 2.6603629213274975 7.078008906655565 -1.3351733574351328 2.126452466808054 -1.5447082377776042
P 5.655849786603936 3.2824710960218404 11.291155217874557 0.4986826845225799 0.09942301658502878 0.7894793371600209
Ni 0.013933455212384389 7.891401509933959 13.279720528967044 -0.6146947158145413 0.11447682559435769 1.80967738782898
Ni 1.5202635669028595 8.351832911982449 5.310285115126898 -0.17431745190107398 1.4159412208128193 -0.37373941217925954
Ni 1.548888951704109 1.8849024643662067 3.19245329696726 0.2270276378105961 -0.23953502624898748 0.7022446351110679
Ni 5.315463341425587 0.27887136408141594 1.7058875293068787 0.9348487385681772 1.8641518647277766 -0.15774797757816703
Ni 7.172929633901815 0.42803424590345784 13.190487423156279 -0.03244140835815703 -0.05760170967386854 -0.27329849585267774
Ni 2.66507295356663 4.232006104326024 2.0005445243002824 0.4533924452262127 -0.8779620526834621 -0.6133369162350663
Ni 4.970057855928797 5.489856264728978 12.13157198227052 0.8772845670004633 1.1106008660332485 -1.6731623514876603
Ni -0.27927494736075315 1.12161505295337 5.4247351529853445 0.4174558792306036 -0.5274402162712465 -0.2425596720079242
Ni 7.020972569932344 1.5022474594911475 8.022309505373915 2.232381917053033 0.24369018606794163 1.20078770873199
Ni 6.364143123781334 2.556030557096055 0.7815170153157063 0.18376548468785128 -0.8354750871638449 1.1011325215314973
Ni 3.6017607168766 5.8750957008127855 9.246658508039404 -0.14137339287488554 0.5235971883760725 0.7108796850782467
Ni 8.303328007412455 1.886597326861799 10.39913784978682 0.8202636695307294 1.3528540625443475 -1.2547600491833875
Ni 8.977358903311549 2.61894647481918 7.27852612209406 0.7195795268450896 -1.3123825847928625 1.6881613959996538
Ni 6.568041636717941 8.601015154359304 8.395181127180495 0.2687831244808274 -1.4767591234311406 1.6290067400163688
Ni 1.2366971527922168 5.146398466519941 8.733488790734416 0.8958327623162958 -1.155428049650268 -0.19990969854788154
Ni 1.682942274836162 6.236925433918798 12.385374363627074 -1.0631257032704207 -1.5756285815055446 2.2518371975641673
Ni 4.1763752861695895 3.997056961359669 -0.2526215959383533 2.624012607690416 -0.13419230174541405 1.0985773592098111
Ni 9.198252860610035 3.6152353419106196 11.829802183124341 0.05422662255404855 1.1477157686076749 -1.982339049294186
Ni 8.799679257710075 6.339150924882238 9.159056590332133 -1.3348388569138496 1.2667089940151475 0.16820413991448452
Ni 5.122679755462838 6.435739359368626 4.656159957863883 1.4344179394607683 -0.3096448956921958 0.4714673004500526
Ni 2.05169191614241 9.078132992690367 12.693448863979231 1.3573156978601268 -1.3098770447621892 0.8801642025411036
Ni 7.123965899153457 4.2559776401752885 7.96118583451077 4.663703198320878 -1.0950372072670367 1.038372664695457
Ni 6.760563034007338 1.507744057750334 5.4147036270652995 -0.6679890563623077 0.494980038860012 -0.5444056404809915
Ni 4.406867221688972 1.477330171641581 4.432096326782203 -0.7532679202364705 -0.685271240481523 0.26080216315787985
P 1.8230821207424421 7.323294838068797 9.11661198966903 -0.580379230362123 -2.758214679627843 2.3049685301715077
P 6.856533452335111 6.429699656000355 12.87309398824272 1.543662055901277 0.7738403450711834 -1.4417910919963879
P 6.547122726136981 1.524570952250774 3.0050651793468344 -0.01722150608460905 0.402474575330423 0.49710736961566
P 8.317186551575311 9.19041529205307 10.574055150436914 0.01618072352492052 -0.7794587196992253 0.4872633869420447
P 3.191191982170816 0.8459236629244579 2.264543235885845 1.085200423682273 -1.3979262722926376 1.919498202708565
P 8.947525577836647 2.868709277829885 -0.04385573755860369 -1.1183699684557062 -1.851838337467746 2.0163331468514434
P 3.3438887927543863 9.27312645461422 6.109285433014541 0.9222667881381085 0.1895419821603123 1.121284828109656
P 1.5727855765038434 2.012522801119961 8.33967578503202 -0.6917169961068667 0.42745412809389605 -1.0486817599309488
Ni 3.4474626826093484 7.2731606181715485 11.60588931052984 1.4991734865705986 1.584185212826304 -1.071930188935928
Ni 4.312610393619173 8.699897739737516 9.840057023001776 0.5358178988119805 -0.0618370879114548 -0.10524707946597359
Ni 1.9897685698255432 2.865609833155625 10.88813189863258 0.1874593885996707 1.121596960033436 -2.901072113247423
Ni 3.2853832630722777 3.4250923704437666 8.058915726114355 -1.0227740389262514 2.411306528708815 -2.4175576518248496
Ni 8.330473898985508 6.02381286189013 1.9882375752507953 1.1154818482746338 -0.6491873502747723 0.5040470341582868
Ni 6.966175137201918 5.199398034061672 10.37368775709748 -2.4903003309052143 0.8053533280778 1.1627803762502813
Ni 1.587046767557917 0.793988768674157 10.12708058204818 -0.8113483693189706 -0.6200786058342741 2.0716303767618514
Ni 0.7147216416151004 7.488857621408965 7.356932708471652 -1.473773044219623 -1.35497445132146 -1.398228891134721
Ni 6.168325640312663 1.059841528735561 10.227332166856533 -1.6292833907165232 0.1432785803173984 0.9459849576906546
Ni 1.5741152476329823 8.877961304467826 2.016510878119259 -1.215795237884416 -0.7949102783676052 0.5859832068124619
Ni 9.36035100790949 4.975545090306793 0.08891567023838522 0.48996253104076265 1.284411296390917 0.11219291465618744
Ni 4.887927254001496 0.7244965971905091 7.600922678728033 -1.9522070057954959 -0.30338374527383233 -0.26399084529850664
Ni 8.56824157019039 6.366549641247452 4.631435565966854 0.3400847002392917 0.023158183284018183 0.38063819618162187
Ni 0.7525479760747429 7.889032447992606 11.183734645626286 -0.3291053184096525 0.8900269542677963 -3.462204836675108
Ni 6.688826340202178 7.563047652086197 2.065368801010158 -0.45022844567593434 1.4856888218206026 -0.4546510002236621
Ni 5.296061379597589 3.640377362908773 9.234461116399853 -0.09709385423121988 -4.016012230085973 4.22304568416283
Ni 2.052637668142713 1.6208878341826194 6.090537070093684 -0.021055792229034705 0.1289822182993843 0.12373485385751594
Ni 5.174930212509279 4.917273657654462 7.706341253177645 -2.9514073711668654 3.921650172963621 -3.9318361123576873
Ni 1.2868969198578033 3.942540445064977 6.645096078651536 0.7735780925487323 0.2414903502031454 -0.7166348423944691
Ni 3.721281296400037 2.1373620651599534 0.8187964991137875 0.5161628435852142 0.10666864240384855 -0.7370229191325178
Ni 3.96006026677356 8.31626889121858 4.37315163107223 -0.26253868623301235 0.8168091353232255 -0.1325791916220233
Ni 2.617907084006966 3.5536865508413973 4.506981157443816 0.9953231418041505 0.5372356050951135 0.7159984943620508
Ni 0.9903615302974613 5.048143261181535 3.665576503582192 -1.6940906169998953 -0.8199134852801621 -0.412747932231973
Ni 2.216243400313936 3.674518073731591 12.840023569040046 -2.8144051107764816 1.3712019689239159 2.707559319364821
P 3.7218712209150775 5.228688254427491 6.232617112182764 -0.5126563730938526 -0.10470920468463257 -0.7199824187104633
P 8.60759796283666 4.170944235078741 9.7937479485711 2.079283522431735 -0.6971862467515542 -1.5521122435511592
P 3.0551722439886286 5.059988570888299 11.22182129598304 -0.8807768964244379 -1.0557407236602592 -0.4402818759861836
P 8.136089089339077 9.179431459415888 7.093742099832883 -0.04547073073828943 0.28991630691501685 -2.2902001136130816
P 6.992880926358989 7.722486457127372 4.125694215610779 -1.1463127176125614 -0.09187605747570629 1.5909991504243437
P 3.4439137716379147 7.117841920854465 13.745005230636888 -1.4148680423532987 -0.5375518507839516 0.7103515804889187
P 2.878082522902195 1.6378364591385441 12.39531037795897 0.2831059688614027 -0.32092895324644727 0.5640460404197383
P 5.094213556641837 5.345718041554091 2.7229754493000304 -0.7910520809637795 0.13954148187246937 1.4555215542086029
