# total energy = -381161.73016134294 ev
CRYSTAL
PRIMVEC
9.37203116803642 0.00000000000000 0.00000000000000
0.00000000000000 9.37203116803642 0.00000000000000
0.00000000000000 0.00000000000000 13.71691495385144
PRIMCOORD
 96 1
Ni 3.1207363869215747 4.595716005492149 6.573035551102335 -0.937207982828973 -1.1562065796875056 -0.26833266720697013
Ni 4.370459239222119 7.825289788989296 5.887614871920773 0.5434067669028319 0.719821981873199 -1.7612380613806697
Ni 7.140409875999279 2.504815878392339 0.6929398596924191 0.6108514308090511 -0.7228849370692388 0.13422804007935593
Ni 4.627009217165777 7.557202840823944 10.208759420964558 1.0172199418772416 -0.5276471900757299 -1.311050239134684
Ni 5.0143084002782805 6.271341436797283 13.627713835874998 0.15134130272087484 2.060520897112251 0.292328001680303
Ni 6.913091262898401 6.453055746812246 4.845925804430953 -1.517259140427716 0.9783566891531408 0.2347592021268989
Ni 3.267211860191153 1.6173407702095088 6.835330584079217 1.9301924491976177 0.004237178009799154 0.7766770431890301
Ni 4.485557152538626 8.520010334581084 0.8126919236280109 -0.18580642637727998 0.6584960292702078 -0.5404934499107789
Ni 0.6463702374084255 3.481165957015723 1.309785387686221 -0.7073734716972011 1.4021649929643336 0.004990254125739793
Ni 5.816807302937068 0.09886368113290221 12.493118887390319 -1.1167267764253284 -0.42930969324539614 1.0568815221329217
Ni 4.767795867588427 8.200527168141345 3.0461293965504823 0.844344878849649 0.11569758537533623 1.927093755667636
Ni 4.247498191855245 2.8221997098770326 12.3700922358061 -0.1953282498247862 1.0381435794037863 0.4284211199928557
Ni 2.277834658409236 6.691461472644451 7.665464794693088 0.10918652372969583 -0.06977048382591855 -0.17698445721027584
Ni 5.2240169670375165 3.114232197373357 2.028841349100632 -0.1272328397084454 -0.27499490971849416 -0.16135780641661243
Ni 5.7168733358583355 4.193009203334589 -0.019100199278482357 -1.3106689445358655 -0.6922451006961949 0.21813264931381143
Ni 6.670205706224627 1.5953352413057422 3.385252591257142 0.37983549777466846 1.2232843471726094 0.7928089157538862
Ni 0.6331209971140239 4.600645693824084 7.288893775522724 -0.51752989913607 1.4054776022773343 -1.2645428396017642
Ni 8.689728444852935 7.966338856281327 0.9867427238539577 1.3214027860136015 0.9034326861507409 1.5715757515924096
Ni 4.010114017407414 5.825766964620204 4.617908975016903 0.3990598932219192 -0.10205505489123715 -0.5373477051929456
Ni 5.585130695398264 5.843826868452212 2.4263166835264705 -0.6257509736287029 0.7696535606833456 -0.38350189088266207
Ni 5.631615969402813 4.982227937996512 6.359641901734514 1.4097314924576818 -0.7502982960851853 -0.6096494400811501
Ni 3.2945219586688257 4.876530171822457 9.45295666300893 0.8235084017202721 0.5701457255595729 -1.4530797775363298
Ni 1.416816793878592 2.032540489755792 2.8737486922575215 1.676350519407655 -0.5018024610984843 1.412491314591006
Ni 3.757781453435942 1.2070145068088636 2.467055965294692 0.8093205402556644 -0.5149181725448357 0.15991104666775685
P 7.472451564045084 7.598196104633601 13.228002334840795 -2.4033463933214736 -0.4640077588482137 -3.299819874545562
Ni 7.456706551882252 5.055882730012995 12.597477390327429 0.7767289794728881 -0.6867869057951012 -0.171184305588731
P 0.9151835179800988 9.076043564705264 2.5459825247764085 0.851594618433527 0.08320372651268897 -0.6443657605164128
Ni 6.572708467218715 6.520168861156314 11.194593995009837 -1.6011246688941199 0.6468088227402667 0.3314594204641259
P 2.1786691978765464 8.521697300169958 6.553146226809502 0.8735302421643536 1.9533855994846292 -0.30749442500809626
P 1.8319696532696288 6.311275661098368 11.900369788427383 0.6873540911524807 0.3778390361699299 1.4153395826730786
P 6.899483073814811 4.202456210632288 10.437310456148419 -2.6092359636018743 -2.374546695480962 1.1054694583439542
Ni 7.518383888217725 4.019111167214747 7.694901407015848 0.8601911018532863 1.6600435547175152 -1.0348312272011015
Ni 4.561611184503731 2.7497913979901067 4.7791378995642955 -2.2521521577014245 -1.4629435577042869 1.071672050178535
Ni 4.715706119016393 3.0768003053624353 10.03679014883466 -0.046551108286661765 0.15037585348381197 0.49614372015081004
Ni 3.343003475286878 4.108501599363011 3.023866136792859 0.24469291630084308 -0.6243525506192796 -0.6487042399907667
Ni 2.990483899398342 0.6166590245759207 4.794157516523911 -0.8708344404997455 -0.7370727985338468 -0.8570666972916916
Ni 2.6609539156737503 0.6816390646531678 9.091200950521303 0.28480932470575465 -0.09043212594032812 -0.3082930096499916
Ni 1.3611656735078224 8.782877061451973 12.494724316309064 -0.984741509633562 -0.31066253832343266 -1.4814058781745325
Ni 5.022574531663768 3.066303630587215 7.600638455925051 -0.5250120664457281 0.16408060466441418 0.07818081937680084
Ni 9.268245177464397 8.50993540120308 4.303791296352892 0.12194485183662869 -0.10598344341136587 -0.16023680543829177
Ni 8.461744417547559 6.2911351663734125 3.1070597820113246 0.23910410935915594 0.3294012523835166 0.7395246025084489
Ni 5.770012751907891 5.625055547668301 8.925843646296691 -1.094629944526289 -0.8396212481217348 0.9346934439372353
Ni 4.943465217576589 0.5084195635812944 10.279757242178562 0.7566373509293356 0.38663220898152767 -0.7567733622865676
Ni 9.20665218940837 6.980176261149322 11.368716022671759 -0.38984043150618025 0.040474305964962556 1.863203127661262
Ni 5.798119473024756 4.25631727307264 4.0281504911618 2.5184030026787014 1.5860505481698168 -0.24736300693383848
Ni 9.584963594744591 6.6525862878519355 5.7351244291237515 -1.6531722815189787 -1.74285441666716 0.8093657916713028
Ni 1.0139319231310946 6.784422648622501 2.018594907554427 0.04516142702798674 -0.1987161924604126 1.291747167930698
Ni 2.390083474286755 7.248788043053436 0.35265265872943563 0.6448848662446766 -0.6829245946262175 -2.2840022123324855
Ni 4.418575246629247 5.3062846555883105 11.568242814899028 -0.37390524833316247 -0.39526443073522893 -0.3061001157637309
Ni 8.315559477240507 1.2393011537737173 10.039684232022687 1.690063498118373 -0.3773494981280211 0.7812278957845062
Ni 8.064988855106305 0.5441635528002364 12.921374783391387 -0.31277701356327425 -1.2687720471917634 0.04701287841442871
Ni 7.4184686652010905 8.738313053812531 5.88832902068673 -2.2048747127716997 -1.4803386132522827 -0.46899492765016004
Ni 5.9224019767695815 0.889419804625561 6.688874792074842 -1.386328283042393 -0.788187614931791 0.6359950199542144
Ni 7.238160159843524 6.7133826532687735 7.670457275633053 1.6376528457271409 0.6589917379597038 -1.1223937449031185
Ni 3.248673982775629 6.476363988031865 2.3360724593496136 0.7849549669271062 -0.2950847384898337 0.7463791635364372
Ni 2.216869596433511 2.916913455661303 10.505387015284356 0.27336097365949696 -0.8570103901324595 0.4338284070513561
P 9.635760003031821 6.688762327702252 8.187914288755191 -2.4664039839035907 -0.04240623288035278 0.6617371619153248
Ni 6.735547506700379 2.518255370917042 9.066043607575656 -0.21396720508221215 -1.5910495440463053 0.5710831497721778
P 8.670431432922419 3.2074089300655415 12.999410062720317 -0.33079119075250774 1.2150025667797915 -0.3644453884718433
Ni 1.5397965853075641 5.002077899758938 4.099272960388761 -0.5588220730166376 0.29776897019021625 0.4603218253561943
P 7.98664804756517 4.813381426612244 5.529453333340557 0.7725175124947018 -1.0033910064139493 1.246137340511383
P 8.435371522174815 3.6015122077198405 2.946351942390273 0.05479715034553789 -0.7005135113525742 -0.9022057557221752
P 4.277788596206597 6.197030602607348 7.273640794989981 1.716658217887766 1.1547029985587856 1.6759615114993525
Ni 7.315573136310778 8.611022128100878 10.882492240224531 0.28853125364203214 0.43466864356446433 0.7674768647470008
Ni 0.04741685389085066 2.9868100632270145 4.787011342848816 1.069242614801436 3.423315358698762 0.1517069135904097
Ni 2.868075801863377 2.6595762271095023 0.8463759404223159 0.23171681575614936 -0.9335277057639083 -0.7512945985601835
Ni 9.37278081178834 8.79679452756019 6.855686635518307 -0.9486663611775596 -3.550050947055815 1.7911078523569088
Ni 3.8182685418281532 8.156544226426961 12.168754767180102 -0.7164623213723467 -0.8766569607187934 0.8847029709517215
Ni 2.1313779292017565 0.11100233574796126 0.7855636425526944 0.611320914246302 1.0771500425739708 1.3848049044193311
Ni 3.127371784904482 0.9752910391148126 11.766904568660449 0.8699944610969532 -0.3447875050315998 0.9218243012840511
Ni 2.3066442818547976 7.3453668230165166 9.988452024291663 0.01012911801420191 0.14617415669763859 0.627632506922132
Ni 0.08514396487982549 8.416758668510896 9.6396718887918 0.15745024383209014 1.0207729493358226 -1.0454977057760122
Ni 8.209299389203496 5.5369397117427415 9.909359579860373 2.03028600948711 1.2545834143962071 -2.770826969075215
Ni 6.874225450136936 2.6462117108331946 5.837918740078732 0.44510063753106566 1.7636811236045236 -0.5438399977855085
Ni 8.52018840317102 1.1825628778012285 5.096204019196417 -0.8563599010326541 -2.3550011692488666 -0.10337814457803486
Ni 1.6835166814486469 4.149223074272239 12.439787344704252 0.8475335609902759 -1.2168918133827042 0.1491743769765431
Ni 1.2006883858505832 5.022068441987106 10.26202161062086 -0.7552553829801445 0.9770073742140979 -0.596678738853095
Ni 0.030848977401890347 3.3877924116715032 9.075014515696049 -1.6187680930074961 -1.2605722849897905 1.235842129232962
Ni 1.0842409000629762 1.1404168541725066 6.584379457484413 3.345585253706135 2.9778257132593944 -1.9070802886601863
Ni 6.711873756269836 2.214226683677607 11.704066974881073 0.22372916956498243 1.1154725923032531 -0.17510960878506615
Ni 2.1461107620112627 7.33589169962567 4.796585809768786 0.7439566701378736 0.3449191455134576 -1.3771137064226608
Ni 7.556696751147282 4.988338502240659 1.5169813129211376 0.06294446204302064 -1.129876426433409 -1.1143816732319194
Ni 3.0697525380133586 4.906098929783013 0.49136715308708506 0.3175826624820337 0.36476240549162986 0.2503316026438592
Ni 8.671518588524139 1.5354854510248843 7.591969327204444 -3.2164395132456933 0.981714035661148 1.3405546763517044
Ni 0.1737705764975725 5.316209636469524 13.581638119627303 0.054284215264861345 1.9950737232520352 0.7521875426880981
Ni 7.021450685890458 8.984853702595531 8.688623482392224 -0.35211540615158066 0.41663955397689534 -1.3410701825355418
Ni 4.35966265945332 8.640984511365504 7.9775656122752885 -0.14186884445406533 0.1714090200050274 1.3249100278359118
Ni 0.5068385019432767 1.6391869745854373 13.510900840876467 2.515578902966345 -0.2669224171230048 -0.37987637831493287
P 5.053127352884499 1.5976032728196738 0.2757110954239613 -0.19004668971087268 -0.22136066933280588 0.7378940088835615
Ni 8.857075431269315 1.249113670282339 1.933069501010895 -0.5703799530575661 -0.22550708740101164 0.23049682730611915
P 7.257869541140211 8.161042801330627 3.421602013681869 -0.4426321213859151 0.20064554827264153 -0.6127350209850093
Ni 6.800495681872058 9.538384600429547 1.6102011569561485 -0.9092701187681244 -1.2650375198499955 -0.6929737513321034
P 5.1043829906931455 0.6798255766451273 4.550366621650776 0.25879850246428976 -1.1258428797939835 0.11268888045599948
P 2.2469069559465313 3.0243356755484294 5.314371781180755 -0.12154273130220357 -0.6378847807777595 -0.7031486349825761
P 1.3762452714661533 0.8727047872491267 10.754952955690074 -2.8704896124748753 -0.4266218620005878 -0.5975889093721901
Ni 2.060853395555741 3.0644479684394526 8.235388312035443 1.2851324908276576 -0.5210620806590446 -0.5242649038670585
