# total energy = -340888.4593877868 ev
CRYSTAL
PRIMVEC
9.07731746138931 0.00000000000000 0.00000000000000

0.00000000000000 9.07731746138931 0.00000000000000

0.00000000000000 0.00000000000000 13.28557165405769

PRIMCOORD
 96 1
Ni 6.514400405633881 1.8843149418224991 11.217486564069782 1.1540157426837738 0.808734328734891 0.37174449323641784
Ni 4.936417695628151 0.4353109276611778 5.340733215141595 -0.13798107936388493 0.4560687065067952 1.171663537672524
Ni 2.8880030090347524 1.6236325394366884 4.911091072224828 0.4969597882942022 2.050165522019856 0.22960131207504328
Ni 3.5199476949214916 4.558492661122584 4.346414754996083 -0.06317946087196216 -0.3507946304576281 0.4018451692765402
Ni 4.338485718207866 3.089937012916455 2.2923721315867773 -2.3595736191108974 0.5753786918237381 -0.8242205972959482
Ni 5.275727821722643 5.155181046052903 2.3713420701631347 -0.13298979679688064 0.09505676919653307 0.3531204503773273
Ni 5.51660351744344 3.0709291101866034 13.254642653836136 0.4884990591213587 -0.8615368172479034 0.2107253011061468
Ni 5.813967359624538 7.924452742906918 12.174924791167964 0.5796876036117371 1.3427948785361326 0.4083976256830773
Ni 1.8831621225069828 7.006863031660589 0.28068427137589136 0.9284104391420012 -0.7651024509775533 0.3991701935475384
Ni 0.6786465764095735 9.172538505008635 0.22357977506107496 1.1852890988757587 1.0202975523613007 0.1028595530704035
Ni 8.368197406206257 0.18394820709615925 6.595356461267208 -1.0704860002902337 0.7377045185805747 0.966332153888439
Ni 0.33729496162169914 2.304522120986924 1.3843834990020365 -1.1639471428648729 -0.08966130921257462 -0.43357515338996944
Ni 7.156502609741588 0.9634120097087416 4.618250457326578 0.2172996118895548 0.30773816558778616 -0.5974019901723647
Ni 1.070233881401625 7.680409063397812 2.583220275305847 -0.5626509598444245 0.796695395292486 -0.10695660595791256
Ni 7.663534330267537 4.535236573828468 3.3907565898488685 0.2509512385057291 -3.531027354765461 1.4995218710489528
Ni 7.760480080580249 3.732075526293941 12.644596088553739 0.5208913594091351 0.09374036437795469 -1.3791214808813086
Ni 8.529719192822771 7.615333774634532 8.92444997284603 -1.2645307554169058 -0.180039956207148 1.1436549682747401
Ni 6.848055362960132 1.013037704180614 0.11290185891755128 0.7708907755245562 -0.9848944902716587 0.479534136618587
Ni 1.9764860231591355 6.824154786127419 9.065648553434912 1.2064402790320772 0.14691386307714052 -0.025366246678930508
Ni -0.14293961007483544 4.735545737887514 1.1830712913653165 1.3069819826025812 1.002252521934132 0.2837531155270984
Ni 6.44376072127681 2.1687708385967923 6.720718753841524 1.1273904267867616 0.5546471157033416 -0.10527459026979934
Ni 3.8238744376153324 4.459858529765101 0.2915997456035165 -1.1111379694836412 1.8605523203019763 -0.20383165931010702
Ni 6.202866870921122 5.830279299073221 4.605935260748932 0.19749080469374375 0.9491800675891848 0.14317753596315988
Ni 5.374634272603477 3.12871531304154 9.540382270759771 0.006284804567447241 -0.7833359432664445 -1.8747743774386294
P 0.41022576090189133 5.602701873409364 12.331242551693256 -0.794014248915897 0.2163652730007435 1.506313954270122
P 4.253512949605122 6.531384066573495 12.43433818457496 -1.198610498575013 -1.6159103118437266 1.3189615235619607
P 2.6682593083259385 8.829924235364158 1.2810999656492181 -0.26073788557884775 -0.47208925030476756 0.18564084733369318
P 6.632496305593468 8.14276222745942 5.584709722501609 0.5568826899020797 -0.8662082545816437 -0.13616176676695907
P 4.778635763798979 1.1527466969767701 12.335148521389842 1.963756658306308 -1.3510640605234603 1.1408208412600547
P 4.206510599874859 6.23099747768321 7.913949378891298 0.03419310094194111 0.948352686591883 1.04853623549202
P 4.657390034685974 1.3688776253424695 3.355895152201306 -1.594250824592422 -1.5286979783922767 3.7365451435287396
P 0.40349856094339404 5.637921865096005 3.3290989111036353 0.9447914516031858 1.503952396016481 -0.32377439311504236
Ni 0.917017840247293 0.425983076254685 4.7771325600300845 -0.9681944039081584 -1.1428754097962384 -0.4887101466909002
Ni 1.85056547556195 6.8948217024368255 4.895241168234094 0.4932018639136667 -1.8276797379436718 -1.340723854939717
Ni 6.209457003386199 5.726870498739663 9.108083197026849 -1.166335440591391 1.7225992659625495 -0.1682203378644006
Ni 8.846136324320947 2.6834456604114414 10.446352107944742 -0.5456179156215377 0.9455512125873458 -0.7726380972329661
Ni 2.536955911483862 5.35598038525398 6.730776421570596 -0.02641422832747064 0.4860837648116467 0.5966203748113338
Ni 0.6916489259178065 0.40668197617135926 9.272398981952938 0.907776050721101 -0.41028327274156434 0.20652257587870884
Ni 1.5760038548027184 1.4226879631564917 11.267559770291694 0.7170709014906231 -0.6524464806420183 1.035219977999088
Ni 4.375176235320598 7.298217689693091 1.5114196489132132 -0.7519731126844469 -0.9797545979419319 -1.0636674347065034
Ni 6.249823834064161 8.290259558623395 7.787962566876763 -0.7474376867079385 -0.14022308132052624 0.07326615568400285
Ni 5.495435213161676 3.074959439132188 4.543373481186175 0.3819515156764067 0.39990064395565966 0.8344723569309436
Ni 0.8085320962667394 7.622078221496174 6.951794577648689 1.3819682063014846 0.34086811537253553 -0.4926660460148548
Ni 5.430123914144825 5.006803215096761 6.589430788439105 -0.4339744457109171 -1.1908953893189425 1.2301311948911138
Ni 1.1649919982100894 7.48369451704699 11.364158767078006 -0.535013143522498 0.8537417466835169 -0.8001409306389252
Ni 4.88824437194748 0.5104075748837494 10.120297588515198 0.18541021938012583 -1.0902392716577611 0.391973418688783
Ni 8.618477202800085 7.4006279851076995 4.60265381049256 -1.29379453737803 0.18824331795354676 -0.3809292450594795
Ni 7.729217799299633 6.54800463481531 6.837379529913055 -1.9553319245777228 -0.5606267303255442 -1.0255564867673952
Ni 2.4947282307296734 5.759685001303376 2.276495903375454 -0.20446492201873173 -1.3634542066576971 0.44571487407629695
Ni 2.4470723141433686 5.526951659330753 11.644325631359532 0.9979330686231717 -1.3222795321916 -1.0482053345151625
Ni 1.2474321952456742 3.5130852429330632 3.404334441283116 -0.29475872260898267 0.42734434198890914 0.48770818778894715
Ni 2.010997984085065 1.25680906416637 2.688481756129933 0.5150528983504872 0.10690749788753201 -0.6870075064463393
Ni 1.3464294193009585 3.660745965811049 8.095908745735255 -0.20649866461930888 -0.024028501704113456 0.419458254372613
Ni 3.8512516270294834 2.6807587744477184 7.063327577095532 -0.35981380323710294 0.9559752361341471 -0.6332303127248836
Ni 4.353708379563149 7.151573626368946 5.850673308176927 0.22801005632852342 -0.10661670611999058 0.09694473024786529
Ni 8.511519171345526 7.358373072401176 0.30192247100198233 -0.5568839754536602 -1.999504762440195 -0.9372372934050118
P 0.2791384042150061 5.865081734157392 7.993104494743532 1.5618459258991553 -1.5379125550120094 -0.22094235084846464
P 8.922095316700794 1.974371008194448 8.151109728581853 -0.6316436849640541 0.7825011060699749 -1.012679630804727
P 2.2041542219974435 3.4491627734852996 10.351107446921224 -1.9932968338572705 0.13610751649025593 -0.29067272546506717
P 4.185723542925785 6.492623921083301 3.655910478808092 -0.7473587538408871 0.406023726134262 0.39051817429949515
P 6.98111975938654 4.206383517430629 10.460620743236554 1.6130946967718025 -0.6167433708134539 0.06793291639654753
P 6.693759121029843 8.02098093661716 10.131337421991821 -0.4402515369688805 -0.4973595948357822 -0.5116343595872413
P 2.592336625215871 -0.588942709954491 5.996934308704892 0.5299064184235519 2.1535752911667747 0.8019926391356832
P 6.871438532698479 4.0245194624198435 1.400524784882754 0.32468636340635054 -1.1262807386623506 0.6183382261043996
Ni 2.978585559818512 1.7190260684663035 0.1398932623402899 -0.5781012329612237 -0.019882340746223824 1.5074113010993588
Ni 1.5543635300138134 1.1880574618378608 6.998759710377429 1.0445811074990141 0.3585760741752599 0.38678107585456617
Ni 7.339219932592203 0.8695943029875803 9.19441302458762 -0.6701256430893362 0.6395318294628792 -0.5276194221615881
Ni 2.998846132355775 1.6877910191380223 9.217795286594223 -0.3843950921208928 0.35334902144836566 -0.5201909909080009
Ni 6.366294894201091 2.0241782490152205 2.4709565518046803 3.9144641967381424 0.7559907184842722 -1.188667014209056
Ni 4.28561034409068 7.156892934391723 10.36472523855223 -0.12950800889586728 -0.03423578125441846 -1.5457191955406218
Ni 7.503065512474643 6.299204440965018 11.365806300194276 -0.12101334116129481 -0.24562237009364793 0.19307287813170618
Ni 7.746855027095289 4.377872198601766 8.077016124936954 0.8623264030287342 -1.8319300285795934 -0.2827490997426163
Ni 3.3329549555542757 8.607221329168272 12.297417743697912 -0.024133916933726178 -0.36120219894419725 0.18043976274872794
Ni 0.2057455694768629 5.379726647690127 10.117096018652344 0.26570988487214237 -1.4102020043361971 -0.151675546131842
Ni 8.995140490180795 2.55671723156165 5.57129072412265 -0.5427902163647554 0.12403567292738638 0.04465774791869083
Ni 3.8990346260600184 2.731700679949117 11.430493987502654 -0.7217670214147117 1.6884033368071307 -0.8528200062001957
Ni 1.3158207048763833 3.437008245426431 12.715381917721675 -0.1326164726178619 0.939141709516576 -0.9173719219396522
Ni 3.7780339845180295 8.68827269663477 7.991404313186082 -1.1280121195311603 -1.2156471423423256 -0.2480147815852245
Ni 5.918991922463309 7.892527817452816 3.405942034202627 -0.34084857498850973 1.2088979965439501 0.1020213734398243
Ni 3.193672596678035 8.558349052044335 3.8562305356480717 1.1690196722917738 -0.46534678937461155 -1.4771113645642366
Ni 3.6569698017539243 4.756677732899498 9.42681685993699 -0.5633086480330814 0.443413736746946 -0.7792964830897482
Ni 5.103803429314143 4.836803213986606 11.327517267479475 0.1685088156390969 0.3077582201924442 0.637099822982619
Ni 7.909184694964411 8.965557512627505 2.118398080899196 0.7110979717366399 0.25700592934024125 0.654689253929608
Ni 4.890323077642388 0.4954935423215972 1.4985198730921092 -0.6790831093929401 -0.38074309719060234 -1.5614422627028333
Ni 6.253745235200406 5.637186602382959 13.471968157177598 -0.4288543508755324 1.4276942475836898 -0.7603348543855808
Ni 8.355852254481041 8.823170711185071 11.367427509089953 -0.7167860232603527 1.0577245868595073 0.2754443385510869
Ni 0.2465780665397535 5.1079063767992885 5.51287455543703 -0.4182475218939635 -0.5658100742986966 0.19285999078995172
Ni 7.467119335392401 6.415130862055247 2.3185311449998087 0.591782072882426 1.40716476017177 -0.2122103702921055
P 8.7759051192489 1.462119830137617 3.2883254166041374 0.7028845826879121 1.1499266602160647 0.4001824368621366
P 2.2553775243396372 3.546734858701717 1.4369674912292376 -0.17247114272095457 -0.2590638403105345 0.48953161415093116
P 5.1165116737371585 1.3071700213512882 8.102139416429509 0.12776994315883802 0.22157638488803774 0.2689970402638464
P 8.788259348291561 1.7468934330224857 12.526606393208258 -0.440752387864699 -0.024717557351338074 -0.6127779584078027
P 6.519202306562292 7.812656501254169 0.9794189512912731 -0.9589008944213743 0.6435494352627046 0.2995558868873099
P 1.911710285871541 3.5827627316409636 5.666827674767896 1.0454624816627027 -1.1650568309892837 0.23788643490197092
P 7.273609082099667 4.135171962074521 5.74244899093879 -0.3345951378796302 -0.24550872733391912 -0.10479250842705824
P 2.5601030709686388 8.77104875441582 10.216379178207145 0.6808363446386211 -0.16121896684590298 -1.0412507575742003
