# total energy = -340869.0810775067 ev
CRYSTAL
PRIMVEC
9.21944327105520 0.00000000000000 0.00000000000000
0.00000000000000 9.21944327105520 0.00000000000000
0.00000000000000 0.00000000000000 13.49358714279302
PRIMCOORD
 96 1
Ni 4.421598924068539 5.467922767084965 5.418093519772533 0.46649324427422884 0.7698877881813386 0.7214813718534929
Ni 2.9282058350717937 7.556218875865842 3.329353955767461 -1.5226288893800615 -0.9143603888068381 0.7108596304735887
Ni 1.4748620079025354 3.9644804848580253 10.704246664098623 -2.3169503851237323 -1.61761623879124 -0.26277214240005714
Ni 8.471829451343106 4.063460428453768 5.274359632417774 1.055044211813867 0.06382532198607717 0.25486548595847075
Ni 5.992582848134376 3.12499485296031 9.735218633964713 -0.008309548306959883 -0.46185523128158523 -0.676779400960428
Ni 3.0564575112417236 1.2715456241360583 0.6350647588202505 -1.759139269870112 -0.10468606475618099 -0.7520304482849436
Ni 7.566959527345819 8.43036039524273 4.255296761385164 0.4602722030651815 2.1456094993524792 -0.39084341884939783
Ni 5.806764967809099 4.70764137283917 11.541240280464118 0.09767183822187694 0.943744241285594 0.2734072535164001
Ni 2.479292700425383 7.371221525996974 5.617178179050333 -0.826507593557912 0.10330101148319629 0.33941878452051866
Ni 1.0544000753739022 9.077500780937207 0.12889980303606058 -0.20666218678036669 1.2912907971195697 1.5931961580756628
Ni 2.1071867481649753 5.040020743788656 6.282182158141895 -0.839235839757858 -0.23500937046449202 0.07932881693831499
Ni 0.3333354272228545 -0.013842994160674969 11.36630964076777 0.20173749578523967 -0.150179935422922 0.536030786153735
Ni 4.85035835559458 8.969080127371083 10.857372398374116 -1.2204738743070076 -0.5561563532590165 -0.36496269442789403
Ni 5.085149918891222 2.073323732812222 0.7798561163250126 1.5439567043235602 1.3194122379461344 0.5412699230654872
Ni 7.57226992670416 2.1401185997413528 1.409567144403269 -1.039138596327204 -1.1256418195267712 -0.7451450340190199
Ni 8.653304973859742 8.907697073676927 9.283952697380371 2.7754780946939817 0.2798506951488987 0.4765642553569857
Ni 5.22046368865228 6.554590894115451 3.3070484345737636 0.34350812409854387 -0.10940583882935351 -0.4753329540530458
Ni 7.603938714544266 6.734766475122493 9.85270661004634 0.6866038432500176 -1.1898597489655767 0.8298461710128417
Ni 7.704882399569395 6.201062120165906 1.875609082813328 -0.6595645797440381 0.1335361562186539 1.189107187070268
Ni 7.899993478771768 9.160014798744761 1.584322614676336 0.1749982800181825 -1.4766233691842245 0.5745199433678686
Ni 1.4577046238645626 7.265170269366776 8.126054229234471 0.07837442344484567 0.5859852636949909 -0.6432887254021501
Ni 3.4593103070091917 8.255264727510768 1.3027082645373222 -0.20283998482079907 -1.5418597125852156 -2.9583879162497566
Ni 6.324178566400774 4.028610932664655 1.8095573030166316 1.144570281000158 1.1352266350017288 -2.253504815074577
Ni 8.150955945670026 4.110451931109086 10.509480392076808 -2.368403558697702 1.6965383072094395 0.47623772525550234
P 8.367096575109162 7.38151042475376 8.01784931064228 -0.7312873022003212 -1.0047287513887664 -1.8914114717746777
P 6.525863108697761 4.888158073249437 5.944343032852115 -1.1466546743330122 0.25184881061933395 1.315446825540483
P 5.580344659056507 6.711413625166456 10.301314581118511 -2.250950938304472 -0.6940147910021081 -0.3537292876059198
P 5.878427700816708 8.368156811092165 2.2236753365895803 -0.2089666665438272 0.16570194231792107 0.28126711588045106
P 2.692049794162244 5.458979907054426 4.090837565423548 -0.23369939340381687 -0.1407218753338157 -0.14230876020496136
P 0.8945727277415044 2.052598424205364 1.1915568118567164 1.1227871236867955 -1.1726300153508513 0.27175274863211263
P 3.3363874690842636 3.528391595884275 11.775529384099249 1.4916787208554503 -0.864491014780221 0.7615270749214691
P 2.1675741019794414 5.29335260762284 8.56386715411102 1.0633833278071816 -0.7997256974783775 0.18136150323204894
Ni 5.4180732369972056 1.8299212094449357 11.817818970656038 -1.785347552834364 0.8733276392352443 -0.5557344352302493
Ni 1.9226503704626308 1.7816389847233542 11.411621360848281 -0.5023148819585285 -1.0506093159709649 1.6381395555555722
Ni 0.41449234297216486 2.844419534084638 7.211256808658953 -1.4205833475705212 -2.231702631597821 1.2403266473668766
Ni 1.1127868099856602 5.658507099612087 1.6495234398536316 0.17817050709857704 1.7403311360246736 0.038493270979191765
Ni 0.031789562547734504 5.034258591707123 12.652667222558534 -0.10702268330915762 0.13833357760729725 -0.6986985696310224
Ni 1.6257658563353878 3.4556594074503324 3.08004637894702 1.0906714740991732 0.6711299159841344 0.8269063716582276
Ni 5.336241457996106 6.659950692495868 0.837642665175958 0.0804459612618937 0.4123075022604447 0.19046937907058809
Ni 4.54681740338275 4.437189002740335 0.21897837409625023 0.4184619518976148 -1.0773940402639768 -2.4228384406078143
Ni 5.312759535833443 9.16486422593658 13.264209493665469 -0.33163296992751273 -0.8515671076297011 0.9516118169591289
Ni 2.976008648740192 2.6828211313884602 9.593684505788602 1.6359901133127372 -1.3027270639809694 -2.0874154075102505
Ni 3.2818636812279656 9.164430912100048 8.815104360420522 1.0113267163212583 -0.3437150979030274 -0.8261574093073448
Ni 4.893698958691039 1.4066289078138539 6.963163432525133 -1.309614535129422 0.13737301346624084 1.141447933321092
Ni 0.347210689435186 5.625455395272413 9.787303879060108 2.025786836065176 2.2640070001574815 -0.4466096179764244
Ni 0.5086459079844147 6.159878866808773 3.904018453552583 0.4679780563498715 0.3050135675677714 0.015706869212295534
Ni 8.965650494452154 2.131959392393902 3.3686739596275093 -0.5244754772159677 1.0159737281749663 -0.0695190299367448
Ni 1.3950031897741526 0.6343991150117917 2.7971127264674185 0.6309122061146683 -1.7409165762144987 -0.4236859193007155
Ni 7.285794164096998 6.307306985106046 4.5093818537394466 -0.33478000019692666 -1.8888290557594827 0.24157005440114526
Ni 8.425225165307669 7.276519404106564 13.517876023292548 0.9202564425762991 0.323119790250179 -0.9821297830423279
Ni 2.403223073505816 1.737210487313902 6.914356621478049 1.3091406808167971 0.07371224208248596 0.6650631409647642
Ni 2.7374278942347328 5.54520014108082 11.44246777434331 -0.023744651915107495 -0.010635368226659104 0.7117106656199743
Ni 6.315373998020192 8.449601373473385 9.00163951343691 -1.9689384596175636 -1.9178902347914968 -0.635990391968524
Ni 4.309130934880344 7.0434426572693845 12.0657768209729 1.1460183263005939 0.0060176669489896365 0.7073760428003625
Ni 0.3284223858720562 9.405399502428095 7.133384780568284 1.118127513427597 -0.9927996040513483 0.5147651919067392
Ni 9.030066745002028 3.7927130361683585 1.2156389197801922 -0.845924564631943 1.7711437505301562 0.5749775997305774
P 9.153754796723383 7.048808373287708 11.453505291898528 0.43670418593725435 -0.138682990526916 0.17929227940784606
P 1.3711801482082624 3.0540788948624664 5.404640508064737 1.119704885217046 -0.3438685927617562 -1.603550504726793
P 7.381012574813916 0.6760829841417683 12.980425808510798 -0.24662844276065912 0.04025601930656938 0.4742705742268025
P 4.750004714942601 2.297411522402209 2.890394132140607 0.11688003571921161 1.6696931619921376 0.46348685334773726
P 0.3740669278567952 7.6865541462284535 2.0192341807367877 0.10472334575201964 0.5911256702453497 -0.20406897213189368
P 6.858104187997291 5.44970514706399 13.356829865251864 0.7517247441190666 -0.4569469953466904 0.0890316460483757
P 8.14514769637184 4.664918472445851 3.2887920928908008 -0.07110128682220013 -1.2602488402121004 -1.3304502409278505
P 0.6775682364623042 8.987030383535473 4.779158438642159 0.047972928334852866 -0.5771928622143414 0.49548783173436595
Ni 8.474475431578947 1.2852825946984332 5.5408310468865185 -0.5243152974890196 0.437231262085318 -0.9377276027778688
Ni 6.205727158491116 7.266451771989709 6.7625004045491615 0.6551497385057943 0.11121538123426652 -0.28599331771152686
Ni 3.966527201277386 4.723157695964321 2.3991600648300864 -1.1865340270264535 -0.6628499353635294 1.0524286285678908
Ni 4.067037572465983 6.599590997011392 8.46951998078883 0.21848900421196563 1.0406794584517627 -0.5086858184818788
Ni 2.1736773734642014 3.9186598515056748 0.6442067588267275 0.6877577543488026 -1.5165988811358977 -1.233764934988959
Ni 4.176730509211712 4.70580670361641 9.862449717757961 -0.0006589737402375748 0.14518428198054348 -0.4030754421392154
Ni 2.8574281686239074 0.6236160540924941 4.924511260245746 -0.5795752464035889 -0.5928141136913662 -0.14882933493229852
Ni 6.428542664901501 5.353260550384122 8.215854373106083 -0.19670224735417735 -0.9195856417615196 -0.1938544934927371
Ni 7.226577679585501 0.5929365125217461 10.77948746306278 -0.4782231311166473 2.1736612632833725 0.46535758800788884
Ni 3.6622394741557898 3.1426593063814576 4.978621095096506 -0.5862225765167776 -0.5185848227631455 -0.26832675366969916
Ni 4.984095600546128 8.20782147213226 4.9191815000564105 -0.16490695722045148 0.7616345470336109 0.13064649337568468
Ni 5.7566019766481045 4.006216904814986 3.8865577498290382 0.40623918457917774 0.07090562587162627 2.7492356160576845
Ni 4.03500000689266 4.0321696377902105 7.535844828049874 0.00854480424621754 -0.18422956880846336 -0.12111258574332046
Ni 6.83387549092486 7.912531921701184 11.779469774178684 -0.23781418690313885 -1.4826868017694852 1.3910408580267142
Ni 2.0470575387637617 7.085935071579442 12.888345696303569 -2.8873321379535115 2.0001359682662914 -0.8343962522773694
Ni 2.3053402436663983 7.598904898485839 10.360619572285984 -0.48507692081368714 0.37020054578806566 0.5278978726339554
Ni 4.00569139654515 0.345703310450657 2.924870240474836 1.549672523761415 1.2390578079567822 0.2020992500000326
Ni -0.09881860333745898 6.772962628840559 6.219207828528904 0.44811011378135085 1.190592770476859 -1.9270719012907649
Ni 8.842764534300548 2.106836409318418 9.726366124478814 2.553052731542087 -1.7614463207367344 -0.3915152481054418
Ni 9.116342295688405 4.9290463044199955 7.566636846829254 -0.4907099507297485 1.8292414260038368 0.6027527129613168
Ni 7.190179317316872 1.1271507026945058 8.42276449588277 -1.105067080699213 3.212092034910275 -3.0563978545373427
Ni 6.717028266154701 1.6461777038690104 3.7445921517050595 -0.9507471549659884 -0.782451226668646 -0.03908925269197785
Ni 6.64818668280621 2.6505438602885447 5.9861200183597285 -0.5303118813920867 0.8176468007331724 0.34509629452127016
Ni 7.150987463719118 3.0447856959853703 12.557092019384731 -0.4741366197520995 0.9758038408243 2.2927874147242835
P 6.476207186919942 0.3882565730866952 5.992016774313886 1.0732787325440225 -1.044723289503833 -0.42747623958108316
P 5.039790257705395 1.196582330416146 9.342136604238858 0.7221282614088725 1.1090834009474577 -0.47110117535988544
P 3.750644716251502 8.711774683461472 6.685343805260934 -0.09122274016242353 -0.2935091664725977 0.48670005823940704
P 3.0739652341262533 5.957530524591994 0.6298594611158767 1.9693056131489954 -0.4932139480985248 1.6886421922908146
P 7.7922642834554265 3.467810633759869 8.467334050775179 -0.726460056015007 -0.11164038458682708 -1.0501927972588365
P 1.5050556848097685 1.0321719975041803 8.850565105302444 -1.8253485187073337 0.8024222704739341 0.17768816814551977
P -0.26008971579540563 2.68566071993424 11.771765085387425 3.3632533604098596 -0.6683335841859199 0.7491446420967163
P 2.9521395099576493 9.018035371455786 12.00071059966823 -0.43764778079744626 0.17254673315389638 1.0668160076378144
