# total energy = -340872.5850010109 ev
CRYSTAL
PRIMVEC
9.20706738007286 0.00000000000000 0.00000000000000
0.00000000000000 9.20706738007286 0.00000000000000
0.00000000000000 0.00000000000000 13.47547377536717
PRIMCOORD
 96 1
Ni 0.9247854771942545 3.452309637159277 1.2867907971211696 1.617000716694428 1.8382546852460404 -0.2814416937851024
Ni 7.935645102969301 9.046385721715405 7.168156849141309 1.6870951595186687 -0.3558159949316195 -0.1295550600837188
Ni 7.326367413599909 1.440629845948299 2.54489697556111 -0.7251709048899382 -0.9108480047782056 4.1032358763913335
Ni 0.33521367431609544 8.437015961671383 9.469242391919316 -1.747415810785597 2.0011186438945345 0.3945370656509012
Ni 0.5013349511389751 2.1860340277593444 5.585893763701687 0.014351126515349477 -1.0545189354380162 0.8776679184818111
Ni 8.198773883996695 3.014292609670657 12.778549698655508 1.2160425780085315 0.7029917976897376 -0.10536200777728305
Ni 5.439581492525627 8.885464596595673 13.185347401790313 0.46498066428444434 0.4590887242800416 1.4376798980414918
Ni 2.980926197184451 5.619413934214527 6.790978282035236 0.852572408965764 1.3137149304510407 -0.07752518807067295
Ni 2.1748106125218487 7.678141840161849 3.529590078617394 -0.1783887937569702 0.5186033347059069 0.5490197422142351
Ni 0.14241399881219208 1.4828258361315998 1.6374990452708842 0.07616173206424302 -2.1486058629766416 0.8613866648232843
Ni 3.335591642929798 0.9813905279572771 7.255491408269111 -1.6457937296667204 0.401700930389192 -0.1109562140356089
Ni 1.4939111453571494 3.948681058228905 12.284484647985382 0.02920618925031099 -0.7710715240767947 1.8474664336522955
Ni 2.048747444817342 3.2924933601351154 3.789909783361803 -0.4529389026285619 0.23662196636725055 -0.7150194182782331
Ni 5.063997589504159 2.5925076421194486 6.565331472650045 0.7875229847645986 -0.35462583127826025 -0.06700603370690396
Ni 4.167772435580383 6.470552078771595 9.117303158849786 -1.748507758298195 -0.06750354216861278 -1.2018704002732075
Ni 2.218304799217444 8.779518871297999 11.174361823466052 -0.026097468418000216 0.008267382215114794 1.0810054117643189
Ni 4.3094784109046635 1.889999187618898 9.732458640087609 0.1449899065815503 -0.47806912203728635 -1.7890897934856156
Ni 5.5848782241605095 0.29389327624853384 7.069610843963713 -0.8719580125812274 -0.06871735997105585 -0.07998650512697193
Ni 8.014153767226993 2.663420475720099 10.318709453731834 -0.614084078813736 1.6678203704494567 -0.3935173661371352
Ni 6.215019128401243 3.263168850265202 4.123400815355556 0.4389413027978892 0.9877167902118021 -0.36271092227923984
Ni 6.8025773456252265 1.1889822780473664 11.791605467604501 -1.0401760364527828 0.24619366921608565 -0.7196815996405928
Ni 1.9556824069005185 1.2047355704766982 9.561846155756239 -0.6538395043348031 0.4802265346999214 -0.9194432026463842
Ni 1.7458809606192895 6.005650414290778 1.8610972821455403 0.10145290253086398 -0.6576421659103449 0.3483047741562389
Ni 4.350781315544046 7.429689124670605 2.582951626799517 0.7472104011884808 -0.14608288253541293 1.2952680365997629
P 0.6992758531142629 6.0793069539954265 3.8545783838089918 -0.06414233900586373 -0.3363368031610853 0.5867851338884668
P 7.030047154368107 8.737912133432335 1.3433636231480715 0.10927008458243762 0.006612105999878934 0.3317296434063771
P 0.9853771881687912 0.8580370002071556 3.5606114510207534 0.4792669990001295 0.06692504395732346 0.34603191896166213
P 3.625715545758946 6.588485405906201 11.263299333039177 -0.10280993077939068 0.17778561295533252 0.6433956832936597
P 3.557601660667072 7.964536880668449 0.691135884770153 1.8324180239596053 -1.2566220420927907 -0.43865256791287677
P 1.3057463076141609 3.338703631732319 10.207199897566221 -0.6886584117862011 -0.32964756406636775 -1.5925047884355927
P 5.330109460389592 5.519333110890835 7.458890259836513 -0.9132882387885819 0.07208653355360488 -0.7658066761334296
P 7.795568778585984 8.812563036422997 10.904097565154771 0.10875946349460623 -1.2061649138835033 -0.23380275175090054
Ni 6.104746081395921 4.156134702307048 13.347510560310814 -0.07106760537078728 0.6904535560134109 0.4335265595402212
Ni 0.49462115754489633 4.69787855183474 5.897689261925436 0.5757820979097439 -1.2006267576740934 -0.26380032655425534
Ni 3.0219620968674037 2.240834493299603 11.59026899914883 -0.8410986039982095 -0.33745728991877366 0.2357843009573036
Ni 0.13263701387314628 7.5020842961328125 11.860060934899256 0.528469171756393 0.3717702042680307 0.6968445471414192
Ni 4.538982981556886 0.025960247418903456 11.120109178439845 -0.47522702460280086 0.12915345376992593 -0.7991212311251592
Ni 8.890371963553495 4.395187001918486 8.406149268001402 -0.7927811478397443 -0.8875016167427812 0.3436647042810662
Ni 1.5352048429290681 8.48440473790386 5.630969724587439 0.4966288873173447 2.274626684654857 0.8268050701936728
Ni 3.3720792512859883 5.354278012480179 3.4686540233197385 0.0203875625174165 0.40695317992706687 1.158948918319333
Ni 6.717504042266357 0.42691146271465163 9.139847584239886 -0.42929323818516385 0.8556124813436684 1.4511141691695268
Ni 4.803667756985542 2.775323173666387 1.611652965488523 0.38204458961084525 1.289671516348592 -0.25838841151006464
Ni 7.360212593594196 5.345973237628481 6.751118124867319 -0.16137760391095435 0.09954951486056404 -0.33839728523453977
Ni 8.668886748661617 0.18230638071622987 13.150930462906569 -1.6196949756971395 -1.3606123663335277 2.8865294395465573
Ni 5.520437958986404 3.2900442801899357 11.179589596371589 0.2548055792548128 0.23495769129095018 -0.7134605584315454
Ni 3.8281145097998577 4.318215917927128 12.768455990595733 -0.45569563943809266 -0.06639796780925984 0.958414441703259
Ni 6.629226679430334 1.1322851566097132 5.208257605342699 0.6893711215825096 0.8753516116438086 -0.46590497587092666
Ni 4.641310329341569 4.698486218287303 5.390728792566518 0.8003553606425765 -0.07012246784869859 0.6937671937676761
Ni 4.52402149692938 5.519148969541573 1.3899412567370524 0.15226972807241518 -0.9972103315245343 -0.21449839499533382
Ni 9.247578559918653 6.925896807225734 6.059610274571658 -1.6399010183313696 -0.032401299148840976 0.6676332156847857
Ni 4.636384548248821 0.4378209169516564 2.01714326504357 1.56327880169094 -0.5979838308177637 -0.29885089040048535
Ni 6.707781379025342 1.7388467610774958 0.5578046580102903 -1.1214879452593975 -0.7109344495755822 -2.399152152734468
Ni 8.883770496182466 7.8330875784980405 2.709958518918989 0.42701138412952266 -0.3490773906562053 -1.0972846085403167
Ni 1.683926603660217 8.5642484269437 1.2834016755880093 -2.437902019809156 -0.24812611035210816 0.5980619923538668
Ni 2.934384471158576 1.1278105218226557 4.679143090254117 -1.1808063805140567 0.15886897855648768 0.6022120099664983
Ni 1.6487003635464688 2.977059228849957 7.6923391381899195 0.6074416337965538 -0.7177967239130542 -0.28011037656818855
P 5.749666317614735 5.560691257934995 3.7227746095412546 -0.3620092682265249 0.24235989729229226 -1.095255751035746
P 3.320243461468842 7.30868063700333 5.423810706668115 -0.05548517755149799 0.04121504078572902 -0.4594941872485764
P 0.9539166386474431 1.8884800214874895 13.158773042971623 1.6780320208751358 0.20100653115648612 0.09673878488464631
P 7.2816578939991885 3.614243539699947 1.5619964885398876 -0.03894424247368132 -1.454753565694327 1.0618229252985971
P 6.699117528542583 7.906716497000301 5.835985337201359 0.16344271397009916 0.18397785780897347 -0.6544560548728793
P 0.20910815410125894 6.930325406675476 0.5886529375453435 -0.010655937051949392 1.0931770141298462 -0.1384940144445615
P 2.576321617519352 3.8292101508279646 5.714058904908015 -0.09265407329231139 -0.9550668653872648 0.7958271337549198
P 4.775567787088217 1.9423505732139772 12.830039302736044 0.3971500777937161 0.1352161150242381 0.468353180301103
Ni 6.624089135785936 4.8946243764533195 9.161691351796046 -0.536380713293986 0.20443638277364146 0.7021618455892745
Ni 2.9501101423855185 0.6396821882527243 13.384015662095184 0.7179113951140474 1.5295029907920754 -1.2358755535740586
Ni 3.1772208754973397 4.531709398261052 10.527592955386995 0.03420672778869593 0.03864548028633989 -0.14924662497537522
Ni 6.131667546657969 7.44915286528756 8.130184914223726 0.5561494112804809 -0.3939824786990118 -0.2781170002872436
Ni 2.2347578287739696 6.494481247108143 13.098632478302777 0.48386001768745057 0.06432514444063116 -1.4543306192242953
Ni 5.672188844912907 7.234637400465232 10.633024926320228 1.0108970849830075 0.6599546160936053 0.15251321154178896
Ni 1.8160572288228938 6.775075835113002 10.1244338853136 0.6645985426235199 -0.09842517144813372 1.2633236224826823
Ni 0.2576432102328909 5.317017010457091 11.142815648217297 -0.8478351513910946 -1.1737188775396559 -1.3691435437329904
Ni 6.598705250790221 8.144654741448704 3.5049031686286347 0.6757489028133846 -0.7886082474089774 -0.4002410580142139
Ni 8.607853098448851 9.109352856095416 4.709341350826275 -0.01943265480331492 0.08557299807581391 -0.004393501082005337
Ni 8.893557608895721 3.145649841166435 3.6013472003044096 -1.2180878905733343 0.1853027472679841 -0.9255367171386317
Ni 5.163102463676765 6.638442953960879 12.829607491272025 -1.01617273155965 -1.438729936572561 0.3070398539691809
Ni 2.7609969766938325 1.7181676875554155 2.1279659739764383 -1.7826255259175106 0.0844666523855126 0.1208261648511532
Ni 0.14835808156635721 1.122525665098847 11.355040394654809 1.8120638857832858 0.6645874868799264 -2.947627592409459
Ni 8.531664615191856 1.9788565957050939 8.186499021654916 0.16560783994221803 -0.21552915025269334 -1.3126409806605717
Ni 4.178305320758148 3.951526042074997 8.409342278997599 -0.21323264090903274 -0.07597661263663046 -0.29583421506134855
Ni 8.0221823300548 5.695933871900193 13.026996889906274 0.16648561456148103 -0.9058744628230141 -1.5694635903454133
Ni 1.8271977804532218 5.126734547197595 8.618468847233784 0.2689787854314013 -0.6018001192400604 0.37195326681311425
Ni 7.8930992442224035 6.7159204266627075 10.09784663660046 -0.5074468038684551 0.004871469159688384 -0.1953742725713732
Ni 7.92933826175709 5.395654573659267 4.380081887038555 -1.0197658482275471 0.2874076815605502 -0.807816702016628
Ni 6.681532029688099 6.497445922831256 1.175135769289639 -0.331555579722358 1.3453001614564897 1.7392042215090822
Ni 4.787840808016505 8.818059655698455 4.693952658268482 -0.9117915996383975 -0.6772275442414402 1.1689086006352063
Ni 1.8273635076675574 7.6596908769658345 7.940706227953757 1.5132636461150777 0.054872226557847424 -1.624744108085273
Ni 8.646688509008127 5.127673668078828 1.800229359147111 0.2099495992823868 1.3319401952098158 1.4904553899713104
P 0.9650387761428451 0.5270705461117793 7.521268141898888 0.2401929715479605 0.45421674089972097 -0.13166799266166357
P 6.092298126185835 2.844560320988757 8.944965270075835 0.5468926685689033 -1.4892989077693641 -0.37292900046282224
P 2.9584701596419962 4.0828648594358485 1.723876990089272 -0.11498256158618261 -0.9533804788237773 -0.11207567235203278
P 6.519957202778488 5.190235691490464 11.433171569146515 0.7416845862742453 1.3607460636979147 -0.13191507567546315
P 7.592341178473396 3.011825115590551 6.267106271160132 0.33328593214990343 0.3110060377057805 -0.478700070753066
P 4.758101980110753 1.645790930228135 3.8141252914964525 1.1489542690004664 0.877859979887959 -0.3283854095244925
P 9.252090022975562 6.481250691163695 8.443327406417325 0.19980916841427523 0.05949686981405238 -1.3400281144242727
P 4.256169490293424 9.021425361822992 8.776549592041155 0.8444060711048875 -1.1332671972825128 0.9307390872751777
