# total energy = -340889.2374754033 ev
CRYSTAL
PRIMVEC
9.12159046160053 0.00000000000000 0.00000000000000
0.00000000000000 9.12159046160053 0.00000000000000
0.00000000000000 0.00000000000000 13.35036966504517
PRIMCOORD
 96 1
Ni 6.586673154753575 2.1292072687580106 11.502932240279423 0.014971019487535507 0.42706486307527736 -0.663464943239709
Ni 4.577597233235761 0.76808261816447 6.136136818968307 0.02035310973505527 -0.399037524624416 -0.2545836930519938
Ni 2.840061940115323 2.13769946953862 4.461573338209859 0.34401977362763975 -1.481818797342235 0.03451654571963088
Ni 3.9142386837523833 4.452211849852029 5.154951954276549 0.34410127759785253 0.8384107727534011 -0.46865425648128967
Ni 3.9153150314345657 2.8177049217337187 2.3397992535722767 -0.9203783128661439 -1.089377437878098 -0.6807918645539307
Ni 5.34816183618262 4.503128568173577 2.6032955512839164 0.5183513665961009 1.3216025607292337 0.4206286205316304
Ni 4.803155923786679 4.679248238068317 11.061889655914623 1.1060381863632307 0.2779521925746052 0.468341096116245
Ni 5.873528964173993 7.8826687368254955 12.239979558834928 0.3823569786449415 1.0269932192139215 0.7081296331369353
Ni 2.119702571428908 6.629325712057687 0.017367508363351193 0.42623311120260143 -0.07503456043833528 0.35304048906901137
Ni 2.6045515942994797 1.599954343202148 0.2506476252953497 1.3574154566627847 0.13204131684068227 -0.14720182663120457
Ni 8.283060953006851 9.07758797426806 6.580584493076822 -1.2246758282034973 -0.029464842228336355 0.5211117029500574
Ni 8.787621733006207 2.3720240085859565 1.3175836503721015 0.42057359892397894 -0.05751737749017836 -0.28147743211904425
Ni 6.64403883757769 0.7408555826005168 4.467433960123437 0.6923080927236464 -1.25200639769765 0.647049220885847
Ni 1.158405510563103 7.175262026687379 2.0766632586864517 -0.9422350037299191 -0.0634136883699553 1.9477132316902002
Ni 7.66700697199634 4.084547900481443 3.7684492145188715 -1.0018542580544487 0.4366602200731964 0.5620362090785611
Ni 7.99811158653483 3.8571831350061845 12.642733354803715 -0.7309096071459283 0.4970199521081763 -0.597002697851417
Ni 8.62323242852915 7.291945412708381 9.20279731095462 -1.4391698523234568 0.19034493767758184 0.0952568010224811
Ni 7.047988474064564 0.8363860001894753 0.06268813089660245 -0.37227851136301693 -0.8883112571282702 1.3154195718469734
Ni 1.815424554630237 6.592839349949807 9.338356916412136 1.5575629822530852 0.6641771388153851 -0.695728174148789
Ni 0.187412198967129 4.832007514623486 1.2498841176399815 0.6195597572163266 0.6961742605472719 -0.013429900252660743
Ni 6.489592066775032 2.2796587829098565 7.056818173694671 0.20761195228814566 -0.2138553620946962 0.0320148623436997
Ni 3.446775412426216 4.248572341337421 0.3182048612152488 -1.5058537268042518 1.0781016078539627 -0.8977346073246991
Ni 6.017622729728541 5.901276842557037 4.745509295974333 0.6433877128738597 0.06059473086392145 -0.48987151398885304
Ni 5.463121241594025 2.8425430127386586 9.37653898219898 -0.3878902497583449 1.0562644573742133 0.18243262480904066
P 0.3500246176095316 5.6615249571461534 12.377234867971406 0.5941711419398928 0.11830571242214463 1.0274616742099079
P 4.316026503284364 6.2268902595982905 12.581655184635123 -2.1550043103038172 -0.19829555998322623 -0.5115184028346674
P 2.5970810116578917 8.427793229898286 1.1327264089115765 -0.2689273633681755 2.3959593568287834 -0.41098389835301474
P 6.461652634990922 7.994043357159802 5.75744030585535 0.17540040055260758 0.2027111725524186 -0.6683505534667844
P 4.821435591202728 1.4166833463342632 12.681116095582155 -0.06485864834659796 0.0875558328337976 -0.129515465095035
P 4.1553770509233665 6.332554764262714 8.377757657221645 0.26430477699449967 0.14031178437959063 -0.4542277966433145
P 4.657648311700452 1.076776396937247 3.429856686316792 1.6396855598864537 1.4282177241873273 1.1852752149186876
P 0.4801285997728651 5.644394610136503 3.5910087383158262 -0.8854791869961136 1.8008284220787827 -1.46635695426121
Ni 0.9077879865164924 9.03875736339475 4.4345524505918155 -1.1441195666159845 -0.015299092250915587 -0.31698230989387344
Ni 2.24520653548949 6.539213519241749 4.690985900758422 -0.3509990331589503 0.3755265859866694 -0.27787685925197947
Ni 6.303502498434313 6.015834897985255 9.482233588112143 -0.3364108509321303 -0.20382188911809412 -0.5111934153950808
Ni 8.483517026427547 2.644285242634962 9.86450850118883 1.0902981499201545 -1.066911395565098 1.1225948051703312
Ni 2.492465489904071 5.589236352219914 7.02006454898435 -0.0699139513823183 0.058242428581660975 0.19103939264144518
Ni 0.8959089391732191 9.085605852341267 8.877488555036969 0.2387135587889566 0.8807416723111282 -0.11610561944703232
Ni 1.379804755833723 0.9872844722771428 11.169867395936686 0.9249299367925683 2.628024814173603 -0.14060720413282235
Ni 4.15798582581408 6.997263309144083 1.4843609872491184 0.657188623312694 -0.3794716866773465 -0.15208126621069293
Ni 5.7308399235606 8.103839942332941 7.716193324594922 -0.48302698026319396 0.2270338084581832 2.0710225679745236
Ni 5.441119965242973 2.6880323908023107 4.754627237865093 -0.3725857581907906 0.9224832750242886 -0.08299675270820545
Ni 0.9736020864866874 7.7053267738001425 6.705009372978064 0.21716617163548405 -1.0251114288101764 0.3211693513920275
Ni 5.1915714916061235 4.451582460105668 7.561209292110224 0.3950975661400615 1.161562701793096 -0.12891716938940379
Ni 0.9346893812986329 7.637516869822646 11.38500831794675 0.4522889277493888 -0.8565347360476216 0.043098373851370934
Ni 4.843555448230631 0.6282732636804402 10.502175178793943 -0.17602389306921945 -0.7643869129677674 0.8306828079815242
Ni 8.148453641600353 7.136759793073037 4.841658157401021 1.2666367460163153 0.13279927805262937 -0.7512030672876417
Ni 7.112304808870231 6.090859980069585 7.230226906884795 0.5905870241330603 1.0942532779131608 -2.07430560960117
Ni 2.815780266132528 5.043765238707099 2.4161232501476464 -1.1415029549287439 0.5458110054689503 1.2100611636141159
Ni 2.4246099779739394 5.487266091718915 11.421681672660435 0.3421091868684883 -1.1210534288251404 -0.5418278524514862
Ni 0.7631077026910604 3.5964151050211615 3.982682538271504 1.8706053336626043 -2.7564221065037944 -2.063821422240394
Ni 1.6288880283536973 1.0521024945617927 2.3788752352307636 -0.9429220024946148 0.8454273132805503 -0.022094517906194207
Ni 0.9924290493343538 3.4711300591332264 7.690534290442554 0.017364973641008804 0.6934254941575413 1.0247877269221706
Ni 3.5558696351287793 2.868466573016308 7.123677607939257 0.716840787757688 -0.6128206387202801 0.15099343246315286
Ni 4.396433323779607 7.354446550999181 5.775530244188437 -1.3548772636219635 -0.1647514054791937 0.06669827265849804
Ni 0.8044786765261336 0.06471677262980062 13.256636464767968 -0.20426900395784175 -0.5369340146942947 1.4028586765972486
P 0.33421781338534495 5.83427876013644 7.91861145213797 -0.26601687458959994 -1.1062852693770302 -1.0094138155692616
P 8.744595190490488 1.6595913020674786 7.932015629417353 -0.4463396521444894 0.15338867216820679 -0.7003512747430971
P 1.6780442797035393 3.273255395831663 10.33792543465195 -0.6211044759956271 0.2775130481546576 0.4050153394744057
P 4.152540236269479 6.241904397605684 3.7149675049411406 0.3166100141561192 0.07870223909790962 -0.5652117785930653
P 6.942679711430693 4.140125751562272 10.544015002382103 0.24866784178819112 0.7232762589703866 -0.19415839788640107
P 6.718644326497779 8.079594754712256 10.186746017576052 -0.9002859129916431 -0.7183736794624467 -0.15517404620340375
P 2.5808537021104114 8.736066503347772 5.61083992722399 1.1620491545112115 0.03079770210714696 0.538064528754312
P 7.170099206449114 4.1711938888971325 1.3938319377460975 -0.3349244961945909 -0.20402680604004864 0.09198172981563513
Ni 5.397728559106175 3.3691506770417003 0.2278919934077172 2.1139427643768176 -1.1001171928931055 -0.22744235675051155
Ni 1.4933320715323934 1.3130803211289361 6.7250887302050835 0.6116957810872174 -0.5715438914586801 -0.2331394071352888
Ni 7.053206023845991 0.793458883010501 9.170956574902126 -0.5125738406823753 0.0477906371207177 -1.1396072805679278
Ni 2.744805170242173 1.9301832850500487 9.094846023545088 0.1493227296289493 -1.3994509364672802 0.23506799161656936
Ni 6.704314307779909 2.2440298503115113 2.5214840058475207 -1.2459020845721251 -0.3003603850664763 -0.8304876612515827
Ni 4.371522260050451 7.17890154130764 10.504951790950352 -0.6833241440574812 -0.013629160747660398 -1.0906298222279602
Ni 8.47841805732297 7.338401673262241 0.34682658797077576 -0.2365435477208313 -0.37326041566031204 -0.6639346837872759
Ni 7.82587771420458 4.2070964692112875 8.233787033139212 -0.4725551341975926 -0.5296919884199007 0.15598342947857652
Ni 3.5802790113789515 8.650131998993185 12.309535335239286 -0.9641757696670685 0.07351992356602177 1.40385343641035
Ni 0.16963421903006415 4.891626230307764 10.320022488924666 -0.34976618919311375 0.18261440180254354 -0.33679805906821997
Ni 8.581856893898813 2.0357383306281474 5.5187757140352804 -0.11934880897467832 1.1854479930511264 -0.16505582409348993
Ni 3.5189363150850768 2.7721699418230834 11.435312977543937 -0.037984963884205546 -0.32658435176001177 0.3367489509978394
Ni 1.2837087996320922 3.411575194582638 12.68221068644539 -0.29424398775609323 0.15667634178054307 -0.5746677817996425
Ni 3.1468757590804914 8.691899762016181 7.857533281969377 0.1988185223662318 -0.5884350107870641 0.5551009154113086
Ni 5.736321999467308 7.866012712523248 3.2434323556037334 -0.00837022634156623 0.21093870266853348 0.1910584188048387
Ni 3.2467480537602875 8.710243280565917 3.2742314060180484 -0.4804993287453337 -1.7962539153342225 0.8075205109324479
Ni 3.172206415973887 4.505728221473763 9.249416847978914 0.4682215398192452 -0.688962059069549 -0.4258533592656795
Ni 7.69925179450918 6.5495574028993335 11.501023091382127 -0.22650518964822283 -1.0595973784021882 -0.2379183165811709
Ni 8.436987793149473 8.879521757565431 2.219845777347355 -0.7211666688265516 -0.29950960703040674 -0.038907732808791055
Ni 4.869561102823023 0.526188071138801 1.3663038896947544 -0.35783842467828697 -0.5531245084112281 -0.6572487871266681
Ni 6.081811362266831 5.90436906174568 0.2481036136973777 1.3407220551675039 -0.7828926850814388 0.7481365125471761
Ni 8.3846754714773 9.168384286373522 11.085079475511339 -1.3594967646718457 -0.27468097802250113 0.06803216097857316
Ni 0.3187029000580214 5.056809113160666 5.614457550026986 -0.6278471940360993 0.8933580755235583 2.8679966708496933
Ni 7.621654423896245 6.166915801883462 2.3026716436503496 -0.395302483062016 0.7003034522242972 1.011959979029883
P 8.541338788778011 1.4918543738670245 3.4389618579808134 0.7664239980024543 0.4567618759190779 0.3913527543856486
P 1.684256082852406 3.2917083734677237 1.6714128833904323 1.646468387136242 -1.4162476963096449 -0.35086970666993766
P 4.791680962903751 1.055723766001 8.452052099904764 0.41257155455510874 0.13691175755910615 -2.714650164773331
P 8.723305398200539 1.7048799990338854 12.384043223140736 0.1266049763164594 1.1978623075550792 0.2780270116765986
P 6.458131701047511 8.049438776430092 1.1381345999350172 1.105725283108502 -0.7992677840053525 0.3495461027625077
P 2.076776366408986 3.5512358671410786 5.811362588255534 -1.4180001602243772 0.6972433252417346 -0.11713431782186277
P 6.66107796868207 4.228231194462277 5.841133635417459 0.5410428946563456 -0.7998761070133127 1.2150881845150623
P 2.6113380576515457 8.644020533340115 10.309342018576636 0.239162216290601 -0.691907514851118 -1.1464063057676321
