# total energy = -340869.8709260193 ev
CRYSTAL
PRIMVEC
9.25000925623976 0.00000000000000 0.00000000000000
0.00000000000000 9.25000925623976 0.00000000000000
0.00000000000000 0.00000000000000 13.53832355177029
PRIMCOORD
 96 1
Ni 0.5316979250977172 3.8292817817471674 9.407726415944035 -0.719322159418645 0.2480021831797342 -0.6351601827577449
Ni 3.801790754597399 0.41255780743653997 9.09685950893606 -1.039830480187906 -0.6560920478144056 1.389747078915955
Ni 0.5281671966108172 6.0741109987102995 10.366984738294647 0.08866115008283441 0.23287098396525055 1.0547981572413319
Ni 2.785501500923805 2.740009955996968 5.365169948569657 -0.8653235379838452 -1.1839097020297287 1.736488879460448
Ni 0.23943741146516612 3.8227142752611867 0.9062631700133136 -1.7571044988282707 1.4629702971771643 0.4863239058469108
Ni 2.9778369408716983 0.9211936097584149 11.842269620266148 -1.1083853464391684 -1.1303975890442015 -0.7086919333983086
Ni 8.995985384314132 5.999648425172064 3.3384827720406687 -0.8174951056466566 0.13842279488699388 -0.4887453708042098
Ni 1.8846061112116395 3.7024456564855166 3.5675647982789958 -0.5641586547382026 0.6649217302908936 -0.5176615396179277
Ni 5.7046101337962165 4.804510244869677 5.798220226244284 0.19056245300502667 -0.33622933104894354 0.052291353204548655
Ni 1.690892419902604 7.355043013741524 12.467523062758035 0.08168471876500126 0.7463573091595663 0.37960538404173333
Ni 0.1431133663368351 0.3354848813203551 5.880966182963078 -0.06837643169186934 -0.12405598464236053 0.3960545307366921
Ni 0.953111691280283 1.3120952958076608 8.021524671949843 -1.1608196529794848 0.4242520762168306 0.3805206967671511
Ni 9.03636167418921 5.715377144429572 8.096120445619626 2.2873549308548027 -2.136100017200147 -1.7288840705299968
Ni 5.766261444682222 0.5753015431600638 7.975453151450228 0.6999378413547623 0.9768266256618596 -0.27416058674265686
Ni 0.7142255803595738 8.051568701620921 8.921077885336492 -1.955074042930646 -0.2706512880378178 -3.156889678706518
Ni 3.2489269585965523 8.667656310060755 0.316963588028975 0.01913697793976704 0.4930609674604282 -2.082260345671872
Ni 3.9095811110497047 8.12867677777182 3.220834680852997 1.2458105532995836 0.29108924417719545 -1.298579103250867
Ni 0.09902319779397785 5.7794334576907245 12.902117166957327 0.5124709965559239 -3.679060161938393 -0.13884908379113506
Ni 7.566340972416545 2.0313482561322074 1.3298719633636586 -1.2261902079654945 0.7765189203446111 -1.7874484012274507
Ni 4.1036740527332825 0.07978502879462099 5.3896880227833766 -0.6153454620246628 1.0522203692118266 1.18960649530419
Ni 2.438256157988977 8.825146965596407 7.055145692566964 -1.0340095026307548 -3.0012119533938186 0.38491882583484677
Ni 5.0106559484563995 6.823158238459276 5.295054879324957 -0.18867577750527506 2.0405010023468986 0.6956122173962149
Ni 7.146917808199871 4.084859534152317 13.41684410029472 -0.03693132580871059 1.1123096211942392 -2.3618971250377516
Ni 5.981259407011317 5.866809043981678 3.43459129195615 0.15762842128116725 -1.5442433823260437 -0.9426780048046087
P 2.4380526577880026 4.730602671879551 10.24956697233444 -0.19525317361247663 -0.623021747622998 -0.9813551096598323
P 1.8417693189065998 6.78403994982658 2.999307137075375 0.28151214201172164 -0.1503156896698379 1.9392337334642797
P 8.961381100139405 3.890350342057656 3.6771302314843437 -0.41014880404622917 -0.42653881536847826 -1.4981316755696459
P 5.307775491887663 9.021894659901783 10.733710600468175 -0.47656502668793405 1.2983309917958028 1.2746974115372627
P 1.5857475660629612 6.5843877526527566 6.8187385840944845 1.0584149280583126 0.26219210152687106 1.321485318425079
P 7.366180024740286 6.487484656952563 4.994178907183895 -0.11466760144892511 0.10167530295431522 0.7344271333808836
P 8.645761538437773 7.61149026700538 13.137277374198383 -0.15742453280047727 2.7097740676279525 -1.0005499374207283
P 7.648656803710552 6.339919261218963 9.35094708486953 -1.6144044167221616 1.7635847072359756 1.9351148261998998
Ni 8.731851373458936 7.307479466768404 6.555757124377533 -0.37236772864271356 1.2513389393169805 -1.5851102957437346
Ni 5.018388956093414 2.5771265451355028 5.935200836524492 -0.5289206574715148 -1.3443187713798266 1.3861243945617032
Ni 7.2751414348317995 2.188154410991856 6.395138115752362 -0.764954098325147 -2.3175965033481636 0.6685608697053776
Ni 7.366910775461965 4.077829527209577 2.0930652420830724 -0.10264203774295871 2.028210872125636 2.263228984340876
Ni 7.6231730285431185 4.220307417918825 10.451206996471416 -0.5314709346971943 0.2205893383844201 -0.01935500748784409
Ni 3.956099406990548 2.934787398356549 11.677453882496343 -0.24440006765077263 1.7328463976118542 0.31107082950544496
Ni 5.169682105508493 4.406796852093281 10.081989181836871 -0.9551568539979098 1.1100028274379334 -0.0863463859067287
Ni 7.799404202586655 6.434713354836335 1.170422155893174 -0.7390458630998175 -0.2479340489459601 0.6753323841012563
Ni 5.354497288029481 1.2488807333778094 12.693179810613602 -0.44220788936430294 -0.8107235912507779 0.9787714080930562
Ni 3.6488233535288517 7.511109167870358 11.2293353399405 -0.4177032193547194 1.485841288238067 0.6710155018934573
Ni 2.271885493683547 4.635096327558771 7.998116598832344 -0.1457183001071426 0.20218178241150986 -0.9893134452749607
Ni 5.47676390877835 7.783688437065976 12.668296361039044 0.2891187507143859 -0.7676123618836006 0.11261226158179315
Ni 5.900904577653969 2.1679523910406133 10.599396767821641 0.2471408636207034 -0.8905386037968921 -1.5637207743243648
Ni 7.717560121758543 1.050301537263667 4.0287341787236715 0.6257098359781224 -1.0152656463643484 -0.26455314555987985
Ni 2.7410552070292433 6.715034881678103 9.21066329632715 -0.019510302118785756 -0.28879607726764456 -0.7606919806146836
Ni 0.5318024502009447 1.9723701978862707 10.553326172322942 -0.8086397121385557 -2.170149393475372 1.9839318477026027
Ni 3.2486494583224967 5.355533289052622 12.120346169890807 0.3075430188578445 -0.14559283027287184 0.6149721378456441
Ni 3.404872862606629 5.418720101455067 3.239044248836521 1.7034185792690404 0.8259967153597646 1.176960010184773
Ni 0.7386890795193964 5.161764097688775 5.490331822177839 0.5437932037079731 -0.09508016623530077 -0.04292636704988091
Ni 6.601370769424955 3.017121729668827 4.154018152452438 -1.831271311949672 -0.041977887093682546 -1.6561786724454703
Ni 0.3183547894029068 0.4671162113176856 13.284872369961215 0.5202442127434396 0.17701222512441772 0.9423869559267513
Ni 0.753254143903658 7.769720923271848 1.5968050269831606 -2.1561865035373766 0.27701039748662615 -2.117038886803638
Ni 1.4920449735235415 2.9734431865324855 12.841641532232401 1.2496353263623123 -0.7102798467107186 -1.1626093978900556
Ni 4.581048524181888 5.355894039408893 7.8001590033320864 -1.0403339021868856 0.2503354592986011 0.4311865985531348
P 4.499491193636965 7.88512403724241 7.237668722824253 -0.47970022988280614 0.4358132986918688 0.1776128348228941
P 2.941558405043504 1.4900469715503417 7.281857866464857 1.2090586904915308 3.2369337765443027 -0.15029794905802504
P 4.504587948670452 3.8440170462995167 4.139531713145825 0.03680045665780114 -0.6793073095886043 0.27634473887816924
P 2.0328005075664315 8.699605841613682 10.265555613124608 1.3850375892554276 0.7677306326290197 1.9566447298518754
P 1.9710751966073448 4.926129364979083 0.4112480061429978 -0.8154567350603893 -0.21427830856472774 -1.6120266605186042
P 5.491832173659566 2.875235839544231 8.456362051389387 0.7360006485155904 -0.23388374150048105 -0.519049678214706
P 5.528822960191169 5.132053068346562 12.17084474476252 0.3364512172517625 0.5165449095149814 0.18716474017738732
P 4.870370309912191 7.840316992991577 1.2660903753738204 2.300517179268373 -1.0637980467470969 0.202074053189052
Ni 3.353655562025112 3.7519979554227003 1.5092388905040224 0.8999408709473984 -1.5999455609843543 -0.4166562661474437
Ni 7.1190937807212356 8.750046141427843 9.660717865794988 1.1621424855559663 -0.6554706121803228 0.7633795547491756
Ni 3.0497742619160286 6.470307389988525 1.2400969247030382 0.1853539122208937 0.7756617145506384 -1.1098274782023339
Ni 7.6159857714450805 1.1805694159144713 11.91759614465761 0.49227035323833285 -0.5886445556947089 -0.24824232421499826
Ni 5.146797582908046 7.152282813498278 9.557176038538472 0.897898643706389 -0.5798470120077368 -0.7187094655353106
Ni 5.409405342255936 5.674325603887622 1.1137029498780493 -0.07375260840211813 -0.0829540723957281 -1.0341910225139417
Ni 0.023606023312991022 8.620287013279475 11.092963380261388 -0.6760942019679453 -0.1335587819264732 0.810161805210037
Ni 6.380036550838259 6.9449346087239805 7.503358585215986 1.4345719485401294 1.2149789126307073 -0.5897663280039778
Ni 2.7746789902356395 7.511395918153549 5.056482343713931 -1.9859239384319665 -1.8570337656257567 0.5541416368218328
Ni 7.111564273285195 7.9065008083538215 3.223569908554271 0.48590198781814387 1.145674055587298 -0.09894016341133928
Ni 6.479400148968411 8.98392337240185 5.967002367931256 1.522345553811688 -0.7101062972473319 -0.7775491613813383
Ni 7.852462254986073 4.1398970885066655 5.514009995562084 0.01893103257654804 4.487081780876975 0.839920010309076
Ni 3.6974229015251114 1.7661874942630065 3.3142625481211017 0.7435470934042807 0.3806667354267122 0.1821091800313509
Ni 2.5291559977604354 2.4976412166368616 9.558909490250405 1.380969332723325 0.30724142845702573 -0.297826562901029
Ni 0.11659174014443391 2.585405303311493 5.392016250082704 3.0331139443087376 -1.134601342712904 -0.5105033313065918
Ni 0.541840560114447 2.211001933555762 2.4052863504284385 -0.8687731870953425 -1.5821345009448624 0.5035374415117199
Ni 6.800097965685261 4.80421424457735 8.113463287747182 0.38478384291887924 -2.8284582464354386 -0.051406122386117914
Ni 7.203398363979308 9.035889923723317 0.42832537300837553 -0.8816467006239008 -1.0012114822641272 -0.4348321657255221
Ni 0.6353165274300547 8.106911506276731 4.1174778413657185 -0.9093999594777692 1.356609930042354 -0.027536000636739673
Ni 7.443926351521513 6.475996145606664 11.512001744098036 -0.752049474448337 0.2761557627958147 0.08667831532485072
Ni 3.2762514855818874 5.083943770834467 5.726562255475836 -0.5392683192544261 0.02171990817559485 -0.20616005033296753
Ni 2.107549831387858 0.2611064828652495 2.073935298190597 -0.24785871562333445 0.8617075384978127 0.7820516772373822
Ni 7.8207069736249855 2.0776538018629416 8.781051247048069 -0.4350797629599539 -0.3094512916241509 1.1513150559231589
Ni 5.19310312863878 0.7670496075278723 1.6677183720162263 0.07940543581252131 -0.16766600802282738 0.4347691736980706
P 2.840955305689237 1.577478057896106 0.517479736056025 -0.13248560346695248 0.6895495561419027 -0.4469423187254948
P 1.6645113938490577 1.191835927041126 3.9724145731031864 -0.6210211722532014 -0.11343321482119174 2.0382967956067284
P 8.481999376708465 0.41171235660158406 1.9614598121113205 2.308414579738579 -2.730425425329717 2.2754862044416746
P 5.593304773872541 0.408775478701163 4.050775100490989 1.1418467114214077 0.6319198214435762 -1.7575747535964696
P 8.735468127030794 3.4418266491016913 7.408156566195753 1.2561613004062884 0.6786879308370505 0.4915722987300437
P 8.1740480725799 9.152588038972805 7.837335715047307 0.3588678943840658 0.9537910839986349 -1.3699449565883632
P 5.582140012846373 2.918831132598356 0.8165464064102449 -0.9637759631254885 -0.2697537159242129 0.30914378768606116
P 8.503015397463605 3.0933048049062073 12.011457837354156 1.708208544458516 -0.45205958534740204 0.6382858728709201
