# total energy = -340856.583163052 ev
CRYSTAL
PRIMVEC
9.40235111966151 0.00000000000000 0.00000000000000
0.00000000000000 9.40235111966151 0.00000000000000
0.00000000000000 0.00000000000000 13.76129126783689
PRIMCOORD
 96 1
Ni 6.963061704545206 3.9433179347973657 11.163545230651595 0.8077136007798605 -0.9291761136634321 0.5365784311270888
Ni 0.9886760455602033 4.460390843059099 8.652742275512441 0.33142985277777115 -0.3777325924990527 -0.2732187916546779
Ni 5.808001650100404 4.674708038951705 6.5436322146981745 -1.2439609016853543 0.17417064191056456 0.3244459652607703
Ni 6.218216835657941 5.509110304122075 0.06724185567015702 -0.7540965867853529 -1.8541204486337035 3.1708813649999197
Ni 5.089295317871094 7.629443951702026 1.6722862210329836 0.6877271582211834 -2.0482703618796725 -0.5087760642028399
Ni 2.7699703070433097 3.2985046815590175 2.827752457054629 0.24414372866559245 0.028259251956009392 0.11134547905422759
Ni 0.3722616542361324 8.744760267134893 7.699869443527716 -2.0606342827616637 2.493019272498274 -0.5598731399889713
Ni 3.9056897248314884 0.35935410634978643 10.981070037725113 3.0459933713745673 1.2766967013554789 -0.42936882861810566
Ni 3.915844264252564 4.840311652677092 10.670064702311494 -0.09754971082171587 0.9416374793552365 1.0194282623824702
Ni 1.974399752807242 7.373220475994848 7.38179071921921 2.951636456458536 -1.3040632662938896 0.47262583953452797
Ni 6.2081469173987065 8.15805354502826 4.129199599605563 0.9169317490784402 -0.3781077164502843 1.1351860115717805
Ni 6.8951485209911 0.30934770087664337 6.250172607074989 0.26472155281694404 0.8184201885640873 -0.4577617779385019
Ni 6.277470453650184 3.12257728608887 4.701862029551768 -0.2772957899375289 -0.4168321296036757 -0.4961164664573005
Ni 0.979715604756235 5.860118883443946 2.1433214563119782 -1.1793346810645366 0.09485442337773986 -0.10434925024205256
Ni 8.535360500980456 7.215956747886586 6.2381864896175925 0.8007461683230919 0.8270866059898335 0.059333604763310725
Ni 0.8081668842938606 8.95435748266696 3.5098723598438535 0.2690379208041108 0.6369244737470192 0.11379522614630079
Ni 7.298462380682831 5.480705800797008 4.827323244569429 -0.35988965078036084 -1.3054226085352616 0.560812363973789
Ni 2.0005758988704607 6.531512583852092 0.17440515479211774 0.8337164526015255 1.8497968815576853 0.5218688928310561
Ni 2.61869587672322 0.9821414113957143 2.2404073152936523 -0.7592169387310538 0.033023249003556035 -1.0447168617459297
Ni 1.1868211971896134 3.3197163861274888 5.4116145026230305 -0.03922089317383568 0.3774579986814273 -0.7821087557275628
Ni 3.141711071016547 2.9978644982359475 9.590835551463842 -0.3983271288209527 0.3172749014336278 -0.04367507229044737
Ni 9.269298642341381 5.23339575413722 10.741252724828897 -0.7915274779383014 -1.7051170500173862 -0.08911340712890459
Ni 8.000131652327891 4.2450393885217546 7.239471088292299 1.1439416462772234 0.23803453044406106 0.5140635378540243
Ni 8.542684932655472 2.858860136382991 9.605023699599402 0.09067535229938578 0.7489528378008844 -0.21723096343514844
P 0.5891381701569018 8.270402240900891 12.103510514749972 1.0050372837681207 -0.8048735602279042 -0.33889633635814537
P 4.957888055881313 1.713728964927686 2.93634303310633 -1.6915907333961768 3.4414277520287575 0.18248738930637604
P 8.091033584849155 4.002496333979082 0.10467543696379704 -0.836990752477423 -1.114818503659022 -0.26901812330976893
P 4.316788731412712 6.570109236003499 12.760226204519006 -0.7830896315835933 -1.8543446488293678 0.49569583398011413
P 4.985342921723483 2.712390307585281 10.525653988451946 -0.6298007182180444 1.1258323382710222 -0.054594804526744686
P 0.5133599197271197 1.5076482287877309 1.7109552712895213 -0.2909537470405957 -0.22515664604012836 -0.706479499128022
P 6.571519588700871 6.780044936182937 6.445816733254393 -3.052765657101394 -0.034569253334437236 0.145669192036762
P 2.67640750909967 3.8214728640957656 13.46000184260906 2.5973980904266813 -2.388464591113635 1.0963903788608216
Ni 7.859472476643352 4.238138062655949 2.5640315464082235 -0.6194918800928686 0.0006422615696892166 -0.47482798939216936
Ni 6.927793484759597 1.1847620822514506 3.1231940803351876 0.8197900723284203 -0.8941844280795955 2.181172226948437
Ni 1.5555438063904743 1.4090927822953954 9.07350783948145 -0.9615401318164343 -1.7657740015778107 0.5858711067146297
Ni 5.166864716226539 8.48488867911718 12.602356964986006 -0.4667259291103252 0.518291974113075 0.27099658719237846
Ni 8.131548316668987 9.347526205288931 1.2989113284010594 -0.6848025283752207 -0.8101504923561272 0.9695455186194141
Ni 3.7472036910521704 5.119298220919848 1.2683254795707246 -0.3535040589689912 1.0036620006871488 0.05063556276868054
Ni 0.9206462728497813 8.792279750685005 0.9005101972718396 1.0538327080042689 -0.7347498068276249 -0.39984099436231785
Ni 7.094130481887618 7.586268354459819 13.463304888626304 1.2938117637692106 0.08756971679086856 0.7990201867709207
Ni 7.504618335633313 6.005780110028497 9.126887808606707 -0.1905295428845622 -1.675557334082398 -1.8709287784402941
Ni 5.039820145247294 3.5684837972412273 12.50701900311394 -0.5514949432276051 0.04269471065504905 -0.2651707245392207
Ni 4.6855301453162035 6.445481069312418 7.85438110340584 0.40702285682273776 0.007516877202335443 0.8279700370360515
Ni 8.314179588627308 1.993777998869129 5.1658784095735095 0.7990127305717529 -0.4588876640128291 0.46698201098518927
Ni 2.3890434458345258 5.579599731936713 3.9991274715026273 -0.7023778182548226 -0.3221522841305871 -1.211166737973469
Ni 2.7691993142354137 8.577520644280556 12.3948367288596 -2.1409506604242288 -1.3177124816462082 1.5594877100796238
Ni 4.685276281830677 2.9671470164871914 0.8897595487773406 0.4338906277478592 -0.21100760823325596 2.1466991328722322
Ni 4.251743265009928 4.381335873195757 4.5482859036295675 0.7239704568239339 -0.8031123545624234 -0.3282910500384733
Ni 4.5224181546895075 1.2637888450608457 8.368035316729145 2.161345936251129 0.691959451134976 0.8703852687774686
Ni 4.32934087041932 9.199683633199113 3.2663806080534163 -0.559576691794475 -0.28521195946081207 0.9883143145864849
Ni 1.9253758930466012 5.2454777755780375 12.243655381817536 0.259862682062746 -0.7873684614646053 -3.21802691233747
Ni 6.629691936291796 6.34387926099376 2.65692019576252 1.3287322297954796 0.2059967852822259 -0.3722972804160943
Ni 2.832185665700034 0.27451669042721993 7.2183204990073815 -2.2849164966166393 -0.6016327404242606 -0.3814097842403238
Ni 1.0680977071248625 5.8725017801268695 5.833411504531385 -0.4589406287379515 -0.9196658601801516 0.4029422589954609
Ni 2.7436813327643015 1.2101860402094047 4.618578822301705 -0.7848791193838482 1.8751960383570803 -0.2468163904017491
Ni 6.25893841920672 1.1788103938685421 10.905892597544412 1.428242663887992 -1.0656626107596614 0.1513230478884297
P 3.5765416123188776 8.754341263125704 0.9551632447652566 -2.1842950888481347 2.0742876118790408 -2.48167299424752
P 0.03083783184559832 4.778340755154578 3.8417123655381813 1.5285002605591742 -0.2346818119217442 1.9228496356793017
P 6.2718290428606975 0.8184728015711216 13.135455240830407 2.1504552574805547 1.4597139950233957 -1.6187650076837026
P 4.360425043869392 1.2902282569609076 5.9791159819319875 1.1300240077548667 -0.4993462862485078 0.9333850095384569
P 5.5695298136774785 4.562782448888286 2.461289232874958 -0.6074704301519603 -1.3984842016786367 0.20512698108276284
P 0.8931641401887961 0.5653191935685569 5.701922442085156 -0.024125689403610064 0.5881820142359935 0.41441683529396367
P 3.3086968303853577 9.019224304394744 9.23864321611131 -1.6915688790193062 -1.303987932971264 -1.6824944275218636
P 4.009830168005416 7.089090821582342 3.7283877055989687 2.3509953905235834 -0.799748580296513 1.0206035136374938
Ni 2.7123244911260698 8.446282624614458 5.154443269903219 -0.5731994247842321 -1.2426892340617826 -0.3357277088221766
Ni 2.15149303984055 1.6220466372472084 11.304144231287712 -0.6561941206099086 0.11525278452843375 0.7967280483026343
Ni 0.9961039030996942 3.819742831453656 0.9368794323965297 -1.2144094132804828 -1.0430345889475003 0.29262162166132183
Ni 1.001406829241812 1.3131699941714874 13.199500297053188 -0.4263164149450271 0.4837178356826315 1.0622967796112222
Ni 8.434633111334168 9.440524862153621 12.713589601757448 -1.2092767200396077 0.2528512837419194 -0.45184592667469925
Ni 8.71998507141773 6.910370927771399 3.8570146923046638 1.2398918738223033 1.4525521871676337 -1.2041157446639585
Ni 1.0247622699102876 8.402533483941989 9.892896430070731 1.5634904034811137 0.21431764644309542 0.6111298812814184
Ni 0.2043290780898192 2.411618491343789 7.455441217546224 -0.8386303449633751 -0.7292802990726214 -1.091212691314624
Ni 6.367281713418816 5.945595659255988 11.751207231651911 -0.005716076548170801 1.9144246448403994 -1.4351735866798703
Ni 3.5243303554621765 1.3458525673452477 13.407474666748149 0.1275249170275675 -0.40153458001465686 0.07393104296151137
Ni 5.582514460844615 0.48690358359468955 1.2146295914412573 -0.5951157652413492 0.31002001964342735 0.6745921635011222
Ni 2.5988099036902783 7.601124069538802 2.4327897658016013 -2.131209264766749 0.07302370065589359 -1.2017464731008336
Ni 6.220200731785576 8.047933206417476 10.423834045582762 -1.8232769808902858 1.5210168076979353 -0.2223412880785203
Ni 8.184483554577005 7.292708141677555 10.679367388703357 3.5183027081099407 1.841570379882835 2.744852399388324
Ni 4.807995771204647 8.499932441222478 6.51133419769323 0.7122894209415797 -0.03069151554658585 -0.3647804032137589
Ni 1.743525016247492 6.321999989481867 10.178194796751791 1.1765005540498512 -0.32697670210242397 -0.8922144488374184
Ni 8.801249593840287 0.549057826967861 9.949689452723627 0.1369742353659254 -0.3224767573495414 1.628291459116899
Ni 7.610122119748032 2.258661040138169 1.3757040925378174 1.0916742043320748 0.5919309397554644 -2.3166930176972875
Ni 6.076786667165505 3.995124890547486 9.13597047997778 -0.9252703508511225 0.08799883390848716 -2.0174127530688675
Ni 9.229827571517605 5.52644823994843 13.084277302383315 -1.0762614693214303 1.8155934962030988 0.8363757446012434
Ni 2.5576276049270246 2.580306076300762 7.4726569228054744 0.7188498477679168 1.7208907679118752 -2.286717811491436
Ni 3.805733327993097 6.440902124221618 5.684816744336301 0.14397586349473912 -1.0969297963040592 1.6785215589170446
Ni 8.300621398029909 2.2930736459540384 12.046896136772077 0.4821224661710536 0.5229788380657833 0.9119715768596875
Ni 6.917761175905627 8.18483144157569 8.099978981891018 0.28349857631413117 0.21625728666796948 0.2767394032134266
P 1.1422352472500354 3.359328492221002 10.746550009560224 -0.9231833864151069 1.0255032649319564 -0.7303020554689164
P 8.50841336210934 6.8034473886079905 1.3935506955703594 -0.07709915627684787 0.9034144313182957 -0.4329426620122931
P 7.16588922712989 0.9063311929714584 8.847560875246316 -1.2709723972771918 -0.16417804947422693 -1.4803794937925472
P 5.32974164807034 6.16560127769466 9.891505822311123 0.30125307208407476 -0.0867680468251796 -1.34358600697886
P 6.630735597287851 2.619344638964011 6.983084951907358 0.3711621383703866 -0.23417196216486125 -0.6712348169931149
P 8.223973430103413 9.224957153536014 4.210500791198252 -1.0865008876612514 -0.3285101080278149 0.8250456643004049
P 2.893507800981756 4.469859010834121 6.406142571642196 -0.07560277423697948 0.6042357252647464 -0.6284560312646919
P 0.14739219946179152 6.449815553269008 8.091364547615472 -0.30617981996173077 -0.008744578961849457 0.3924578145243693
