# total energy = -381172.32505338144 ev
CRYSTAL
PRIMVEC
9.20369117898075 0.00000000000000 0.00000000000000

0.00000000000000 9.20369117898075 0.00000000000000

0.00000000000000 0.00000000000000 13.47053236379623

PRIMCOORD
 96 1
Ni 6.600482446901369 4.562591912798122 0.06808706759155184 0.23422441266935148 -0.3005329060885985 1.3376112774526643
Ni 3.3312116447172193 6.9520266402733055 13.151819943301426 -0.5239573999289686 0.9097182620491365 0.7726164999664114
Ni 9.068829623689856 4.768460080075938 13.280557495904034 -0.11411378582798412 0.5417692312994088 0.5204059351322844
Ni 7.538053277213596 7.464653838996473 7.253194429246318 2.239966671378826 0.09749623187596111 -0.041239466265761235
Ni 0.5921222416965536 7.183968865039412 8.319684124880013 -2.419541000803465 -2.6991862648097773 -1.5402316900634894
Ni 5.841361987447045 0.6053461053743419 2.6903079983261966 0.11551966503657524 0.24456667513562397 -1.3872286833694754
Ni 4.015947870983983 0.15265058337072648 5.810716456483841 -0.3864231782945151 0.8192493693336019 0.15814752700943085
Ni 1.9329040273016527 8.253713906290333 6.3499009064892045 -0.2539036362658337 -0.7783577733255628 0.5909271810812985
Ni 2.4634876277754922 3.0275358498615526 3.111235139026484 1.5484337662583074 2.2948782358150415 1.3622815265058346
Ni 0.6850417888183395 4.787465702636234 2.9172866723674753 1.0447698264710523 -1.5563717901584617 -1.024684625685403
Ni 2.798446769402319 6.290769030544707 8.215017906536092 1.8749366140481063 0.702954516693899 4.152283525847603
Ni 4.220849650673989 1.7940479364700888 3.8145048384892135 1.2539308684138726 -0.11075566798902861 0.6950188067865901
Ni 1.9035166409408664 8.432983405675047 9.354476307633483 1.471089326739873 1.3398663920354281 0.5207373503297742
Ni 6.557841745050594 0.36057485528775374 9.922555746514416 0.8298561983151709 -0.3657322256040669 -0.2722605415064666
Ni 8.920282045906239 7.947194170819106 10.582881022313057 -0.6925464339866977 -0.14476390661367328 0.5704406310921724
Ni 7.686656077145088 5.646575064509468 2.9046242338597494 0.1821472323581379 -2.9152450623136956 -0.4647916882020898
Ni 7.537381407747784 7.759926663683835 2.371258357502143 0.05534839486331758 2.04523414615651 0.6479413936828131
Ni 1.9117171299002966 3.8085242798743564 0.8488426442141499 0.3129371932902223 -0.04045990778725935 1.0130784089050422
Ni 4.392811419156586 8.046170667193643 1.811651836843492 -1.8948816897114653 1.3690702672928938 1.006039242670074
Ni 4.218631561067679 2.641413388228584 0.23647136126098303 -0.6945051003749652 0.43505996546561204 -0.7898961129824654
Ni 0.29751024204542864 3.7635550441215213 11.15982453629705 -0.2049845419676276 0.09970532371213796 2.549793601174841
Ni 3.977724940963206 6.71391794232783 5.663294490147741 0.6415275197366693 1.4947432187133871 -0.7370699703203694
Ni 9.161013795875775 2.305055285522258 13.294041824045967 -1.550386004888672 1.1255983678833454 1.0255749987101561
Ni 1.5853634396506497 1.585611939316087 9.499971941377877 -0.2421146140507056 0.549815241532337 -1.1694490465197085
P 0.7374724571182116 9.019958022820525 2.865142238867422 0.08558251115751067 -0.017911075952465928 0.7573755146469408
Ni 5.750696424327688 6.508252256258888 7.946064877895063 -2.1878537527336706 -0.3566783429319148 3.137990270698854
P 1.1202272880999393 3.408182115163588 6.343650679718891 -0.20344085162959158 1.7199695416491865 -0.7791177914200389
Ni 1.9704826989305566 5.881186359756197 6.416041393368165 -2.7120975735548063 -2.493171224695106 -3.2020747598835886
P 7.001395240473511 1.932278176292403 8.562598070059739 -0.5014970140429235 0.08513076833207273 -0.32723715485266225
P 2.595551394418437 5.437899771381342 4.279211177655631 -0.39042715724758564 -0.6794150388110621 -0.7018286306195719
P 1.1903318048271894 1.940211758203771 11.50572042431051 0.7493513587908837 -1.6247654482415115 1.875014004253261
Ni 2.5070118839922664 3.449617133452426 8.028410304067927 1.1709189461970158 0.23962758596279374 0.7844286621099908
Ni 6.70892954163646 3.736726283945608 7.251511074105263 -0.7347891447059925 0.6119426069907009 -0.3435253504897245
Ni 5.31153308966083 1.5961041474123276 11.313078881817876 0.622865938771424 0.0058055509381835495 1.0858812517993814
Ni 2.380875294554566 4.877726303337841 12.318613450258068 0.04122686786027094 -0.3190705598814699 -0.2903955605442805
Ni 6.672216016990929 2.894800213752795 2.9900004355818166 -0.7802292793166626 0.1869269131349684 0.5152588437137062
Ni 0.23388052215651658 6.714019182932267 1.5988440863160567 -0.034240152129792645 -0.7034656520023627 -0.08565527337697507
Ni 2.7010901226987807 0.8969116832010321 2.123346807939733 1.0376702393117936 -0.6820987562908124 0.5304481498596348
Ni 3.800268568767051 6.218013850719459 10.66579247550164 0.47728287869056507 -0.027095313554895268 0.3691829031568287
Ni 5.856014264016531 6.61278778218617 1.2249588526521773 0.9342972369400814 -2.1195356850835623 -1.2346481089248609
Ni 1.9922862436498496 1.5698276087151637 0.048589047546037954 1.3462424707651008 -0.28760771338649826 -0.5714071087704998
Ni 0.09738057630095073 1.8161367956200691 5.296559604264536 -0.5974063610477389 0.3311588585045716 -0.8259704901075194
Ni 7.423559357286197 0.709033050962612 12.218459801764663 -1.0828581487023414 -0.8922157343889988 0.5387849518601043
Ni 1.9427427733147062 0.549839563437835 4.622426950758894 -0.07015769196200822 1.048716469823626 -1.3896732882552258
Ni 7.677811329793784 5.55760298059161 11.214218351953875 0.8720258897046853 -0.6702973927805101 0.450087806333012
Ni 0.2976759084890535 9.155509988470904 12.584670077243056 1.046148966206766 -0.3094332939020219 -1.2503860884854077
Ni 6.233126311854571 5.938921115359458 5.913361544215537 0.3083986819899205 -2.071442429120762 -1.3290726438540337
Ni 1.3686073055501555 6.286885072810835 10.507783503048781 0.37615033561359734 0.32556568068751024 0.7206660750410492
Ni 7.943282602011297 7.042747425540537 13.126495066285973 0.03678888669357535 0.5527918076621576 0.15822825964869522
Ni 3.182765307538039 2.642609868099208 5.741626186539228 -0.3594011411797165 1.0064087101943509 -0.6485607724343669
Ni 6.207935808732281 8.50017955594755 5.497593992865033 0.7056523752410363 0.21222271158727965 -0.6594514512049418
Ni 1.5184894185740843 8.401911743804074 0.9261251197960123 2.088609170708035 -0.21288888441636886 -0.790261209631368
Ni 2.6467607328811416 6.322899116916616 1.9877120090675413 0.3267859262478566 -2.0562001582497103 -1.3073545354506517
Ni 4.790456902312794 2.086633283294203 7.320695221701264 0.9282399750024078 0.41229747495811575 -0.46770834762825253
Ni 7.563197761879323 3.8693698831412395 9.622769431607407 -0.4911372680751542 -0.6550144984795107 -0.2960396462039353
Ni 4.302992595637978 4.931595508589855 7.060283218598228 0.38505278030954976 -2.316679647960849 -0.10783335213591108
P 7.864057227193368 5.929551757603341 8.899239646458488 0.1754659636832204 0.3424308318739651 -0.12297509287335597
Ni 4.96293407750889 3.3159243134471703 9.359205164229842 -0.44750693297971317 0.12303782779049134 0.14198043033126515
P 4.780001508981803 8.536110766831518 3.93738240083316 -2.061998510099042 -0.3834586963495525 -0.32576468407219383
Ni 3.852950497839754 0.20972083246122564 -0.17985577452132098 0.9832561833372874 0.1387421258996256 0.7821038706315563
P 7.509715111662433 7.0596177917163345 4.722404808748229 1.9344787352777972 0.2144266612171339 -1.0084262548450116
P 4.236597166509662 5.235851135998209 0.26357163033061515 1.0625140378283509 -2.4211926774742754 0.6954569227652733
P 8.155648575355732 3.5531310496440214 1.5651005928570678 0.4188674148661496 0.2969112501756112 -0.03577767182024161
Ni 5.845172315650417 -0.17533952319428125 7.678850426542963 -0.8741107972581721 0.6409639339237154 1.3896920573083036
Ni 6.508896514650762 7.24184167601236 10.225346146265819 0.23738866932994598 -0.11015942916592641 -0.40339785847564075
Ni 3.586006635012242 0.8384415526619028 8.846071762484486 0.5132325573122968 1.4410421296455054 -0.6367727786605033
Ni 3.2398189899841756 2.3323994524116713 11.244015302578067 -0.35324206355685617 1.0688415227082755 0.055748201404897536
Ni 5.712777216120221 6.383210906087374 12.292979329214514 -0.5785599177651971 1.197108202997874 -0.04019225594816949
Ni 8.859325998343605 0.0919807706079118 8.710181100993807 -0.38329723107102376 0.5256831243708237 -2.127248223236472
Ni 6.38737097456062 2.0265699937888817 0.7554325403454081 0.9797409710951772 0.37247905740959725 -0.6285624749355692
Ni 8.670852807646398 1.5558103868462385 10.442828451610868 -1.8268001635521958 0.1651956921054639 -0.5074414045518164
Ni 9.004854765376725 2.6802989840238616 7.877109902212743 -0.42056665694544343 -0.6122022884099908 0.7607925107482898
Ni 0.6699707442941343 2.0746776882792766 2.4466936522375886 -2.1072854069613 0.4104334251661835 -0.6004230363868757
Ni 8.065783733380563 3.719644232869623 4.684404608057213 -0.2811858690205545 0.12371325659096111 0.7866189848930905
Ni 7.944028101007609 0.8034408349696278 3.4340564525503963 0.890554544636492 -0.1364744129113714 1.471561895500917
Ni 2.5970884108676233 8.352598365751744 11.593252130537962 -0.8117854568563889 0.7259568911263432 -0.9164622656411895
Ni 0.061846964881682384 5.841987838456294 4.777216471990643 0.8115394022838539 1.438990389322799 0.17956353079136173
Ni 8.751854494887638 5.052182272166124 6.842464978520272 0.136201618865959 -0.1334929616855443 1.1360763845965338
Ni 7.125092851713401 1.403967887572749 6.339393972486863 0.5951898130123944 -0.1425296179665158 -0.12438739983985028
Ni 7.406495713592838 3.0003481457244514 11.962075333979973 -1.5113088363815521 0.8863500196368413 -0.5058961715518836
Ni 8.869496077243909 8.666223350916216 5.816063801136399 -0.0408838826985554 0.06606629550145396 -0.5718722213323765
Ni 2.491927033931092 7.546888820873587 3.797490894728941 -0.21520981924006163 1.6064910754123558 0.9995844881836656
Ni 4.627045363059502 4.027075133780786 2.10163161865704 -0.11663963757363138 0.6338669178676181 -0.4577571499528117
Ni 8.617903971525633 0.45140700521986654 1.215026228987736 -0.9424915998254156 -0.5861989223676937 -0.6377590538331727
Ni 5.69891645700361 6.504165817316141 3.523096643783967 -1.636557298670117 0.7569651665823995 0.8792103232682664
Ni 6.404701525302042 8.83422753213444 0.5415451968270175 -1.0091677609967267 -0.4272268425744384 -0.6271553101753974
Ni 4.616783247246074 4.4337954565711115 4.442688983486373 -0.3754391684791857 -0.17758789512222967 0.4333049304477183
Ni 5.214443350005353 4.126033222772699 11.651417618894648 -0.8099180646303471 -0.18359476343794187 -0.11694919839425019
P 2.9601004036149248 4.331468816558828 10.228134864733503 0.06986381487067322 -0.6136858149340528 -1.188045064354341
Ni 0.7424801855613383 4.479951968503258 9.293549711883049 0.4629608056409382 1.050655338717552 -3.6468738070138356
P 3.719957158374248 8.185394905677706 7.640109328701292 0.048059574511388196 -0.15269267454244673 0.13950008711157266
Ni 1.6488412986329057 1.4143128366079898 6.965935258584742 0.7659542574548873 -2.2061954884656525 1.3949533057072427
P 5.238050818221895 8.578245265660106 11.866354183222665 0.5901571356844932 -0.031680104712100275 -0.18272213102500143
P 5.829857373306431 2.8176272620975515 5.321911171984795 -0.14813822240254487 0.3832154699904949 -0.33419198890394053
P 0.8881608135011149 6.724042002771571 12.627182847784585 0.19259928092939735 0.7337077387163558 0.21025993143395402
Ni 4.500411774290927 8.211772684979307 9.705492209124083 -0.13701717278871883 -0.4267987538980843 0.47945520375153555
