# total energy = -340891.7615002395 ev
CRYSTAL
PRIMVEC
9.08191630943013 0.00000000000000 0.00000000000000
0.00000000000000 9.08191630943013 0.00000000000000
0.00000000000000 0.00000000000000 13.29230253301712
PRIMCOORD
 96 1
Ni 6.248921647424749 2.0083931839787748 11.325294308060693 0.621126330372498 0.5682040284521699 1.365942006076557
Ni 4.901455856572885 0.34516822760767163 6.053952879868068 -0.9683049613440937 -0.41020254010230006 0.030362928562573513
Ni 2.9342764097806042 1.5746862603690293 4.980466713949497 -0.15154647675314548 -0.23611314505163208 -0.3149629654709995
Ni 3.4430090457961735 4.34272727009199 4.97600022740293 0.17120384597275676 -0.37610894085270064 -0.15087259061457242
Ni 5.284385784896229 4.570783275929374 2.6084281431947107 0.6463609365695707 -0.691591526272596 0.04401882878311129
Ni 7.375633293324627 6.211949165255023 2.6412738024958733 -0.5361110045723669 -1.599095297168917 0.6262716220188633
Ni 4.926313062099424 4.640823016163452 11.650025498914118 0.3189044666172508 -0.3998762184756275 -0.6337280782969086
Ni 5.677650934224032 7.907751864389827 12.672602073565036 -0.8037294193211318 0.06969180806918321 -0.2400926985246704
Ni 1.7523648752470748 6.622851396472682 0.4994145896618138 0.42452898402730116 -0.7142452591163699 -1.1458797438402006
Ni 2.8728554083279247 1.762854488832443 0.3508353435187277 -0.41422168856402203 -0.8864667477203636 1.5369792445644626
Ni 0.5313802112517881 8.904183417751085 4.451950939169418 0.6993580575918924 0.9225166993653854 0.5557881712863202
Ni 8.448198552907652 2.194263687561584 1.3698381840174014 2.5427822028540144 0.7729733690851978 -0.18540404873253877
Ni 6.8075957424065 0.8266487567092894 4.8210654560762585 1.021971340519298 -0.3731094919047445 0.13836597350712945
Ni 0.5176964876248841 7.259003321321772 2.4752790732261185 0.5781441703840172 0.338759553669965 -0.12116323647559776
Ni 7.485224780021283 3.777196328134522 3.9181585708888216 1.0428890645085718 -0.003822973290515996 -0.4385697783910834
Ni 7.695589212469666 3.6473975771716804 12.637922775317653 -0.04575380919634701 0.29436405827372525 -0.31596878102769455
Ni 8.269302961215374 8.960028122457949 6.653980573550785 -0.7982647966621348 0.5885319413762444 0.983383710054087
Ni 6.926005770048085 0.6590256398067587 0.3910500698875677 -0.5467965093106711 -0.24868815350316525 -0.2560268532564236
Ni 1.8072832244684784 6.490609609964851 9.064061476241838 0.5706064672460754 -0.09281425301925951 -0.1955496218069729
Ni -0.21080672178310825 5.043687751257258 1.0604953925224587 1.0891583798887565 -0.7003296774765423 0.39139389203622915
Ni 6.230439947298148 2.129464213161929 7.376218168748781 0.9112403551206177 -0.33529730615297737 -1.6368907707501357
Ni 3.056855037106764 4.394012852703741 0.30181933184635495 0.16354427254496995 -0.2645562308836734 -0.03635179915615675
Ni 6.090360466829993 5.451275082943611 4.891687347159533 -0.5321077969502449 1.266805924604328 -0.09535141761881642
Ni 5.171533890167412 3.048844786732482 9.293499749774195 1.1853947712156876 -0.5844420875775871 0.6568435812684494
P 0.2790600490368895 5.752885530709911 12.280014435209933 -0.8978148257433313 -1.204446645640816 0.8160784278047881
P 3.808647005057578 6.220667805118186 12.726794777656163 0.9032725064237926 1.0885564846386995 0.3185367988651869
P 2.2601166642780384 8.433231554475888 1.5777568563458368 0.3744189547447874 0.8857147000456874 0.4765287741333599
P 6.522459891214968 7.7266947765648055 5.779958723868337 -0.5599279044863067 1.0169036961884035 -0.260274572789184
P 4.775943770209432 1.2275844927333708 12.94437660916627 1.345229199009238 -1.3961141587845634 -0.9320452076811109
P 4.0992683338296825 6.2539167015130195 8.382670708802761 -0.7022993996084034 1.160856162644375 -1.3157694989872244
P 4.710018138160786 1.157372196085335 3.7622002675698814 0.6092411488991378 0.28901410681572165 0.4162477178551154
P 0.127540986514943 5.380136430810114 3.5604890851856874 -0.10188459075164388 -0.4351795217626118 -0.7930050909250924
Ni 1.7244198181023318 1.1806491481366757 2.8215307734751187 -0.6462640059803901 0.2786723585700814 -1.414166902521216
Ni 1.6640795647160238 6.439169634772188 4.55205545586497 1.7818891619721182 0.24505132808152633 0.6115350871396371
Ni 6.232501542349126 5.782247366832418 8.959530433432427 -0.0018753626458419316 0.05479432213206047 2.446746100463348
Ni 8.985412079142888 2.2491547910334155 10.245985725458501 -0.29329807890305615 -0.1105198978291387 0.8712905542005575
Ni 2.3429437429780884 5.298689803421731 6.90109770578901 -0.3225742021593541 -0.6042483236702368 0.9320151257741239
Ni 0.7854068655815704 -0.05338804628708806 9.08530226260847 -0.4878488271318695 0.7914809409710821 -0.5549101395567411
Ni 1.7988461240175633 0.8555555888139372 11.499078597133192 -1.5455759850945383 0.824143978421742 -0.5218920327595076
Ni 4.058417873304154 6.879152162700106 1.6942505996008304 0.3481880460727165 0.5684254004343565 -0.8884860921432376
Ni 5.728627731673964 7.961162615468225 7.873881764904742 0.05194888226346537 -0.12215028297921543 0.5520929818229201
Ni 5.483234347192018 2.817392144115073 5.136265175537612 -1.1931530750048678 0.36228617603699537 -0.6406137496731483
Ni 0.8097681984658921 7.28678490396908 6.613943852745817 0.85302826555626 0.07813582507147834 1.5845040296183035
Ni 5.0727317203014195 4.861440932367576 7.143070840507969 -0.506868819877798 -1.328033661066558 -1.1707649371176545
Ni 8.426456444748888 7.28412390242751 9.357315652614288 -1.1839999477506897 -0.8955378567836964 -0.7643529744060384
Ni 4.539368926672415 0.35887283964258115 10.803877867427524 -0.06922412440414528 -0.8914099506582518 -0.44873000675353686
Ni 8.434539350455363 7.014091278415604 4.8495899394952415 -1.9979459025935074 -0.06688827718211705 -0.7460253797414442
Ni 7.457842801701036 6.270127922508589 6.986487701332169 -0.02896193444998883 -0.8460459207011559 0.31804160439632323
Ni 2.4165980859887686 5.212484251774707 2.5928626464640074 -1.3605534880711343 -0.5452823866589899 -0.6118713874331333
Ni 2.286445140281486 5.297581809605788 11.376722476761874 -0.6407736722897803 -0.2837716274698597 -0.009758622048660612
Ni 1.0314423415617724 3.385311630118387 3.7687801160916123 -0.07731590027334426 -0.37021520107608497 0.2329013229825537
Ni 3.4786010766542326 2.9801582520605003 2.8847618008910567 0.4992398425776306 -0.7534972626384572 -0.33749791334872203
Ni 1.0679970555713887 3.247121188287251 8.236322889549655 0.45300369442822624 1.3079237776905606 0.32017819112335183
Ni 3.6534279697437015 2.7093627470605677 7.136570912851651 0.8889460624987916 0.23626843968257377 0.6792654006070753
Ni 3.896932315588629 6.776817127306229 5.6565391110720435 0.7405314465064085 0.7986648603140309 0.5833177441651567
Ni 0.9585962891217394 7.423849188151224 11.212960990765403 -0.5120987008181697 0.4580255731228499 0.8641130626155117
P 0.13139626007943547 5.4409580257722014 7.972842868309906 1.407118737425183 0.960217556350269 0.5778790896480887
P 8.478005402939841 1.7516201580920963 8.12085267828693 -0.13477414239081303 -1.9627117619815617 -0.4190286230343622
P 1.8865865195571665 3.3016126874320206 10.465482024971896 -0.5080494704494605 -0.27553792670615773 -0.5813091983755602
P 4.1194483523462955 5.953632213559242 3.6322416748762154 -0.21750941390751574 1.317434288284157 1.6516237060849361
P 6.828547723827664 4.074728995381489 10.63775054217652 -0.5217423945555207 0.22725363777847313 -1.0742999747196853
P 6.481182580612806 7.947303610852405 10.398608240838131 -1.6838691963822032 0.24985903388281486 -1.2373914759979527
P 2.4364784012600853 8.549380184902965 5.6371855469591265 -0.6805401535544409 0.05486708435152487 1.6440469221789424
P 7.062352582824822 3.8910926432636144 1.5012462505883182 -1.20876918427557 0.36556690367079625 0.06635374483488572
Ni 5.049173228837831 3.1415348267777357 0.6220131972043262 0.9859743535993988 -0.2702512243859217 -0.03236067571889265
Ni 1.423653988572776 1.19894012801627 7.059462716986845 0.021983446249626653 -0.9452357382294561 -0.6868113312751333
Ni 6.678314660685534 0.8605206725776782 9.308652927494705 0.6324651524240849 -1.0291740289153244 0.31802746332893617
Ni 2.779983729952189 1.4514991446357532 9.352477715681886 -0.027465038189488183 0.8357206275157479 -0.42531419893275785
Ni 6.580202716475377 1.902416300058722 2.657396928901158 -2.143647747640418 0.5897498729437455 -0.48009180889427
Ni 4.1685906026583535 6.79252884289297 10.501397372058214 0.43914801949205656 0.8095825356677994 0.22822088678774888
Ni 8.194368067974791 7.224828069441476 0.2924004762191815 -0.6207990289400663 0.005383375799100406 -0.2700244530870962
Ni 7.684927042470339 3.7953692430993025 8.286833784681898 0.10757675604041474 0.6998000302253173 0.923087741377507
Ni 3.0818030617985444 8.56558232398201 12.758258169262351 1.243429968882549 -1.4855399549475643 0.7224360224572783
Ni -0.1892444355715229 4.894735238345031 10.240536575544025 0.5700313114688956 -0.45303506188679393 0.16023372011449824
Ni 8.49916626844106 2.3122377832100103 5.804536206365933 0.5510393437474251 0.19783250430387864 0.4305080844288715
Ni 3.6211871660830464 2.576249096566419 11.49927749110507 0.490642844937239 0.665912376338937 -0.20494391853767932
Ni 1.1404253398513116 3.0333237913927475 12.669651358886348 -0.5738324303825407 0.8800474744575811 -0.6897657859177669
Ni 3.2652123660033143 8.62729394676346 7.802090122973161 -1.3226353728691222 -1.7926584846734805 -0.07330292245920925
Ni 5.691700659086859 8.042818126936663 3.7802242391036662 -0.758465662387326 -1.0818209656870788 -0.3252062404655625
Ni 3.1736666474401014 8.390419399981148 3.6702440463797776 0.2927468343852765 -0.39267378718991724 -0.8193604409901696
Ni 3.4851945480507496 4.431611987113633 9.335476367948717 -1.4347087312283098 0.37159922590780514 0.040626515272110676
Ni 7.152063754250161 6.252336448037821 11.449962684379052 0.3756764813009723 -1.0355305672609714 0.2410730601600687
Ni 0.5818729425509841 -0.12164318992417411 0.19614396755490318 0.47648583671056643 0.7448861239306784 0.34643918170240984
Ni 4.702198608033511 0.2674769727020163 1.8074875675902713 -0.16242095757380415 0.011784908450070027 -1.3559972361590196
Ni 5.963567830236638 5.628327045581491 0.3301994127926034 0.2859020435493012 -0.02940879217942032 0.839102142393471
Ni 8.17021017002061 8.86405042863096 11.274438300100531 0.15352699751828397 1.0012238235593014 0.724792695614913
Ni 0.044337008279141825 4.787559541443792 5.711742632472305 0.11429916236591281 -0.751467633802938 0.8254400715253463
Ni 7.792375196867301 8.811575114954548 2.7083065201688115 0.9570389015119711 0.1566118070911948 -0.000321902115792994
P 8.528083090653885 1.596065091866827 3.586821193955745 1.0413451170602195 0.5042411524469639 0.8191465252071507
P 1.6765581180201758 3.1700611265800225 1.5215961009439325 -0.02392977134272008 0.3003747832441795 1.3842276917596226
P 4.646771671486755 1.0313696862295791 8.324092347222134 1.0059929628131707 0.31047381935139434 0.08043721951114535
P 8.62966432697626 1.577710538571564 12.493621111857431 -0.5521881126398878 -0.5143461020914497 -0.654983131020943
P 6.439605566765346 7.695589212469666 1.5468256650479608 -2.0825539656528904 0.682085900775006 -1.6726720421148031
P 1.8786035149324578 3.1385832039073938 6.07704183624736 -1.4650096962046961 1.1052704549592707 -0.8124914817844782
P 6.944814419169553 3.9549566802612843 6.2823412838502355 0.08661300930455405 0.6968383764938322 -1.3269887647418113
P 2.4941939807709206 8.347471016738545 10.149285111076194 1.9748183154371084 0.7781106903117632 -0.056802867921657015
