# total energy = -340885.74849516654 ev
CRYSTAL
PRIMVEC
9.10930326693168 0.00000000000000 0.00000000000000
0.00000000000000 9.10930326693168 0.00000000000000
0.00000000000000 0.00000000000000 13.33238611364075
PRIMCOORD
 96 1
Ni 5.901361767072361 2.9891449155896117 9.84452672201437 -0.47461510205041485 0.5145201657754687 -1.4090228964264315
Ni 4.856224102279852 0.5173619547830526 6.300672620140021 -0.19677320980142887 -0.31857485119197393 -0.6561221297213927
Ni 2.490018874546705 1.8021207467676787 5.019309776325796 0.8852267046656755 -1.0404840546115048 -0.860968089228627
Ni 3.682945871733498 3.0938472446416285 2.9859748781344084 -2.060731470461161 -1.960275127515611 -0.46006008705437546
Ni 5.211250078656512 3.1083037085537177 0.4348917907114037 1.4493118258534652 -0.3785157505219804 0.9428903779257309
Ni 4.784278826931599 4.875472059586875 2.9140860804649544 0.5117660000690992 2.1522192913595126 -0.790657159518206
Ni 5.359795483202469 4.836128979790837 11.578764031655849 -2.1105000572438555 -0.29841868795907317 0.31987197273684265
Ni 5.595635338705925 8.219934449250175 12.779424827116975 -0.9552861804869227 0.45305254538829076 -0.27055847121369536
Ni 2.454829636933346 5.761779916710079 11.637386040389218 -0.5746592971592104 -0.371149025744264 -1.492635685452081
Ni 8.14624018771974 7.59964556857608 9.15277626998303 -0.397549884335296 0.6686308037113646 1.152216998912138
Ni 8.24655183271024 9.238655135249326 7.026927290196699 -0.4161610716785801 -0.18626562540188565 -0.29994026680992214
Ni 8.203574141004358 2.6017171483274453 1.1869139462552434 1.0106870258547302 0.1328303884008809 0.6007855619326169
Ni 1.5330865910149145 1.38376689571122 2.6270801807599784 -1.0682234295083022 1.4070662869206927 0.6733318087314597
Ni 2.0155152795998132 6.530513999596779 0.6313967647915505 -1.049250230839909 0.878317636250668 -0.5912251719376914
Ni 7.7736879123091445 4.2182631737233045 4.2066879823602985 0.40133094864428304 -0.43976482714044907 -1.470141875224939
Ni 7.673057441712516 4.319075830380576 13.047646433039267 0.1436346781052365 -0.3791014478221213 0.7706372647528534
Ni 4.59592576813496 0.4275915952614049 10.397514250026022 -0.3892691323837425 0.5618174081995357 0.4353343021729212
Ni 0.5175332096800578 0.509352144626846 0.4394646608335642 -1.1243634670349796 -0.6968414618176257 -0.25841360832104526
Ni 1.8312522978646293 7.109692595686591 9.28524648746808 0.5043766495835637 -0.1602550602707369 0.3797889608074491
Ni -0.11242428523240643 4.890302004923283 1.6960793501699294 1.0544947670683 0.4170401318494237 0.24317005189841348
Ni 6.640372194165017 2.058684266669372 7.082949503844681 -0.07875828914682564 0.39288641742135566 1.0537602028951205
Ni 3.550241545160522 4.651929763176878 0.3809911337396193 -0.7193005621520902 0.11765599465328769 0.4474616815640745
Ni 5.942718002838513 5.694143341696051 4.737702960528 -0.05446676358931265 -0.08937720231325251 2.244667676398921
Ni 6.881841598942367 0.783409170071561 0.6139260325061091 -0.49547934709393376 -0.5391824444088392 -0.11308277346030848
P 0.08374637742645896 6.034430465766624 12.771105300657673 0.5648880767050595 -0.6319162218991503 1.9798576776332288
P 3.994329177282924 6.647277045863419 12.763519984022768 0.847026025226238 -0.6748207345721604 0.705211945269508
P 2.2173956533992567 8.81827901891972 1.4463769573120835 0.8984231487512914 -0.8590449040639851 -0.2377529946479002
P 6.59617385585282 8.078221021978361 6.282207151963465 -0.6922080768106724 -0.28253441262864887 -0.5512301196019925
P 4.521129280937631 1.3248752516080973 12.835661109386212 0.27352706692371603 -0.7988695201256694 -0.926990675976339
P 3.9216915949042233 6.05785048386239 8.51238133565628 1.2843696445197041 2.073220346956791 0.06757090507143847
P 4.643285034599328 1.4095280046862595 3.9810769632316907 0.04790068033602073 -0.888550883942902 0.6372201506105671
P 0.4281308660009107 5.606356988374816 3.779158330359512 -1.0485169522183104 0.4729330863623017 0.24955590082009924
Ni 0.47426948585896417 8.951365936220048 4.805018888075294 0.3605905335021274 0.5478074670736888 0.09035396440422502
Ni 1.9362279060076122 6.683923771961927 4.9179041040411295 -0.15004803783074805 0.8595814932937454 0.8938607261915896
Ni 6.9723243059611315 0.6086399039565281 9.530056273667334 -0.10935647364865682 0.3429751344132093 -2.0727194960609725
Ni 8.407176173076886 2.488716244213101 10.224313605893135 -0.12203304067506081 -0.16166556746501834 0.9507978056982658
Ni 3.59373846713924 4.696601785246749 5.035589011774627 -0.3028839228192784 -0.40232622267801676 -0.3397486570561116
Ni 1.7159376307801084 1.4450725051178734 7.229753209650884 -1.5665106783646763 -0.2344280440397253 -0.3376933171889797
Ni 1.3117578552417406 1.8552006555362628 11.315116206786021 0.30394116043919917 -0.6008290135760427 0.718998200420323
Ni 4.009578150558814 7.373980804559583 1.7900062846651665 1.2790454040933132 0.3642906080615339 -0.3519572833071616
Ni 5.5233803470545775 7.868989440631939 8.245400416806973 0.13026211345307243 0.07796330404935604 -0.22956865906489496
Ni 6.8808304663057935 0.8198828194124587 4.977739471938388 -0.07968208651267567 -0.004945259820417289 -0.8011128076338913
Ni 0.4680961111940475 7.464773227881442 7.200021355484112 1.565194273546098 -0.14573501227769095 -1.4942495669064202
Ni 5.547929918726336 4.431284225131119 7.747542390746146 -0.37352266818276314 -0.1406362575985449 -1.7958903613472166
Ni 0.5501700205837959 0.3846047942524899 9.115392601269216 0.08749078392381705 -0.7292779850797764 1.0553632857161825
Ni 6.359067807227889 1.6510520652818033 11.52372744459595 -0.5039344198398225 -0.1809904930458754 2.700016731130873
Ni 8.04763198239626 6.936734259014357 4.985711933952162 0.4358534079011848 0.35091135854115046 -0.1438064277964104
Ni 7.335266266672766 6.193087196678316 7.448124154729505 -0.22172962263645038 -0.6673956457526828 -2.1247845921873276
Ni 2.532832598798008 5.763683761043807 2.8176531767055613 -0.4500883205536442 -1.7522931934825563 -0.3016217682774031
Ni 3.915597471175687 4.144286523798872 9.286926242947215 -1.222133778507934 -0.2507149541252069 1.0138345703447764
Ni 1.132960455325872 3.586824506137806 4.125667108401071 0.08926767331858175 -0.04983106458951418 -1.2645798634872865
Ni 0.9362177284365852 7.843820436353992 11.933058530999023 0.09527248475176495 0.1557890540795833 -0.4288900892094742
Ni 2.5616635428948964 5.511201208900536 6.983904051975655 -1.6105264218239939 -0.6766760426133442 1.889609128458617
Ni 5.375244861145068 3.160345156776632 5.228588726047986 0.1128814560827798 -0.42423613537723065 -0.605628234736899
Ni 3.7924305848774162 7.347700465311708 6.464340378649721 2.398142994743663 -0.876654389615632 -0.6243013856663701
Ni 0.8122146081199592 7.42512043178231 2.686595812120806 -0.4803116382145599 0.8709380559571451 -0.3965188719676203
P 0.15014226536750142 5.81842156296425 8.492756253203725 0.3375120544161091 -1.7186027432086464 -0.4454893883290521
P 8.733580719326397 1.908398985244265 7.987526068198946 -0.18592366868143465 1.658039636913609 0.7233940154951735
P 2.034462629906773 3.8749608703490774 10.545516740111264 -0.13482633578498715 -1.0152962424919676 0.14542236613327858
P 4.0654090688431195 6.696066472903839 4.179955821682027 -0.2338202352523973 0.013809909299898795 -0.32499155335159513
P 7.288134732784203 4.305475640953513 11.017003333893893 0.5139036152373923 -0.03482456387835293 -2.390460281387425
P 6.310323926702629 7.909270778640293 10.511946225646724 0.9697257529510203 -0.20716303767618516 0.25152536584164426
P 2.21346043448935 8.561351126896739 6.131470960038264 -1.4654678667880374 2.2593188506531927 -0.025862983809690942
P 6.581899578001376 4.222626529875725 2.1483544238576653 1.8741303160967273 -1.3666752846981558 -1.2881208840320202
Ni 2.4893630047283866 1.8700397101757038 0.3568769867528001 0.7460508336627408 0.3282468270640992 -0.20116054023584712
Ni 1.0673188176758952 3.614443912931413 8.536660361027982 1.0776681198609699 0.6967617576196258 -0.4402744197870159
Ni 8.008243356085062 8.843821504621987 11.599829294917793 -0.40423115301021356 -0.4764290153307021 0.17088734317360246
Ni 2.931519464607964 1.9694677527720816 9.367067158233532 -0.4880280330222112 0.13950008711157266 0.6445984453525091
Ni 6.439420969274857 1.9996195458086377 2.7074743346705903 -0.5719480688756343 0.7131309430062687 0.6409798747633154
Ni 4.305366329317127 7.197515386219956 10.490041084645211 -1.4144209275135513 -1.109849846799837 0.06808229749021823
Ni 6.871639179546312 6.295739932548089 12.16406863403481 2.2204566263703565 2.1655522610229925 -1.680109472229455
Ni 7.800232421344952 3.8994831141117388 8.492556759467321 -0.051624923265143355 1.1702453171687588 -0.719626063812309
Ni 3.033698516720064 8.60153226257174 12.489085833432519 0.7689930442812111 1.24631088997477 0.390003953667238
Ni 9.064986272940581 5.933062141624389 10.705305757389857 -0.4038971667095625 -0.9069257869056639 -0.852394488627003
Ni 8.640538298155587 2.28040470247293 5.678823315856511 0.9778609804636451 0.612420317958068 -0.13053490749848484
Ni 3.889271585412651 3.1746831997493024 11.633039991912561 -1.269487328091233 -1.6768282303750217 -0.05562298868094291
Ni 1.3514653071590663 3.969834261429359 12.840581043953899 -1.4012471091357546 0.12793989307779902 -0.5437672355660441
Ni 3.307524165867761 8.947330514976786 8.209176362369156 -0.5572236181812661 -0.17607094425707098 0.2561170989773847
Ni 5.901689701981519 7.958060205680715 3.85721959176358 -1.1675878249412537 0.6236359841682291 0.463730336817111
Ni 2.9783959380116247 8.853787082139204 3.556506923786064 0.7579211027377657 -0.7026177021797706 1.1549310554091916
Ni 3.7533425655662795 2.555970228499776 7.07436398573684 0.827261441004801 1.538285879191028 -0.16491904140530952
Ni 6.237968732717927 5.8794721118860025 9.494765011860016 0.11936037893890411 -0.4377570526818009 1.2574612501646343
Ni 7.999361785628674 8.848858949198789 2.861943518978383 -0.19372105323866637 -0.024081980649868204 -0.343506324326331
Ni 4.4513246918019425 0.8147369741295732 1.7003060667768664 -0.07720842816120252 -0.31164161440725036 -0.022581999065574013
Ni 5.640434891018248 5.648569498625994 0.6870873998091608 0.4838780154095796 0.8937051744503318 0.625990857553651
Ni 8.013572298358893 7.4004706577771975 0.6794620022409127 1.578620831364649 0.4271078004980709 -0.44766531293444833
Ni 0.23666333649756613 5.043402060985338 6.170015153958379 -0.5166657513635619 -0.33646741520167855 -0.04942328762813424
Ni 7.188205678521055 6.240118528233524 2.7301929364328776 0.4582644286065334 -0.004309426008631287 -0.24339553764565827
P 8.50634004588533 1.7238536151150834 3.430849554038792 0.8522926729418159 0.5135194924250963 0.9147473398326118
P 1.894179363211013 3.7485692907774104 1.5768349297573205 0.290686352311822 -0.7742123836986216 1.0669687311655947
P 4.972586339213076 1.3734460553757462 8.422054397719366 0.39293526838142007 -0.060628669425650414 0.3751941423479151
P 8.302246111449064 1.6812129676213918 12.451701253788402 1.2590507061389413 1.1689970465839545 0.08852848115971206
P 6.286785487667444 7.995226162052059 1.6678678386792303 -1.4965779579292806 0.31717102886591186 0.25092372770190335
P 1.9698139062873048 3.6343295214506885 6.136963869766676 -0.06911099586504871 -1.2965052514409734 0.686336962741876
P 7.153663201422982 4.1177966705812565 6.224904170309156 -0.43119045520787674 0.4570457257080838 0.7557410643673114
P 2.3217882661481792 9.041265647844753 10.29502821440174 0.39160369405419004 0.046273429145242885 0.924047791297931
