# total energy = -381165.3977783283 ev
CRYSTAL
PRIMVEC
9.23034278899998 0.00000000000000 0.00000000000000

0.00000000000000 9.23034278899998 0.00000000000000

0.00000000000000 0.00000000000000 13.50953968905340

PRIMCOORD
 96 1
Ni 7.353417198772273 2.830650763770475 -0.031916679311064566 -0.5224173091353583 1.7597259956115179 0.3468816685564671
Ni 4.961429245915973 2.205636562200079 3.2611087229755844 1.7589610924210355 -1.400278317464582 0.17195100855142645
Ni 4.55422344324175 4.885426603355008 2.4887136380227584 -0.02428124114486786 -1.9087872440489642 -0.18452627411327574
Ni 7.896881321762863 9.042505317567358 2.8728306612335364 2.6345919258681594 0.3042365801924309 0.057936210195151834
Ni 7.4434130410080535 2.1512790734896683 6.704244421008677 -3.1689535518495875 1.368764820237333 0.9089127354287055
Ni 7.376280757871558 2.925049479518713 10.79081254662214 0.6238257315815321 2.1901263508179314 2.0551447204020024
Ni 8.924698452495022 1.361715550941093 1.1302240918879631 -0.022380424577729197 -0.6512388334871623 -0.741966122070406
Ni 3.6477853202429764 6.930445970606901 1.647786026931676 0.27030650310388926 0.5651459583521363 -0.03700023137343305
Ni 7.171985580824941 1.4489792117100226 4.615723371205705 -0.020861673940357622 -0.7954507242521075 -0.4264038324525108
Ni 8.142814575150567 8.965358112500008 8.515049378083384 -1.3524961649842964 1.0783399491170138 -0.8566609772128406
Ni 1.0942294471307685 7.3213694485935426 4.196995331622465 1.5134945311789612 -0.6609486045757584 0.213868988941451
Ni 3.15703568494557 3.9534481218468582 8.274309115551253 -1.971843549079501 0.8023543933504762 1.274713609487179
Ni 5.543393128697889 3.540971793437597 4.838455234947886 0.42102302775657174 -0.07391870166633721 1.1624168222632754
Ni 7.109671536626608 2.698758395595392 2.6928832824073847 2.024115876120656 0.4253609930102932 -0.6598255467149088
Ni 8.595987484935987 3.2562895610031437 4.855801818159547 0.8180167824780815 0.4062430412339197 -0.3004773702603148
Ni 0.6146254507564092 2.44461013712155 3.076460330564748 0.7777700191428927 -0.3983142733051463 -0.07304401237086774
Ni 1.6261833326579715 2.0292539417607443 9.050676017008087 -2.0916548995128945 0.14647934664288323 -0.8105616117516169
Ni 0.233114153316212 7.331292067096461 8.98926100819783 0.6487165812859408 -2.347731117950015 0.04893246403464476
Ni 6.562487585490272 1.2598956395869507 9.70432089585509 -1.9895810755685799 -2.0297597046699947 -0.9663830617310325
Ni 6.205254858699591 6.639330189245439 8.380129457472062 -1.6753976685760823 1.122125064622764 0.053654809210978566
Ni 4.755546449908889 1.9084564456233442 11.426733321237235 -0.017938586756291685 -0.13316051804679002 0.2898342887241718
Ni -0.0625641864880348 0.9831791929832129 6.72765626246989 2.7365189398219645 -0.8423283626402527 -0.6918522361331504
Ni 7.375413105648977 6.693567683499535 12.639727743022295 1.2854808753060118 -0.25867380396096745 -0.42224327331691797
Ni 3.4255463568059636 4.744202358615783 0.3022761888329787 0.4459843256875996 1.5127008316330721 0.1486149049286473
P 9.388366262036554 -0.10044366724364438 4.779012750392583 -0.8102348245398174 1.0054010948654428 -0.5946642795262275
Ni 4.8684981546718875 5.640413261799456 10.268736050918172 -0.5442732286681853 0.30235427556805344 -0.7594977031962663
P 8.699662695191606 4.255428016676168 2.765375625604015 0.5080188743218411 1.1562135216660407 -0.3772309702722858
Ni 2.185625179023959 0.15599279320868506 5.773828636535453 1.4295133030702993 1.1566896899715111 -0.8921226604545605
P 5.6531234438259865 7.349051246630989 11.311240503103209 1.0945168159871923 -0.6668793682378966 0.3664127966108593
P 1.7493437965504852 1.614340802854022 1.383998521478672 1.1569545135971238 -0.09222469906437665 0.1452706710467627
P 1.9973723377522947 6.808771591904127 13.75419748583046 0.3051806892732551 0.5524117986149196 -3.3887659028586667
Ni 3.1120008424565064 2.5395995948085663 13.429671555693957 -0.6054194611602025 -1.2222715896373788 -1.147032112277089
Ni 7.9286429313149975 8.328132167413926 10.892147864979629 -0.9273318613658417 -0.38602568574578033 -0.3905503130890112
Ni 2.5177882947877306 9.123446193522799 0.23391811617351832 2.2039450018685787 -0.8676323886226801 1.8849739436794504
Ni 3.1919263807046727 2.086823589763263 7.00783039548404 0.3714501019244506 -1.0974689566369809 -0.18716345462580672
Ni 5.563099910561826 3.6821591168056473 7.262688467318696 -0.3248090050271438 -0.12144014428606827 1.519850555303976
Ni 0.8712234422076234 9.044351386126039 12.487313553714616 -2.557291709324099 -0.08808239476122896 -2.078155579474879
Ni 2.6036674041376484 7.8036825505777685 9.752104534428033 -0.20790531515884839 -1.540564905033192 -0.6084245665351135
Ni 0.7822420146448397 7.771625570056243 6.473730455257369 -1.3116464779577863 -1.1151434910986087 0.5717277253347121
Ni 1.2873836004257357 6.3765238692313755 2.042844698489766 -0.44469517456253094 -1.071946129775528 1.102547656711469
Ni 2.679845423211688 2.679356215043638 4.621829242963548 0.00864919103456575 -0.7355663891916493 0.887301070696201
Ni 7.569010315398028 0.8799211942218569 12.337506013211796 -0.7143046515993956 -1.1453233571160983 -0.27257241631993057
Ni 5.649015941282918 4.105841081366112 11.950727882173677 0.10068388557532339 0.17686670068548893 0.6654297802755638
Ni 7.13685489615321 8.89841043621938 6.243298639556923 0.033606375200535665 1.6235395462542104 0.608269786124804
Ni 8.374293111723786 2.566801415020756 8.793305445865062 0.9929479567037544 0.41384065107551954 -1.2539025862790985
Ni 3.2354843683467895 3.969924283733101 11.521772622775334 1.0381975725701733 1.169038184234535 -1.227950642300027
Ni 6.451926539510769 5.9308183067658256 1.6050412324896584 1.044723289503833 0.3090964793878935 -0.6827291907859597
Ni 1.2013291145627432 3.400052150010556 6.515948197125883 0.252440678567062 -0.4453441210004395 -0.0668067732119043
Ni 3.747177651442451 4.290124875236609 6.0498823445266225 -0.5074378050073906 -0.4838386775312119 -1.545185434524339
Ni 0.18481269251255947 2.2170544962355314 12.294546151782692 1.6490130079349665 0.8143989832198362 -0.8273007788831688
Ni 3.1955631357652776 2.9746256506621362 2.4418899551003315 -2.7152160645791303 0.3748717260114899 -1.8161863925920914
Ni 3.9505590245525197 6.035010416217876 7.643535180077768 1.5298266926800814 -0.5680050250674863 2.38540394991044
Ni 4.921111108594343 3.4574187304716197 9.581236120773484 1.275773418210261 -1.1382399679067559 0.5794508050105827
Ni 7.34697441950247 4.527196999542636 6.151433652905477 -0.6185652545135412 0.871239646357964 1.4742767233289191
Ni 7.367207330905633 5.922603301679688 10.306576764234048 0.7830307533211999 -0.5895233587552364 1.172795080173806
Ni 0.8183889600581257 3.9249171322724177 10.00244989167099 -0.34017083219519484 0.5642306456267185 0.7342157887010258
P 5.438877957248069 1.4737165303963702 7.737224082465193 -0.5054269452249488 -0.42696716115514854 0.0160663094342433
Ni 8.6628151667603 7.88843555810689 0.6898250534943475 0.3809140755508279 0.3841264118405385 0.20386148410677796
P 2.24184719697864 2.19455092050519 11.150085179170167 0.297684638006526 -1.6460115021044814 0.08523335534820804
Ni 1.5240311289632664 -0.18809684847845592 8.247682345695095 0.05576671334765879 2.2255425255336965 -0.3028453562718591
P 5.318597360307101 8.333375002120585 1.7088484366472223 0.2779385657278503 -0.10606597582284313 -0.7652127513031725
P 5.603371896169489 3.30165669583277 1.276801012413087 -1.0889354652446728 -0.15880547230840392 -0.837644584011338
P 8.881925043990345 0.8797928924570284 10.179843234646203 0.0680892394687537 1.1438591138657461 0.6249369623678399
Ni 2.123449589967527 5.768825790741422 6.270898287543508 -1.5592588818982696 0.7814166147565444 -0.7675321434649685
Ni 6.6635598390781485 0.8322972405792408 1.075058025148849 -0.3387652100969198 -1.1727595989501802 -0.03178757682424203
Ni 3.4931493874249226 0.514739296217487 3.461765298893038 -1.546811400163536 -1.0573551193352306 -0.4493627552415293
Ni 5.119932692364466 8.980948161478082 12.536420823444132 1.7728082827167724 0.03898152346951996 1.744710496039292
Ni 4.632810581784872 0.8882091190160626 5.4357654856581314 0.741972035607677 0.8702472005377077 0.5219123444744818
Ni 5.351494302022825 6.7195603288057875 3.492418344275684 0.3682809601678496 1.6345387255781911 -0.6859824076159348
Ni 3.5468146004258276 1.067932200512334 9.260870306133972 2.185087245732127 -0.1763339681104705 0.10948477169640498
Ni 0.0675550328364334 5.122129513949299 7.624662821202356 1.2174055197943292 -0.8680561064236599 0.9751461526356432
Ni 4.877359283753564 8.304465568491615 9.550488002860064 0.7052973058944627 0.21258832245681455 0.5231716708028797
Ni 5.097872173088208 8.458649214512791 7.136225386774699 -0.8456998502156469 -0.05017276419964908 0.7021196794974295
Ni 3.42510330035188 6.8492927967672115 11.70862337497668 -1.0136499651377964 -0.7505399797823461 1.5947683876587888
Ni 7.245579103916825 7.362832148421554 4.722299678201293 -0.7063247187177125 0.4351648664745925 -0.34643352527545496
Ni 1.3737611482864973 3.953217363277023 0.9872377747094768 -0.648932811061805 -1.0871290081635536 0.7906630730554769
Ni 8.310234532737498 6.664565946442631 2.7811004375868738 0.7937075163087557 -0.304430698481108 -0.38982269089436733
Ni 8.658227686391973 5.147328349775316 0.6673796289236045 -0.7291160055806153 0.5201035734005172 -0.35337756069345594
Ni 3.2716950031253504 -0.028105470771664212 11.461250188113205 -2.020267191798527 1.733839614763059 -0.6205835704951506
Ni 6.860913798344119 5.0601108407203546 3.809014486918364 0.968433516502158 -0.9610369669277706 0.024732726859989666
Ni 5.403719581547959 6.201322732669597 5.902075019307137 2.5374163105564103 -1.6592843079539874 0.2581701248516715
Ni 8.029189055363648 6.89188159841602 7.1456957184807415 -1.2560216895046306 0.2541810582969365 -0.848451444818855
Ni 1.2228911953281567 4.9797422460181044 12.184929369870954 3.610667018075975 0.8602839186774086 2.14078456716001
Ni 5.891100141725769 9.043963711728717 3.636983973106124 -2.3161818823888236 0.2349641190488534 0.7284868566370485
Ni 5.304438014462005 6.101838098042188 13.264057976191697 -1.7542814275571785 0.5806299129203485 -0.9559803783404698
Ni 1.2217281721361868 8.837822466123416 2.5012641351189626 -0.4579412409391597 1.3241278982542486 -0.6765693418321509
Ni 4.036825808299761 7.617285008207579 5.060808654635536 -2.507196849550237 2.7247288891655717 0.44898454596650417
Ni 4.397778363236188 1.052277539134705 1.137371146312903 -0.35115998421684685 0.2656507494994328 0.3942444741111468
P 3.290949498192411 6.078217650833843 3.8231184507067 -2.057033709894599 -0.7615967518171399 -0.11992370764154185
Ni 0.49612354087173105 6.8962567809000985 11.181049287104951 0.5783506299678685 -0.14808937144248044 0.9467187505328857
P 2.857289533072266 7.685174179453135 7.335706940054552 -0.3412404111102897 1.694725679480733 -0.9581041095516918
Ni 8.774077718792103 5.879137617465505 5.116292245166743 1.6440988584628007 -0.8804953606282773 0.6555084073967936
P 1.8688859660679813 5.692010878014636 9.575277934500335 0.39056368282544995 0.7563463020514781 -0.017165198925376886
P 7.281900502808907 4.9015427818723065 8.399515946441067 0.37303930078844144 -2.162413201173379 -0.42372242896560575
P 8.626466076839838 4.462298459362147 11.865672119400934 -4.301954897065223 -0.5622874058574187 0.04615053041413342
Ni 1.3178345013012063 4.820500372146138 4.083258124687747 1.128508856661921 -1.0319011980385002 -0.5289561386951407
