# total energy = -340875.04377131595 ev
CRYSTAL
PRIMVEC
9.22515414198151 0.00000000000000 0.00000000000000
0.00000000000000 9.22515414198151 0.00000000000000
0.00000000000000 0.00000000000000 13.50194557965784
PRIMCOORD
 96 1
Ni 6.3177546097827655 0.30530924615551597 11.680924394893689 -0.49356181835624674 0.15108522084601078 0.5433494313023353
Ni 6.01908101705114 3.2037484549731294 7.510996941436477 -1.1254186477723715 -0.7555700860070859 0.14437901247042878
Ni 0.5616412260900202 3.424303441846978 2.168857740380109 -0.23068786027100271 0.2603077400199646 0.9021558763208463
Ni 2.642914429876562 5.387287105764441 7.310345224772614 -0.25558770883647597 1.6566828657753987 -0.3034631923615161
Ni 8.05715743624521 2.5773697092082206 5.734532980447222 0.6165531091795188 -0.4278919869622631 1.5504855065810137
Ni 3.3382050775967844 5.879882665163089 13.443846752016785 -0.7475600712184157 -1.3204923583841903 -0.5617487597451293
Ni 0.5252221622962867 1.8124291471958134 8.957555550113154 1.2974344481234623 0.35192977250333585 -0.6007104857203074
Ni 2.5088729391923965 7.394154828263087 1.4379035689960242 0.9191994620666943 1.137058803114461 0.35231029577120615
Ni 7.182769644674859 7.891012408907164 8.393254712064135 -2.000741463060774 0.5939893649463899 -1.229094268986167
Ni 3.1182774012092764 3.7527650575255533 9.039903889176623 -0.3740068069080333 -0.9638574670957013 0.18508214661674574
Ni 1.3523338060821144 3.329219777395382 6.979007206011085 -0.973410400891459 1.2564850022942942 0.5647926887777758
Ni 3.3385187328399546 8.362879046793951 12.713580777136833 -1.6169552081684735 -0.051221774289453716 0.9979014440542878
Ni 7.711029650252789 2.5184394241090846 3.4515831453639874 1.6833233511810624 1.3300175242658063 -1.9418482882689914
Ni 7.256100395497186 7.324975396835657 10.938952621835544 -0.5445761046205847 0.6022307790195758 -2.285162551189174
Ni 1.5144843416468472 1.7591907822447936 0.26807006615243484 -0.09569594544242874 0.6023781032307174 0.7526305437627877
Ni 7.608003128025621 1.2189380761927113 7.875752158811517 0.6930267160572258 -0.10994731315512032 -0.33754625008815414
Ni 1.0644997695482785 5.163743168926265 9.075832174766337 0.04916746286358629 -0.9668733711038897 -0.5682096848791246
Ni 5.1114826703216005 5.793424519898672 7.503274564846544 0.20112223079874395 0.39064441546471435 -0.9953917902585565
Ni 6.905083277772996 4.741590887081939 11.251900295677673 1.444008925583313 1.8719425644167889 -0.3606334709249208
Ni 7.938300549392163 6.276610422002217 12.711757886664762 1.352450913568658 0.27940538008136395 2.1519860923027845
Ni 2.853340197426858 2.1836032268707877 5.463278391061189 0.9407424783447927 0.18027855458051534 -0.984595213863685
Ni 0.1352204653923162 5.987992247360455 6.954798556330879 -0.049850090752907694 -0.20208228071916812 -0.031426593940397485
Ni 8.73283540611309 3.838189985518352 13.007923159966447 0.3946635639264364 -1.126985478038859 -0.10390033563009203
Ni 0.008921646637347283 7.450649672650548 9.16301449463631 0.7212062638152353 -0.13527036530094125 0.6030039097401745
P 6.430375292389255 8.107296149381371 13.544207204677008 -0.7550540656026158 -0.6541683484291315 -0.3087380676072102
P 3.90057970344657 2.909632088421681 3.2695902256070606 -1.5347755520449244 2.087266026416579 0.8678869278356474
P 6.47492356207362 7.220020817378414 6.210219754692738 -0.12885829112701033 -0.3673353084251287 -0.3769304083127315
P 8.985023446776065 5.695010574776946 10.605197612670764 -1.8125408254197042 1.2071249638039276 1.4359562304821658
P 2.8133952796937245 1.6441807846976852 10.024438176994103 -2.5395991771403423 -0.41777932400829343 -0.42655578464934274
P 1.672382081120362 6.039284104772978 5.344947337998161 -0.3741608159873943 -0.5829534188472025 0.2683025852999831
P 5.321235001614502 7.133202891099771 9.575309699206306 0.7633569290413562 -1.192821659807378 0.42597651510710505
P 4.11000915434209 6.603503761464941 2.7488339604642635 -0.5595620365064558 -0.5747235747382424 0.5873407492816207
Ni 2.830157384894903 5.816515080888518 10.698036797102851 1.7856478576836023 0.09783458905198635 -0.4810531443662747
Ni 6.833791286031274 2.8208768797587522 9.89361811016038 0.5825286726049581 -1.4224677090774276 -1.0411646256182971
Ni 7.36200516583815 0.17049376503305763 2.6202279306411524 0.5693291431955485 -0.9513994438380067 -0.6056254065234216
Ni 7.905182245775084 8.966582363508506 5.459930582598059 -0.7418265111687482 0.8667291600821202 1.794383437784387
Ni 5.50303511564842 1.7241997723229054 2.8386897300245506 0.0844864498798545 -0.8638348692534608 -0.8649047052788718
Ni 0.9607075595216068 1.1314374885024632 6.49872907251481 0.22657460943357755 1.0413685140989872 -1.0075245689663488
Ni 4.332935005848137 9.028556949497233 10.273590219406277 -0.3963350380915884 -0.046272400703978374 -0.22467327864580663
Ni 4.694782454615906 2.150032890697376 10.581515719296 1.2694924702975556 1.0454776511713542 -0.8703101925651592
Ni 5.721329939740602 3.583926285157928 4.726153514025443 0.22090455563199374 -2.2552197408831542 -0.24683335968261358
Ni 5.20493348247787 4.432188440003053 2.082202176815578 -0.5364894709577083 -0.15810227559379222 0.8914068653344583
Ni 6.365568584057785 6.602286041109104 2.4042513878021663 1.7277314449827923 0.4395354847384624 -1.6809944459375694
Ni 9.035872496786466 3.5680128941441507 10.542306046353472 0.7674208146980848 -0.6310469319203197 -0.054585805665680186
Ni 5.407536319257336 1.12661273285017 0.4453572347463885 0.5937034582748549 -0.30138214146277126 -0.24616512997099543
Ni 7.132234249907627 4.823205826385641 6.192249154289932 0.7454767063268258 1.7339866818638847 -0.13212616324500473
Ni 8.283644197276658 6.891199420685614 4.683635700782893 -0.9161380495325513 -1.9304379895495205 -0.054911307325898974
Ni 2.5733014162012204 4.800548847643706 2.328261947536261 1.053804940090127 0.3004781415912631 0.11286037303685724
Ni 0.22710115630189273 4.495842004058162 4.843593417191698 0.39356801686941256 -0.05753666076388801 -0.24761857458807032
Ni 0.2591142864445073 0.3897636879253297 3.8867511972844526 -0.06270894899344684 0.6552996338200971 1.4155948932169942
Ni 2.3099970647141292 1.5543923587631376 2.8774270750714797 -0.3063258586212918 0.468421057424561 -0.3787494637993412
Ni 8.303386027287953 0.46886016012946125 10.285322770531678 -0.11788250884179698 -0.5579802938416325 0.10853911995368405
Ni 3.6028932022155082 6.8732564957454425 5.487285009864176 0.21396540530999925 1.5827934746850998 0.2948335417109761
Ni 4.886988542599704 7.106007136486081 11.87979473427943 1.465204842934638 -0.0486882092343226 -2.026276888327717
Ni 3.910838074929074 3.154070999547512 0.35468503903843795 -0.597392477090668 1.0385672972047661 0.2484809225883656
Ni 4.874423882564478 8.4553796680665 1.948924528900074 -0.4731955959950689 0.8678951553657633 -1.8190364604463767
P 8.532907864054781 7.354136109296265 2.5089854860737693 -0.6262577380617923 0.6334288018889348 -0.31644700621569377
P 3.9789473884680415 3.8137341017052946 6.904624787608715 0.11212066665735528 -1.3754540593320503 -0.5411891904262228
P 1.6265330646922613 4.061438717421779 0.41705353911197096 0.8619947307209285 0.12589406629236383 -0.761346840589863
P 3.270529346305729 0.5821302935923968 1.0648872260251356 -0.1623512806781333 -0.22395516953285946 -0.2099213171476127
P 6.5494166823265205 2.944936753586739 1.1881445114367757 0.1873308334416064 0.2666763625504698 -0.6101083819954396
P 4.653269260666922 4.731738422384712 11.695250136867774 -1.288629962457955 0.09215347950680904 0.07090562587162627
P 5.762206598049035 0.8132416244297613 8.700545521344148 -1.5704681203505275 0.3386790781410167 1.4593753807370544
P 7.470963462222918 4.662180759634636 4.050529972567407 -0.6690084987657576 0.9770749942272398 -1.068485167810121
Ni 1.1754322489341757 7.281810900282924 3.6102308898748467 0.4214660288312613 -0.944797879361089 -0.7446274709526531
Ni 3.46735723654918 1.3905536199778126 12.365676226443396 -0.03632403124201486 -0.7211013628062548 -0.1573823667086322
Ni 5.752520186127606 8.297085246961919 4.0469109445704765 0.10094279566366487 1.1812115863722754 2.3644628288823992
Ni 1.112286068360665 1.3773431991478247 11.439739195658039 -1.0827519621417805 0.17490417764247942 -0.3238690097113777
Ni 5.568708988475714 0.5571817865444783 6.508599065005037 0.33904931699624186 -0.05699364377622442 -1.0032796776470656
Ni 4.31828546096125 8.126180040051054 7.84066059470873 1.6913462214855388 -1.1190122300253955 -0.05423999229048724
Ni 3.6644065304936926 4.538655944750881 4.71604089997947 -2.0289346376655377 0.15734020061678708 0.7499913063677277
Ni 8.425600870273762 1.8145232572016845 1.170953436564791 -0.4083102081755936 0.2895362978677788 -0.13117254108248377
Ni 7.223563276595393 5.31777556878542 8.468650052398859 2.0174484914028095 0.3699593763115371 0.9831584814171583
Ni 5.962733775131052 3.0955466212336544 12.357075615172588 -0.5102590765062696 -1.5555850325911083 2.0947731334269024
Ni 1.2483939935880684 5.5598067146622085 12.249545372659666 -1.9217929122800128 0.9435416383564845 0.8482868942165326
Ni 8.240368998873395 0.050310301004484685 13.23051598340548 1.1167334612935476 -0.7689459930933596 -0.9623906527421876
Ni 0.9334011030573861 9.05905530931842 1.9151023460167047 -0.8225848614647382 -0.3673597339051609 -2.6832541669605527
Ni 1.0476085121881473 8.10653968673608 5.892694559331167 0.7647190994962055 -0.43499440233499925 -0.06068394814361807
Ni 5.327028398458938 4.636322652381525 9.548967271357123 -1.911518526937198 0.6141534985990907 0.9574479640249318
Ni 5.48166965849601 5.981940546198114 4.3601565908936175 0.9043318009262425 -0.6281115034410796 1.5708314172272173
Ni 3.017271187754292 8.72773389583447 3.888560250025207 0.7341890492281484 0.06687285056314934 0.3719185569204369
Ni 1.66965143547394 8.4008866821428 10.792456250451263 0.4800455290373668 -0.7239925683111208 0.1963500062210812
Ni 2.340421623301629 3.4113236498722617 11.654906692472728 0.6937535669209214 0.882562784680267 0.10312283403411916
Ni 2.3254122974005185 8.95600111162862 8.254819280429325 -3.675599714193618 0.7591112663911249 0.6128059834322608
Ni 3.6507994280326366 1.4392163084402332 7.832519396117624 1.2834659017585122 2.7481477823101446 0.1462759723828255
Ni 0.5630194641291265 6.093980044089318 1.2744246112249238 -0.04225145247004337 -0.3085555192827589 -0.671494755522721
Ni 5.596993311286288 5.650167100157832 13.463505555640182 1.9827879639061463 -0.41467343138946006 0.8818739861433587
Ni 7.672044148557588 4.9711957502366655 1.2294750473323848 -0.7146334956937241 -0.7165317411577015 1.5236884409928275
P 3.3300315909659397 0.025508473908519253 6.163949148717199 -0.7810270926276098 -0.326188916093806 -1.5644699937855637
P 0.7561388423798017 2.4054128347173167 4.45011937224275 0.700617126809974 -0.06527670972062306 0.17266346123741877
P 9.179489697541529 8.973676507096677 7.614219959448337 -0.6201590813632222 -1.4039519096614272 0.8548288091001085
P 1.0207817637428926 7.845809153273826 12.91153229116317 0.030426691920973407 -0.32387132370422284 0.5269563346562924
P 6.58922322274649 1.27216721598952 4.656807107306797 -1.0756091804494121 -1.31346527633408 0.9382788472956487
P 8.19999972404656 3.326018648884205 8.03429196901811 1.5535104094502663 0.7565777013359939 -0.17308357949397288
P 7.828576565207892 2.133030931486714 11.77106337668825 0.9006042155630102 -1.2856716511605792 0.01967896648616611
P 2.173298729617229 7.025600692384003 8.90237252265448 0.6563902957811147 -1.3222077984134002 0.7886411575294417
