# total energy = -340896.2857958077 ev
CRYSTAL
PRIMVEC
9.01533739295828 0.00000000000000 0.00000000000000

0.00000000000000 9.01533739295828 0.00000000000000

0.00000000000000 0.00000000000000 13.19485755886989

PRIMCOORD
 96 1
Ni 6.474391717945489 1.915371572937166 11.446381036905066 -1.1977661482968467 0.48396517580674714 -0.9284299795260268
Ni 4.697243300546962 0.22014282338581823 5.91607276411087 -1.0351816685619848 0.18634455826893712 0.12040630370491522
Ni 2.593622463925845 1.7191437355086494 4.822772860794809 1.0660084241348544 -1.2252502126497287 -0.9362813572496456
Ni 3.420581348040656 4.249027762853607 4.734961669849242 -0.21210649772438955 0.4748950951846789 0.6446946046107414
Ni 5.241886888830017 4.442343646248796 2.588277270283864 0.07648286284908765 0.23861997063388582 -0.204457465819564
Ni 7.284789426954346 6.162533160914925 2.6030290671406258 0.4256114184582025 -0.9704618597860964 -1.0973388588170199
Ni 5.065970606934278 4.3879270687095815 11.636162006441223 0.09246432587900849 0.5046589567106728 -0.17774858906980998
Ni 5.538897184891878 7.75798646503888 12.315460479654895 0.18846340438415285 1.7326918743118611 -0.2487843127613973
Ni 2.0138821665042617 6.389575422138841 0.33852682708005805 -0.9150605001976564 0.36574533823018945 0.8435766332250568
Ni 2.634903694633609 1.3807350093506863 0.35621491938157185 0.9478348664152 0.36857072349412656 0.43422358560724567
Ni 0.41897699490422663 9.016599711741094 4.608501726764739 0.54609459814764 0.7318357185046236 1.0630660536770788
Ni 8.724304437225454 2.4622870262864702 1.5161156289552442 -0.3215272489520785 -0.4961349784000617 -0.5568551790982539
Ni 6.89464167851382 0.7039337846423758 4.862291593008717 -0.6570808940902361 -0.18870560230194597 -0.5512566019645538
Ni 0.9407685055288325 7.436751956941255 2.5620453425724903 -0.10372807171828587 -0.19669324849311287 -0.47319945264981084
Ni 7.521766590174321 3.9352128775715505 3.766855054689874 0.4988518631105925 -0.5085593202063435 -0.12014225141025114
Ni 7.615345794093645 3.9198327116865443 12.371010285125964 0.8573538895148073 0.23401049688633246 0.9538800441680152
Ni 7.813692235849816 8.686530172830276 7.073816103405362 -0.035534445461183964 -0.08724935733697232 -0.8913256184745617
Ni 6.881461254994548 0.6113967537455061 0.32286538266303977 -0.0199432758911463 0.7154588198084969 0.16859134805057419
Ni 1.7673487454659351 6.372860986294292 9.289562496383455 0.36559467158493814 0.83798448384926 -0.5860667676652036
Ni 0.19359626039344432 4.855588689529524 1.4199120602708994 -0.2761130824833374 -0.10295545521831946 -0.36698795238803894
Ni 6.392180854694977 1.903588526740388 7.041936968243598 0.0389630115267587 0.00370393121414846 0.18094318474770774
Ni 3.4714368672418994 4.303110772902935 0.5761837467523955 0.15062267938729546 -0.490141222710472 -0.3660512995063825
Ni 5.898428846963423 5.46011214991587 4.851987062172514 0.2683655773274346 0.5552574955938309 -0.3507581207927378
Ni 5.074994959836324 2.697875827521516 9.40145455549751 0.77484538929693 0.4218480947610283 0.008828396924907377
P 0.15583642053836763 5.597758323850382 12.513844785828836 0.43778224949278155 -0.051349558116569625 -0.7414678422777489
P 4.0050817436962864 6.101454248915559 12.613386734013307 -0.14040562964497755 -0.5078005876634479 -0.7693733104387653
P 2.4771533179303016 8.426329500044194 1.3557976841135724 -0.6902468393192436 -0.14458418650269939 -0.15827402528496612
P 6.246691337079365 7.701775835324335 5.6813891027673 -0.027638330542558855 -0.16731968042700215 1.1087337309175227
P 4.664093904322361 1.2055670004727999 12.523319004075349 0.3002385147766313 -1.4553762868799902 0.29510093643974983
P 3.903596088732912 6.245988140749336 8.360710464047354 -1.1197118271955813 -0.36405380946037946 -2.094911201666663
P 4.632197640019223 1.027685374988004 3.757961424182512 0.5377994480183834 -0.678876906919405 0.02633709523263206
P 0.2516856864564281 5.623343851858381 3.5150179105623622 0.04854191346444543 -0.4966576836727511 0.4016698200409405
Ni 1.3643721716711512 0.9501805179461518 2.6439596012171314 0.22703020891375741 0.8948004643970395 -0.6248282047041175
Ni 1.7862268623259605 6.60405030279787 4.841483292376136 0.3900692596875347 -0.21820155487853388 -1.048382226412659
Ni 5.8348256404460015 5.544874353697129 9.275510289721696 1.0589808278641115 -0.083617674121656 -0.3597006746980063
Ni 8.532935866744195 2.578575865530725 10.07565936298725 0.4798632378232316 -0.8947950650804007 0.6863179365784825
Ni 2.2827285480146813 5.239227364248495 7.040499021902063 0.187759950559225 0.0917349039121517 -0.3364373332946915
Ni 0.6949301670167275 -0.04132991353061158 8.996755150694154 -0.3098960924710534 -0.16883354596836728 0.02098534400241547
Ni 1.468030522987566 1.0389545469436066 11.316411422906711 -0.19785333023948506 -0.34828780487537436 -0.5591817703489016
Ni 4.136606503424515 6.734448145330538 1.6056162941603962 0.1766820954785086 0.682223969014767 -0.6074385484727602
Ni 5.426530017488173 7.707130945837637 8.0622820553866 0.33874772659542307 1.5951622806630978 0.1051195527491738
Ni 5.112525810117264 2.6482914709168646 5.061059051029148 0.43350110561892435 0.5470052828873676 -0.05603102275263899
Ni 0.8597098024190613 7.41171636452469 6.856588840187898 -1.2672466116861723 -0.1095171675962372 0.5278572492040071
Ni 4.991981731542574 4.758087813769651 7.0690001100784166 -0.16599864762273345 -0.552854542579293 0.033187799605878324
Ni 8.099911172846992 7.155671762355834 9.117923992162064 -0.20997428187273517 0.5027090320731535 0.5002808822476351
Ni 4.624823093891477 0.3443074615264039 10.29577604189413 0.16360417924862794 -0.5770403957968772 0.5131824208006517
Ni 8.087614252409038 7.187757348747826 4.669290344894529 -0.10519617162338012 -0.7292710431012408 0.5499527955514658
Ni 7.092077571175977 6.204427434577074 7.025166637306149 0.355011239642137 -1.0658212478247127 -0.26053168310531255
Ni 2.331438416875578 5.072858324833542 2.6747559943374015 0.0169008895203967 0.4158067736629548 -0.18418611716503763
Ni 2.2042590498534294 5.1171146169375845 11.442646884085859 0.5673349955836552 -0.08198579494518783 0.07885444840505774
Ni 0.9904610461842577 3.290129413482601 3.8320774158338757 -0.3074113783759867 0.3186787237596899 -1.0356789199133776
Ni 3.73913830088163 2.6587672931667927 2.678424335192389 -0.4931262734807249 -0.08382284815392661 -0.2193186992021126
Ni 1.0628361761519196 3.445959523284673 8.257869803848038 -0.04901988154212848 0.03858634491363032 -0.599420049043658
Ni 3.5687574362504835 2.8110543753060235 7.111962701241955 0.33749277114239945 0.4307027169381808 0.03374341499903221
Ni 4.021363443337741 6.72867832928927 5.7877926243720985 0.243361084863297 0.8409145130118614 0.3025465940845177
Ni 0.8397750879964786 7.481990920839827 11.488551179896689 -0.19967289994672707 -0.4852849230594352 -0.08316027486926324
P 0.03850180213663355 5.661009932202788 7.908786918013728 0.8405764129461524 -1.007651067241884 0.4338937130716527
P 8.592166634542842 1.545174766526839 7.947276098677771 0.277689940052154 1.1980497409755368 -0.6087148440820226
P 1.70703613715955 3.15558451567027 10.302281509480663 0.5028123904202373 0.4044167866584583 0.3764755801635
P 4.128492699616482 6.038554238728167 3.609044275224884 -1.4047664351429228 -0.43503322599273464 1.19088227669282
P 6.728984850766462 3.9270359664005654 10.323300769012251 0.7605515983820772 -0.03777978985193493 -0.49801316925938094
P 6.387826446651332 7.90256543356048 10.332787608731357 -0.22479283494280644 -0.4424354319940768 -0.9980996761080229
P 2.3163557571301996 8.59341075112674 5.699664093544261 0.5433172925128191 0.17549347448704616 -0.9820523928371734
P 7.065148757870869 3.9912792618850643 1.480555531465901 0.03313483488075584 1.0844756297011064 0.11414566750718406
Ni 5.518179939168698 2.8776867352451108 0.4902089800687123 -1.0471830638982351 0.24480347373677838 -1.2693418036523043
Ni 1.6886448485280068 1.3092974744897303 6.972149240156942 -1.7846649249450426 -0.2924442155431931 0.35160478506374926
Ni 7.093141381008586 0.6555764154802504 9.17780206119784 -1.462628340456713 0.08953661070925224 0.2472627339105484
Ni 2.77500204038566 1.4823739250526569 9.167273048456282 -0.7409101700020659 0.19026420503831748 0.4675119153467303
Ni 6.185792731831289 1.9421831868539359 2.451472227344118 1.6024017358343308 -0.3228192282906247 1.6381899491775338
Ni 4.179014651327839 6.747276970684797 10.401730599688221 -0.5191849182409897 1.190956324463865 1.3428090196035198
Ni 8.213423288121385 7.344389823593137 0.27751553011242563 -0.11743256578857195 -0.7490438548527939 0.11253358582505779
Ni 7.626353521259878 3.79396958394881 8.168052700294373 -0.5505202380191615 0.6850843212816975 -0.6675555683693147
Ni 3.22017039398222 8.25685918450706 12.43187823822632 -0.4096153001402623 0.5040272366639449 -0.5121760910233244
Ni 0.061931762932966 5.017855750352637 10.280575281226659 -0.42679798256713597 -0.8470537931403799 -0.49638617517891925
Ni 8.596692334000211 2.455642722501447 5.727702694903557 -0.08042487821597118 -0.32736699556230714 0.7635405058070721
Ni 3.532110089050864 2.67161414919618 11.466819708697503 -0.46336703994042133 0.03129161102442998 -0.39374388032564445
Ni 1.2879401397994723 3.0393227224387096 12.542582977383134 -1.2425329109895764 1.620148004074158 0.8944945031208467
Ni 2.866994544893635 8.291387927379027 7.764777718826205 1.4634307817533505 -0.17606734471264518 1.0516459847655952
Ni 5.6479016313840305 7.551841756289434 3.5472134840726404 -0.33342400038966447 1.8014321171010523 -0.16204403385035962
Ni 3.149030365260892 8.394496343104008 3.4796426274930914 0.39354899070601895 -0.41098518390459543 1.035189896092101
Ni 3.433166759280673 4.401801673221319 9.32735298838625 -0.54037980715105 -0.6808247746743952 0.17455990692918325
Ni 7.228876303379429 6.124371237004473 11.319327884608821 -0.04321021683888687 0.33916861618292554 -0.03303327630588505
Ni 0.49438578596233684 0.18210801573502483 0.32832867722711584 0.3478314340642461 0.5233020257331569 0.13924760478113438
Ni 4.57673528332253 0.2758585110680738 1.572154065722308 0.22617146045788789 -0.07661141800715193 -0.5359881058412576
Ni 6.121215868856903 5.87993838961867 0.22507240996607702 0.05440017201743534 -2.1052272388806905 1.6325556337098914
Ni 8.096350114509022 0.0332043897837439 11.274887679618464 0.060897863926637055 -1.0877008215066235 -0.08033180428153262
Ni 0.12477227189243179 4.97638519755602 5.64427205648057 -0.7084008845204509 -0.3185828216117739 0.7415580879987099
Ni 7.932225894147625 8.685367194284456 2.5904806187846234 -0.36838843227999135 0.8537425180144652 -0.3127991250504613
P 8.314377038168455 1.702807943841808 3.5598674118781477 0.20557769546693624 -0.37446600593263896 0.08176056630825919
P 1.9025427475829082 3.040846314487107 1.6456498021492354 -0.6970150112810125 0.47757109935494524 -0.2418803865527125
P 4.5865710166053795 1.0799022101614841 8.081745267654561 0.7629452954252345 -1.1755551594174465 -0.666538182848394
P 8.431305966379789 1.8407426085783836 12.30511537979965 1.0165823082932428 -0.6066890719012454 1.324536960767209
P 6.313467942419484 7.818686732860538 1.289409639822483 -0.06010467860138036 -0.78073552952912 1.1742122722363069
P 1.714293483898958 3.350595282527582 5.935944371170502 0.3114315552789733 0.3612430794844617 0.5351740945803944
P 6.8015943795108 3.9125302882593136 5.973588814704754 0.5252375521929729 -0.596255021052115 0.6247780681924724
P 2.393527046682166 8.347084682852397 10.217412023182385 0.7563861541504779 0.39390817381765064 0.002060224963138387
