# total energy = -340897.65518067306 ev
CRYSTAL
PRIMVEC
9.00052973506224 0.00000000000000 0.00000000000000

0.00000000000000 9.00052973506224 0.00000000000000

0.00000000000000 0.00000000000000 13.17318505475892

PRIMCOORD
 96 1
Ni 6.358757154569008 1.7995388863674262 11.2994970718223 1.2715053869625264 1.140545219001165 0.36101733662690083
Ni 4.510471399895235 0.3085930578726409 6.022279555946756 -0.08251312820356757 0.6824111453249087 -0.5516016440087984
Ni 2.6498369186121002 1.612075855886521 4.678219670343235 0.6497218826220037 -0.8716798192191763 0.5872679870621564
Ni 3.2941128283434318 4.238322386420532 4.720558161575335 -0.3314900165917452 0.15908983631804213 -0.0026461793735954426
Ni 4.917385343050687 4.680635412487515 2.5720777431974313 0.3834221866846622 0.09109855587973342 0.49038393484889736
Ni 7.16647368128242 5.985532193701344 2.548418051041432 -0.039167157117764806 0.25072678119974884 0.5445264823295719
Ni 5.121670363351488 4.643868249076986 11.457720081796035 -0.2611757444472147 -0.16231579945450755 0.727291807887683
Ni 5.7778269721530515 7.7994539263674305 12.265763327733877 -0.12621493996689231 0.3164907149694356 0.5946393398255629
Ni 1.8837658423516932 6.435153649802441 0.5014033029881105 -0.35253012509149606 0.005640229004912867 -1.1631822396743903
Ni 2.6046002568492317 1.5236366520500806 0.41576506396277363 0.6796150706370102 -0.46222649857807496 0.16241787225001061
Ni 0.3658130247431665 9.054802792140633 4.678483385860475 0.5022853142721737 -0.5767611739935615 1.3143417654017622
Ni 8.554328343807104 2.4351112839768523 1.4496693997553274 -0.28512582750490895 -0.9552237026801033 -0.08120906468016337
Ni 6.6280800017497326 0.8216934491271709 4.848970517465347 0.7731973121705458 -0.3448633525748577 -0.5111463642072294
Ni 0.7680691938313102 7.2527077553671875 2.6382460365949454 -0.3502521276905968 0.11624985833438044 -0.5961712030890571
Ni 7.348770407773693 3.801805701415086 3.8066551867628444 1.3652046136899005 0.29352536442251387 0.614513967262303
Ni 7.532984247069482 4.159603754550645 12.651197507002125 0.06088629396241128 -1.1386747414513292 -0.7963464965934994
Ni 7.95510008471707 8.916149633673264 7.080138801266146 -0.18842715182957873 -0.07641421439468131 -0.9639083749382948
Ni 6.866387023933472 0.7255830939137922 0.43743023875970977 -0.6105015036688002 -0.3621275389719441 0.12122468584115252
Ni 1.7577404269112458 6.557794866113792 9.092962337480076 0.8748471612035644 -0.229348829744605 0.1632208277672802
Ni -0.01780754781095021 4.791809954090172 1.3795489738110411 0.7903542835658065 0.22375693747912434 0.10459299082174245
Ni 6.451453608905615 2.0096022466705685 6.9997694722678645 -0.5087534384950206 0.3348895291915974 0.4049621176389671
Ni 3.2030994730417746 4.088103547418885 0.1666934083790358 -0.3418109389017791 0.6986103807925903 0.35778648839442895
Ni 5.8826021372110615 5.628364177637692 4.792957521614001 -0.06535847080115197 -0.09718589972439391 0.37468377837039984
Ni 5.286344052888585 2.8732570648396556 9.212521772456846 0.9318929983739628 -0.49523586362455996 0.06614651392008608
P 0.2665956867123302 5.4980455095786835 12.242684169736991 1.11099527325819 0.10664755935792601 0.9277630353659893
P 3.894007126623767 6.127083522699482 12.714784448510743 0.2965281558045796 -0.5481543088901464 -0.34504538667867674
P 2.414185052659966 8.334013380291086 1.5610491534328337 -0.6141406430832843 0.8406026381983974 -1.4314346884627283
P 6.41789063403221 7.779544754895193 5.851765422753089 -0.6916185228557895 0.024415709840203113 -0.2438135990196833
P 4.772503818101045 1.1263352745059998 12.600467822025193 -0.5453569486506672 -1.4334404060388475 0.4266632567614846
P 3.978711110676762 6.192472370233751 8.278648422570846 0.04551392527139903 0.6171727450413887 -0.4274045058028832
P 4.61480553900291 1.0843298028690502 3.738009947619779 0.1670584563458155 -0.37966323386286227 0.10891270124301887
P 0.03344956820046266 5.400119747545255 3.5709997205988704 0.7973001187560204 0.06798999488672806 -0.2585107960205419
Ni 1.311062143988912 0.8962538363224761 2.7084195656638634 0.3517495381717297 0.6743666777538773 -1.421900780830364
Ni 1.8358920254164166 6.452605676694244 4.623774566747976 -0.19800682509821382 -0.3411689344424059 1.140365756000507
Ni 5.974389538058203 5.586313703352749 9.263870693870164 0.09483308322150119 0.6210301711142658 -0.29696524334199825
Ni 8.648887907770634 2.2987982632051356 10.20097163367024 0.1312735854367223 0.6235691354860358 0.3774651977702789
Ni 2.553936275738371 5.313651659690921 6.9037500224034325 -1.362378199984699 -0.5913269876228783 0.008416506198469377
Ni 0.7289861941550458 0.15213685185912185 9.147446143352607 -0.3029142618365816 -0.10849669675152282 -0.02629132959636117
Ni 1.4820272037154723 1.049425749085444 11.477058619691718 0.3762860898605132 -0.2566632012888418 -0.9400878754799293
Ni 4.060183904603839 6.832338020461739 1.7514670577809792 0.4490359680297299 0.26803776167437066 -0.42114335538451986
Ni 5.674419887594038 7.840298329686153 7.923288612903564 -0.7496771175614185 0.36034576448117295 0.673424368445266
Ni 5.151273105201484 2.8636805013466806 4.871114520436932 0.2863730696484488 0.25163977993232145 0.46167036896428876
Ni 0.6658060765842871 7.3765640431743575 6.752679733301751 0.4805427803887595 -0.844270573968288 0.18870611652257824
Ni 5.089997499693801 4.518922897188378 7.278566276904139 -0.06051939754129576 -0.3055488712459512 -0.9619725913681627
Ni 8.327154976736908 7.248810526050967 8.918456469409401 -0.8652590032944969 -0.5340168410474997 0.4946044006881481
Ni 4.723090910604398 0.29668445716065295 10.423862548757395 -1.130988428550665 -0.6256229326912709 -0.6807725812802211
Ni 8.075806187164709 7.055317140738959 4.706686545357878 0.12559941787008047 0.09548254388004201 -0.12281542736704008
Ni 7.105864114965038 6.004676320157697 7.13064527310903 0.9001804977620304 -0.019937876574507598 -1.2275150974245053
Ni 2.3701634623929166 5.106342461444969 2.427567940120215 -0.5845302764160192 -0.651436294209949 0.7500314155770438
Ni 2.359344825815326 5.1453507567255645 11.227900559023833 -0.5775715857099989 0.42985553844653707 0.923545654850532
Ni 1.0620624926419635 3.1477552165396094 3.7931003891872614 -0.8973599975940998 1.231511105957776 -0.7179689878248603
Ni 3.719765874123294 2.7386271431028884 2.4773885716076816 -1.3790037243565219 -0.8396477304842959 0.13760081320633077
Ni 1.338333748672854 3.449848991989058 8.14542798376923 -0.901773039060131 -0.36383552280198633 0.27004065103701236
Ni 3.5334369103718197 2.7217151479870054 6.957259070920431 0.11949664740645226 0.051634179236523976 -0.31794261692461373
Ni 4.120856474628411 6.950127951319411 6.062313011548639 0.3911722629437263 -0.28549683769108253 -0.285199875275954
Ni 0.779179447567897 7.414510275962311 11.262177275894413 1.2322852651196392 -0.5360032753499091 0.34379531632165955
P 0.29198618071015203 5.392055273024855 7.9215362097907045 -0.23228400111352895 1.5749151003782877 -0.07815510834518798
P 8.562734838452252 1.740918437091349 8.085911981798086 -0.33146790510455815 0.2832908311786992 -0.47419369824228014
P 1.9824836509898036 3.1782940134678657 10.349209456107223 -1.411877335156091 -0.399949237805408 0.6840126854840736
P 3.9024496233873105 6.180753680696296 3.9432742255409154 0.43311981102010566 -0.3452364196435602 -0.8356267822503609
P 6.854758339692003 3.944770113560213 10.433899939365821 1.00318840348484 -0.7135991408919388 -0.0902223239223672
P 6.2834497234170135 7.6897014684413625 10.11609663955487 0.21277215633284643 -0.260160672919139 -0.5177592415380567
P 2.375122754201778 8.428311928896257 5.75961980082792 -0.6931696693929933 0.3398319607985373 -0.14771270482935206
P 6.750901228653056 3.9879276529857908 1.507868624246187 0.8633142208633005 0.2593420336725856 0.6352725399658931
Ni 5.191199454501143 2.9888148643568604 0.40640451318016646 0.5101582892623472 -0.29219610408812907 -0.3004478025739599
Ni 1.3932459797542829 1.0723680990324302 6.926447557945335 0.338347662943527 0.33471263729410095 -0.06902332124724887
Ni 6.893460616966244 0.6842058592428292 9.125091527988413 -0.762386594708287 0.1815083132225584 0.06343271453334882
Ni 2.8984225455975103 1.6301039166726383 9.117135059823198 -0.6345215207324815 -0.7940934388932647 0.4181865867490411
Ni 6.182328773376061 2.2111061033253843 2.6124532189240632 0.3247254441744021 -1.541902392897693 -0.44014432196705494
Ni 4.2045704004255535 6.657340723474979 10.505812370753201 -0.7420275714359608 1.4074632652487955 -0.3198213220045653
Ni 8.134498640677576 6.94630272623998 0.3724734166461754 -0.052115232638000566 0.3542589348571447 -0.21755620798505113
Ni 7.6294159211895325 3.9217827609652334 8.290201502363686 0.180639794574676 -1.0274904705653145 -0.20551521766011704
Ni 3.344227777148774 8.255951787081903 12.464230405702105 -0.7558295103160596 0.7006232974575611 0.06649361284685967
Ni 0.11218170086474721 4.803456639390839 10.111183250446963 0.4273646537038833 -0.6879493015343184 -0.14902319611065948
Ni 8.55093514414841 2.288654666347445 5.841859439876803 0.25177733395145024 0.874594678873126 -0.49039241948932966
Ni 3.878085189763736 2.595536723543381 11.243655986086289 -0.464701956701761 0.022596140132961084 0.627750520557235
Ni 1.0302366199810993 3.2203084856344137 12.508571514769908 -0.9763689692991507 0.4339086254699882 -0.3986161208162812
Ni 3.0144393721242473 8.372193626848606 7.9374896485043305 0.7019541004538427 -0.10431788278348486 0.07080869528244578
Ni 5.723697787146706 7.87451834322026 3.554415344760378 -0.7915619307206625 0.04512363181151584 0.6512180075515559
Ni 3.0866956237422953 8.264736303970196 3.611533605646439 0.7772473138702033 0.6506744763432601 0.8638456678867381
Ni 3.5047882246592827 4.301209086726374 9.245573517249046 -0.24554497988849325 0.638219795519675 -0.33583852336842807
Ni 7.430810235065485 6.097786798855841 11.190001128989792 -0.6820511908823286 0.704672013605638 0.29563521167666507
Ni 0.5938972454087472 -0.2321785615800115 0.3486571152751593 0.20416178895601617 0.7583617898196101 0.03202488964602872
Ni 4.483433808980859 0.30273191299799307 1.6290220530148793 0.4598063191723565 0.19958651088050788 -0.40368736469160155
Ni 5.934310179755367 5.752058455912086 0.48227267732615714 -1.0318145518619648 -0.17859731022335046 -0.8806575972377543
Ni 7.941833304088644 8.68567307224036 11.08793512334098 -0.0028806639819047167 0.6486533321481732 0.6430760951707118
Ni 9.082074396824575 4.8864415222904904 5.690907957765825 -0.16024169053429824 -0.48163807033546735 0.6668621418467161
Ni 7.929286565828111 8.751691956846537 2.5181465698422563 -0.276006381702144 0.32158072789783326 0.14955361469283276
P 8.372994673982888 1.6520562083637718 3.6095057863278606 -1.021279456658596 0.038330005928450116 -0.2461126794665052
P 1.6515881808246413 3.1536685644859297 1.5394442821842087 0.7599990683127169 -0.006564797701711275 0.09023595076912203
P 4.687898839873633 1.1468564819909461 8.035365907624966 0.9201458851403636 -0.8882809181109669 0.3424254325573264
P 8.4421277418302 1.444603001644241 12.31003783288265 0.5019531277437356 0.5733806875571029 0.721125531175971
P 6.262919515402468 7.715514987330321 1.4401324385925862 0.19576970823757897 0.5409287376759846 -0.477874489527977
P 1.6788327839197874 3.245923992872202 5.9203845603603185 0.3894388251923874 -0.27089271462466247 0.01576831857785026
P 6.856369434490162 3.988395680524921 6.033555419427959 -0.03470192225755959 -0.03025134268537371 -0.28456558412606475
P 2.4988980372425607 8.471388463555446 10.167143143173675 0.6122120586020037 -0.0039875238928382935 0.8961922025382436
