# total energy = -381167.22556902334 ev
CRYSTAL
PRIMVEC
9.25720173892478 0.00000000000000 0.00000000000000

0.00000000000000 9.25720173892478 0.00000000000000

0.00000000000000 0.00000000000000 13.54885047720257

PRIMCOORD
 96 1
Ni 0.7707842375699883 3.1007089705692925 2.9692307860969325 -1.9197445143914162 0.9428255861260666 -0.5689686745323362
Ni 2.7954434869209592 7.255378127632209 9.888466033771097 -0.9178246932063547 -1.0900682932975356 -1.6185611192030125
Ni 8.507331344337823 1.8111530005103462 5.757096327696612 -0.622103863794419 -1.7083795228187415 -1.3215161716630144
Ni 6.0483778824391 3.917370048382622 13.474643027950975 -0.5930964208184754 0.4399849135710552 -1.6072523790584128
Ni 3.06074563077945 3.1542803968754822 3.361646343820669 0.3608448156047785 -0.021865689724839762 -0.8059500811215345
Ni 6.209619821855241 7.917730910111535 13.204235537348426 -0.5757977816390277 0.011916548931927866 1.0024294138316283
Ni 1.3621602030845978 3.0154223711984747 5.256290046569744 1.1655769651588122 0.24625280458879523 0.6889065232412652
Ni 0.6612011865863786 8.433181158626299 1.5233789994964597 -0.7644087673446384 0.5562566262823064 2.849409651876125
Ni 0.9243195565610556 -0.2029354502059196 9.251128061757397 0.8079565700286022 0.7806627673096554 -0.4033109551887893
Ni 7.202130703385932 1.7753183726839665 8.164496433262316 0.5865064263057834 0.5474261724748701 -0.30411033902721174
Ni 2.9374859899868264 1.401281137518667 12.791117173716419 -1.1481916798028289 0.6474387430147818 -0.3784015935416193
Ni 7.889431644478561 2.773439118452009 0.9174821873767198 0.6817269747736905 -1.4209654135002883 -0.19870050873112877
Ni 8.811023103695149 7.165138925345578 8.889305704250818 -0.5899769013528872 -0.6626018239084653 0.7268516350264708
Ni 5.7869267344927176 0.1768107012550474 1.681927093214467 0.16982187802356558 -0.5494408889120537 -0.3522146507336063
Ni 6.859345781199671 3.790833358184021 6.7210968793953 0.6818969246926514 0.15344060845206478 -0.7520836701203822
Ni 2.4464747539912155 5.2217653127855845 2.1639819865539107 -1.347004545742106 -0.798261197117709 1.1659960549741015
Ni 3.37241709801235 6.978995113324693 1.2897883258219127 0.8919835637735347 1.5035793289477783 -1.4765068982110185
Ni 1.15111451845897 0.8846339328225669 3.970260144642823 -2.1834466248049105 0.09417102415747007 1.3374215300393613
Ni 5.07083589607639 5.335925124295509 6.716395146645877 1.3612142615835847 -0.03376989736159346 -2.354102054473365
Ni 3.496630230581289 1.6921516725051509 5.180592982452181 -0.19893473622912192 0.7088773099362372 2.8766299210446586
Ni 5.583157210412565 3.6666387400185054 8.699717287472973 0.21690520466461352 2.80056820489339 1.0641412890191289
Ni 8.86727911849776 4.716479471750377 4.720784996266535 -1.1616053821055736 -2.6489289113161214 0.11210755403123274
Ni -0.014414388785444576 9.091349685931892 11.446787266848919 0.04047610573717545 1.501541986802775 -2.185179291225301
Ni 7.6318685212511355 7.573353749230845 1.7456749613624387 0.6424153216582614 0.36215427844482145 -0.5637444500189194
P 5.046109910304169 1.830111749616114 8.183980065705143 -1.3915198545456615 -2.1590396567154557 -0.383887556356855
Ni 7.761515631224902 6.5501367296221105 3.8679532542046884 -0.07735575237234418 1.8362168288804053 -0.5250861142167731
P 0.2599922129566021 9.382729367012525 6.967049620235785 0.04664341089015192 -0.41124306555167245 0.48547338492115744
Ni 3.4868916543804747 0.17169794874961997 9.078353500448696 -1.8114141680144284 -0.43508721915912163 -1.572938436267891
P 5.684764256401287 5.993991822382272 10.379490229849104 0.12593983192863473 -0.872848899826613 -0.1352024881774833
P 3.8273159901302263 7.635636202347839 7.576896480325951 -0.09366400261406449 -0.028561356577460485 0.931329669671325
P 9.181690717437354 4.116399885186333 13.117888988381608 -0.4856790731740603 -0.8072099216705647 -0.2576350782838079
Ni 4.6160018043704945 7.926941825814777 10.901188163799162 1.522113383196224 1.6780222506831233 -0.912860407222544
Ni 6.081379806541669 1.5749925276406036 6.030810490750616 -1.5549517698824833 1.0887881410335314 0.40535163976790184
Ni 1.6718043431426133 5.393060573260741 12.523039720784729 1.777937633523538 -1.0719787827856764 -0.4844403156709528
Ni 8.147744601044643 0.42800857258543895 3.118755885306448 -0.5896187466825201 1.21861419539045 -0.7421090754061734
Ni 7.406687089611589 8.670498781710018 7.0089282750598 1.1121687247410008 -0.5153568027441512 -0.9027562289090064
Ni 6.398031648295516 4.834823538434035 4.489845585162248 1.4560900251175632 0.7435103266290743 -0.34699659686777656
Ni 3.7617935164141025 5.600125661150296 8.370981094604542 -1.0137780060752284 0.8801536610181422 0.6399969420247559
Ni 3.6572334230793158 3.325103540063337 7.374611811400371 -0.9523427815878825 -0.25505703314398653 -0.6893945186212772
Ni 6.2616267810721356 6.804209887804187 8.2688093593114 0.5060864331858188 -1.2458403780962544 0.4865828159352523
Ni 7.749101723729377 4.419221467582751 11.17314068136741 0.460755056238871 1.3490125773110702 0.5508691367181481
Ni 3.1243518637412313 2.3206601255261345 10.195171012285615 0.4925308059885712 -0.43517437955628924 0.6760337810436551
Ni 0.3695854468620947 5.935652937194504 0.6906603795938413 0.4395650524248172 0.5757576724297115 2.7920737942691334
Ni 8.576982530017409 5.539981621628727 7.338693868758585 -0.3817591971599425 0.27435110548690816 -0.5059625060134447
Ni 7.776530812401442 6.811180560693173 10.959285436022252 -1.4881593948482823 0.08248356051721278 -0.5364892138473922
Ni 2.0919609572361026 8.776715914151216 5.841058221502471 -0.971326521779237 0.8738459736325596 -0.5358081286199675
Ni 5.054756136702992 0.9428645087503056 10.479100497428592 0.6994187356264987 1.2461342551875894 -0.37901223054242467
Ni 4.37536084587224 6.236539764433156 12.247795342287764 -0.1923156882507075 -2.0395581788176553 1.7478534125436478
Ni 1.0455268757341731 6.238844807659395 5.298833368476667 1.2635619637457336 1.5355563960750072 0.9297111602312956
Ni 7.553265621516238 5.791573849752042 13.235343437980761 -1.0393149740040684 -1.2519146093147924 0.22475221151285807
Ni 7.861252722467841 3.9533990774449497 9.032368350945328 0.521568845092134 0.3678803822953213 -0.7840504528349659
Ni 1.3541897524107376 7.310662136255082 7.5626838985378235 1.2361306070076583 -0.17767582685034564 -0.1378556095296142
Ni 1.0407779312560197 5.289185512852628 9.601880657457006 -0.32989747529364477 -1.1484917275417512 -1.1824416021246347
Ni 8.94768717256646 8.495509897751852 4.939789097203798 0.818279549221165 -0.677421148309485 1.009032520970443
Ni 6.612326610721986 9.03364954766224 4.8566122141031 -0.259726670705514 -1.2417014162272162 -1.4727024368632635
Ni 2.1394504020176397 7.667240288991926 3.6327046157035583 -0.08463351698068006 -0.33369628021444464 -1.0217872495329499
P 4.166722033691681 4.873620470808191 0.7149022137165334 -0.5633325592924814 0.25598365872331397 0.6997434659557691
Ni 1.5669665337564724 8.17029514441459 13.185972004091216 2.868768516018711 -1.1853513195722618 -2.047013863764752
P 1.65543761051615 1.4186198763248692 2.00732976774648 -0.5851928497006825 0.9880818868607049 -0.7673100001518334
Ni 6.775466276489047 9.088998356697095 11.3759807823957 1.393072543744762 0.8362163362052437 -0.08267999279873502
P 7.912769049994011 2.7836960979486842 3.7979188203742327 -0.7363258930654931 0.12323040341727164 -0.6836321622162034
P 1.6910685799048701 3.2954990089889993 9.080683538119557 -0.8586854638420373 0.3167969333559447 -1.2216604384159413
P 2.813837546722307 4.73896521470834 4.945438767408511 0.44884519217516244 0.021196945792589298 0.38306891711030155
Ni 1.0408427316680022 3.1112992093275924 11.429729021254586 0.8706351800047458 0.7051085869224243 0.7444410659734599
Ni 4.8225577461658995 3.521171072319272 4.835151243374633 -1.2110998892912754 -0.186736137280401 1.4002713754860465
Ni 3.4409389050830965 6.861493451996809 5.522470698870685 -0.13684079511185462 -1.5217529145330115 0.23006616752660378
Ni 0.9011432263553919 6.852495451932938 11.087688378085952 -0.6373718456970829 2.130997920086891 0.37860985289768345
Ni 7.837045139991482 9.156853645244594 9.266790321333593 -0.006411559953298636 0.10215558502484343 1.3064304809744856
Ni 4.431052171370432 6.0073407072506875 3.4597125101546284 0.2110261201760172 0.06175764082377106 0.12776634361441222
Ni 5.708138690723584 3.8424700293324436 2.073529868627908 -0.5512092936663862 -0.214706654351398 2.675561940522618
Ni -0.016035324805180842 3.2892318834301104 7.131951857208773 0.2581842659190586 0.04119498618107099 2.016396653099527
Ni 7.325862461465858 2.4966395300674624 12.12666856076954 0.496579522136648 -2.426235896325138 0.387848597887132
Ni 4.383562726588896 8.913778042696135 5.922528076607514 1.630026953750767 0.7240277924244305 -0.037850238078554165
Ni 5.496269115145605 1.663926464485871 3.485428090789839 0.45424168060038544 0.30710901664421947 0.24983872216784073
Ni 1.5730485152811253 4.925136798334361 7.202189949476888 1.716031640047361 -0.8503648597914839 -0.16113052089715477
Ni 2.9628877514840064 0.1402160571681288 1.1093691673396056 1.186293628880873 -1.6672411009072192 0.616507343543248
Ni 2.4852346575585242 9.17602530998973 11.206389772755685 -0.37368978988824675 -0.1567053952462656 -0.33080918847463675
Ni 3.6343496204477446 3.594497367078444 12.664734153066233 -0.37194169684888845 1.0192390291897995 -0.7591737441979441
Ni 1.903641702812945 3.365650083561023 0.8174766372841389 -0.5927380090377921 -0.5619102250236581 -0.799208648632643
Ni 5.401058795539736 3.27159691416913 11.028235851532257 -0.08013717177222328 1.4499980532872125 -0.43090326298476106
Ni 8.672239135631836 2.0923590169097106 10.221929879553745 -0.2199455341528341 -1.1090029254185094 -0.7673341685215495
Ni 8.746916981840931 7.611798907939952 12.884265914501068 -1.7787935537659303 0.39181221052057036 1.9590078307674132
Ni 4.1763865522788 2.1779696183404416 1.298859457779306 -0.15850285346632056 0.3792354022968243 0.5450540726982678
Ni 3.203732368419921 0.47776695750653786 3.484506999219515 2.975444100401095 -1.3448247644819677 -2.2011103606332605
Ni 0.7136071311970523 1.1602698909519407 13.135380471016054 -1.430876244856097 1.1450960715966407 1.308880742287191
Ni 3.3530788036363983 4.755970694252918 10.402848001208321 -0.051126900582802275 -0.3028206736815107 1.0884508122987704
Ni 5.057237066761754 1.6861252341907684 12.68148043096288 2.816634514327633 -1.1447371455953252 0.5807857217719223
Ni 5.6147890686617865 9.006164915779904 8.401004976916424 -0.2505303489182266 0.2632948476727465 -0.1405552678489644
P 4.904919069795788 8.236484136653962 3.6625387253803487 -0.33640699427738835 -0.06407420477208965 -0.07225776902414652
Ni 1.8776937664147682 1.4722931318498884 7.501849271768555 0.059232303298756055 0.806970809076565 0.17892615431767894
P 4.032724038913368 8.533158937113745 12.956575768512284 -0.030603840928786003 -0.23654071950735392 -0.13787592124458836
Ni 7.9887429044427565 4.645347133796902 2.149606478015656 0.2259266914369335 1.403355670838325 1.1877306184377157
P 0.5690624065084857 6.235688101875671 3.1903751520699632 -0.892013902790838 -0.29819063110866706 -1.685763842301755
P 7.46582209414657 0.6917666151984014 13.46984687174409 -0.22651573117118406 -0.7789301008892648 0.02668290860782501
P 7.24973123458801 6.5657721433133425 6.022735433697411 -0.8173426392291925 -0.08127282803856327 -0.11031112425244227
Ni 5.787269250956054 6.2127580132355416 1.3937568839673153 -0.05982854212185826 -0.34674719986113184 0.04157628077988969
