# total energy = -340871.5337874284 ev
CRYSTAL
PRIMVEC
9.20630114734047 0.00000000000000 0.00000000000000
0.00000000000000 9.20630114734047 0.00000000000000
0.00000000000000 0.00000000000000 13.47435231631342
PRIMCOORD
 96 1
Ni 7.590678208052494 6.7762059459083614 9.117932691015938 1.8233158045480211 1.8728823026222392 -0.17814016808127386
Ni 7.6028949697641135 6.379948329034567 11.608586088349726 0.5123051604020209 0.3679423458815082 -1.080789439098771
Ni 5.1135295339702305 2.7213366074952203 12.004664182349838 1.083364656025115 0.10859645555418071 1.5183032654215143
Ni 0.6024741609276154 4.967784579443744 3.5285156378172386 2.7150543421902853 -0.10230805144230767 -1.3403369039139432
Ni 3.043170485351131 1.1509349526298567 3.6663846016547352 0.26036944649583543 -0.6231289626248236 -0.410944303364331
Ni 8.294140890152384 5.784926668940076 4.935264241033702 0.12780491016183151 1.1874961338294066 3.1248107958941023
Ni 4.285247820004374 8.62054109341068 11.321030031805702 -0.9215111409190064 0.33634271669835625 -0.22023349770689815
Ni 5.560366569716397 1.0650217496962975 2.2501498256668673 -0.7550761770898028 -0.820657048314406 1.0328373366995245
Ni 0.9072045723872588 0.2947010669165852 2.379502960880966 -0.17018748889310045 0.5399941416768571 1.0594886207384657
Ni 7.013608835326245 8.255142998207834 2.766917925438249 -0.6699055566587302 0.09076302691718562 1.1685329624633425
Ni 5.179142842725853 4.850993442236807 10.61811328336783 0.0010837199824820045 -1.267337628738082 0.32513193558420134
Ni 7.550004769286906 -0.008874874370761997 0.6141947030037742 -0.01063588244729136 -0.39486179598017157 -1.4941477512212333
Ni 5.980772314675781 3.4526759696725673 2.619319742477287 1.243050216945627 -0.5900977432014676 0.7765993958735593
Ni 1.0158232760060983 5.378348788404846 11.767044024223294 1.5020286966312069 0.6845297343298081 -0.168864913426935
Ni 3.1384557029210347 4.464144665204215 2.365611572978432 -1.5440775461721408 0.9679457782324622 -0.9523602650893792
Ni 3.6717583196736285 4.843821733590725 13.10756709965337 -0.7542282272672107 -0.7305779348381224 -0.049245110179057125
Ni 7.248654911633221 6.07481468158173 0.43375304046014246 0.08497290259796979 1.4372330403120603 1.587486509285395
Ni 7.591819789403089 4.031798347569646 6.3542894469196805 -1.7189377579505623 -0.7508495406029649 1.5422800879520857
Ni 1.5269847383378603 3.2029734618321344 13.096882266463842 1.0874084870771854 0.17060966403218358 -1.1704407210090164
Ni 6.980134724110383 4.72842995416839 8.669466139954809 0.11339567671503696 -0.6327754845756521 -0.26764464000101007
Ni 0.4711996706500537 7.409350899332028 3.882796203673475 -0.9732404509724982 0.796777413483331 -1.2910730246818087
Ni 1.6184033093976804 9.087484691009278 0.21474710275916123 0.2526319686422617 0.28789413427866545 -0.8272642692182786
Ni 4.306836596352337 2.927125058542568 1.1092423763198258 -0.28409070137217524 -0.9814209299007614 -1.400550340179046
Ni 2.9853549137241755 1.3988422317334657 11.922713371458993 -1.0064940708193053 0.6880125506720861 -0.7988936884953854
P 6.538895119502623 1.8880006341626123 0.5203254145606586 -0.4821803159921825 1.6992996720046605 -0.08263088472835446
P 6.4483603533593925 4.587730052707441 12.449601037525337 -0.8018517426824449 0.6402944186605166 0.9642737286975136
P 8.792441149687512 7.842599434485617 1.7576219169932197 2.4478300775561452 -1.070756480342801 0.7107359604115308
P 7.909823845953775 8.592765682646583 11.901504815351188 0.7826977954618133 -1.1427558534992384 0.39688731105063263
P 3.3554942540524806 3.6996349997510847 11.385033158478914 -2.116413337404497 -0.7003823850913486 -1.6136012040945757
P 9.135845391288958 5.449182069949081 9.944961427386504 -0.32785781915579665 -0.4965952058659318 -0.4969600454045183
P 0.8850404022133901 2.1204505335271038 4.076018974193174 1.2283797594176458 -0.492222530719533 -1.0886860682380284
P 4.788906146846331 2.3263126349841667 4.481569431512868 0.23345539571381083 -0.04024496356297585 -0.6231407896993655
Ni 8.811406130189349 0.5648084207687994 4.69170233610333 -0.9637831622143402 -1.6264307517590764 -1.4721421934844194
Ni 5.988625289611735 2.7310032237704283 9.457634158268917 -0.42458991917222366 -0.14323949954934684 -1.1272356463764521
Ni 5.267302383155747 6.742777866198572 12.47303291537644 0.6294363929000901 -0.27134214345725527 1.1387968688514905
Ni 7.1514179582058475 2.188908589358002 4.765756902442513 -1.9083678971233586 0.17364562264502997 1.5729284089655622
Ni 5.1838932941525275 5.544016178759475 1.210474864474285 -0.27712506868761955 0.6173776619633431 0.3468343602582995
Ni 3.334264523451882 6.4296439429903485 11.039078771441055 -0.9615766414813246 0.46616568573148104 -0.03663230651105304
Ni 5.7745327548689245 0.9555864471597334 6.688075865642355 1.6411806563747413 0.9137826619264973 -0.6316488271703767
Ni 8.419935789947086 4.05800868712728 1.7548057094517093 0.09607826848251196 -0.029290264323685044 -0.2231758681646737
Ni 7.058903837301503 5.810980501377064 3.1429060289281154 -1.572228297574744 -0.20949862778789724 -2.322754136289703
Ni 7.192745044357663 1.4484826078819601 11.6728451501967 1.0129004885662816 -0.262231953625871 1.6453203895747275
Ni 4.129541647563816 8.160870473771523 2.3986907338721926 0.6059082278711629 0.6067065554027422 -0.7529997541767482
Ni 0.37097987562918744 0.050914528236579 8.266070877749424 0.482611232882014 -0.924691338419201 0.03100287613941757
Ni 8.402793657085718 2.856282570697118 8.599358314946274 0.3358639772897248 -0.003231362453104112 0.9587684826085682
Ni 5.490831376643404 4.9330676175639265 5.773409586120757 -1.02179521995275 0.26221421301405806 -0.9529174231444298
Ni 2.3910789640280576 4.34813606360051 7.11657394936927 -0.3340433791412183 -0.6613849207822288 0.24411210409670864
Ni 0.35007604809158144 0.2894534752243297 10.599504586722993 -1.0188345946625292 -1.1828352380186276 1.376120746381772
Ni 5.611958681722362 7.016932310064673 10.193657686504194 -1.6426724104289194 0.16617271130675254 -1.2679729483292357
Ni 2.8964128376910514 8.448024214952474 7.334238528983301 -1.2753209040538744 0.49920384713337246 1.9358247077827306
Ni 6.26200640417582 7.073854870473824 5.092470119942099 -0.4914504284401988 1.263031288053244 0.32019053241852596
Ni 7.944724933857882 1.69735654861309 2.6583682690785184 0.4827960951993105 -0.008577714366682001 -1.106505355807636
Ni 3.687418238039465 6.461111080541453 6.526315629523153 -0.7871542885712701 -0.9449961114148241 -0.32557802198268443
Ni 0.31604771754260785 3.617275429086316 5.458998748934084 1.845887262090634 -0.30659788133575583 0.49991321449557136
Ni 7.736110148337688 3.6915610735859827 10.98729700963007 0.6722974539296744 0.5063096049402184 -1.7067116481980156
Ni 8.863191574520817 1.573660685495291 6.793175920937019 -0.4045103748135291 1.4114281634338144 -1.581732380410437
P 1.7409391785624544 1.7684015750852584 7.523606621184497 -0.054911307325898974 0.9470925889325367 2.226823449128649
P 7.3316405107805735 0.8078105825853317 8.231886040079806 0.8524947616502931 0.54849343739712 -0.647297332340911
P 1.9304324764601664 5.38860460795778 5.3536298696439575 -0.6078123868724112 0.5581859820945354 -0.20466109718993786
P 7.384134840305558 6.448286702949677 7.010692279101497 -0.4347892283027286 -0.7299927517586137 -1.2084516530351512
P 5.875194452348086 7.839717862205484 0.9095457347861019 -2.219579880192358 -0.3517163709409491 -0.2043409948463578
P 5.401567080067773 1.0623979538501698 10.618826771711952 -2.087435205004592 -0.7572585294531022 -0.6322718054663562
P 0.10704902926177008 2.191974287662425 11.608653294348592 0.14372672359841054 1.0460312096819793 1.141239416854712
P 5.507817002384125 3.322572520909488 7.195424998641199 0.009699743786267164 -1.2852098810328123 0.7356013561946428
Ni 2.1395536085471565 4.709639893389629 9.858172705207446 -0.33792754468697284 0.45331839745516767 -1.5480182759874435
Ni 2.460604950799836 0.21499659352207373 9.682993364438014 0.8274612157204331 -0.39833149969632686 -0.18664306334596242
Ni 2.8477115042664343 3.4103914281944454 4.606948206492675 -0.7826810832912648 0.8379772847604083 0.02519089744333081
Ni 0.8492619538035432 7.370224119170474 6.238422622354678 0.5437124710687088 -0.4475627259183131 0.23225109099306454
Ni 4.213401845326545 8.79161258257821 5.5360453631679745 0.7345569740905284 -0.30017320875633463 -1.5104675714271794
Ni 1.6530466208677812 0.6160433282876425 5.711036895392632 -0.02719404391628865 -0.6609666022978875 -0.4617194770346693
Ni 4.455509154665029 0.6009284229537036 8.501278984957775 0.5941037790370671 0.539073943855433 1.416311973888677
Ni 0.4408299242037159 6.85581283251 0.01628318495805679 -0.4699855736982035 0.6150757533030439 0.08713160081218542
Ni 4.785490609095758 5.141516689662261 8.166912569258589 -1.0258241386064848 0.18853539527266885 0.6909060701697971
Ni 4.325930465071176 0.4318132727942508 0.0435651379770569 0.6672344375844702 -0.7313448949111341 1.2737018803932127
Ni 3.069979234487707 7.0493476966408695 0.04357710616863572 0.4882540329900881 0.8871689159937108 -1.3852749020772144
Ni 8.586827618363241 4.55218452371832 13.03231295226594 0.770682259058176 -1.5928554869067924 0.09923455472330651
Ni 1.3023417824032508 7.285903606347021 9.46743058339125 0.11913926406703351 -0.8135476909631343 0.17299410510396013
Ni 8.903782156575476 1.8922171201188456 0.47238544224647916 -0.030937827229437047 0.6941520879109206 -1.2525784681510364
Ni 0.06889443450846508 5.396319488375517 7.68370880245497 0.27325632976083264 -0.15535068099058408 0.23100719128363442
Ni 3.4179590077927506 3.085620740251114 8.831292661442754 1.1980353427978334 -1.4309418079867098 -0.2326601535060251
Ni 6.970882391389828 8.851352271158992 9.968635430959548 0.2024797732679029 0.25667708524591276 0.018255860886394366
Ni 3.555086864382481 1.846590691299866 6.332285466386944 1.2702720287760576 0.8951215951818843 0.9879235069059695
Ni 3.7730920771414476 6.687567677815315 4.23638997945911 1.081539172780602 -2.004989182593534 -0.4167262001534307
Ni 1.3513837489728038 2.3318548283152856 9.868629222126858 0.39928589318979624 0.7007839914051415 -0.481333651721171
Ni 1.4871674855852193 2.8719148701593107 1.9697212875230954 -1.1159117367232005 0.038260843253411524 1.309604507827093
Ni 5.398326462040274 7.642205875949958 7.632345006719124 0.715974840212967 0.0256179576784204 0.3958712110812924
Ni 2.202745660083371 6.804312783516179 2.066413227918572 -1.5139776414629667 -0.06593928300528644 1.5392618699510523
Ni 7.951427121142025 8.513490222888665 6.4518025893834885 -1.1085455261661166 -0.22528700097040558 0.5607033491997504
P 6.332075562719254 0.08655119960772278 4.582990648842224 0.355737062064568 -0.4420752204411805 0.41431553382940906
P 1.8815286044088304 8.12285765605692 11.745215884043754 0.573305097124161 -0.058132642476674073 -0.614252228960484
P 1.459428900025981 5.088377919052262 0.8488209719753695 -0.1581225873087664 -0.6376451539631276 0.279799273085673
P 4.8211189947958095 5.104295613852104 3.225517852246161 1.911241362016412 0.9689104561385765 2.0733900397654352
P 2.7729931636096867 1.322614057677543 1.3905399892982444 1.1354657475957284 -0.9910553676667317 -0.5349807476226658
P 3.4795307503152153 6.839987200722303 8.819286724028947 0.259846741223146 0.35006263738761 0.015007014931793511
P 2.372629536394233 8.111616762274037 4.510323472096064 -1.0691353997996105 1.7147147210081501 -0.40592216755939126
P 7.885694130470615 3.8846632415597724 3.7749876545615098 0.23329855842097239 0.46379050063108507 0.7878474579835527
