# total energy = -340861.81892474164 ev
CRYSTAL
PRIMVEC
9.26702982548094 0.00000000000000 0.00000000000000

0.00000000000000 9.26702982548094 0.00000000000000

0.00000000000000 0.00000000000000 13.56323487532507

PRIMCOORD
 96 1
Ni 3.7533693930303724 4.9289940339633205 10.22644794457026 -1.7046059147089223 0.763316562721724 1.3620362432642479
Ni 1.9969614735756596 7.6075548009802985 10.104515149321891 -2.9477242658883234 0.07268791458302964 -1.8128863816845808
Ni 3.8666124946313425 7.830334192345873 8.887865368389965 0.9233391952666807 0.5428460093033555 0.4778022415291449
Ni 5.326846148360442 1.8466224525222612 0.8805689056789577 -1.211308919978288 3.4260975494295893 -2.735794145840798
Ni 0.4063944622740266 3.051920122205315 7.818784693366717 1.3691384015266679 -0.23159674523851728 -0.3647590630575202
Ni 5.8027637200314235 7.373932984993356 7.749624851529725 1.240879177436237 0.09161663316673253 -0.8266166083319506
Ni 7.463508093019131 2.5028764200324303 1.6432269069520022 -1.162337632285908 -0.7806095454742169 -1.7447400637256467
Ni 9.0356596631177 8.438112328065971 4.515146099789321 -1.0614434304719913 -0.6168135619297571 0.22824196983367143
Ni 8.402471332259315 8.54840851425703 9.334638131997524 0.6973065743795024 -2.2030926811706126 0.7672068989150658
Ni 4.140379082806126 4.6738263741775015 -0.06274798406303814 -0.8479979022212042 -0.5971803610798618 1.854529254036348
Ni 4.734757093737761 5.083253008533675 8.199463148525956 -0.18351788745341943 1.1126775460566192 -0.4243374368417854
Ni 7.085098206703747 6.224098487411922 9.425525451413373 -0.10748779587103426 0.4945645485891482 0.8883313117329281
Ni 7.558207868408682 5.313325552187298 11.627421724174342 -2.3095679766167323 1.7206418851258622 -0.6483941649495156
Ni 4.133595617145576 4.668775843050453 4.387611385153244 0.8887825403377337 -1.7968586387977572 -0.5353283607700716
Ni 0.3472485726129768 2.2876589248130426 1.2142320129116546 1.7596023255494597 -0.3501274291872744 1.3824063222801675
Ni 6.572112516669108 4.0016053146821875 4.837083634480634 -1.2179277108463862 0.16780047671816262 0.14224756794972274
Ni 0.3219236341469269 0.8355329952730336 6.490034435582382 0.4179011942981384 -0.03393290530201898 -0.7587991344673448
Ni 5.98561148088975 4.107258719048199 10.076520379630697 -0.34327672481402816 0.5087151290579175 2.4384959446394134
Ni 5.588695336481309 6.513183475500486 5.327353981582024 -0.14622326476801914 -0.05130867757630519 -0.05175553530573668
Ni 2.9652177933527235 3.3228788004140513 8.548866305518821 -1.9492252974593525 0.7380223069313095 -0.9659359468912848
Ni 2.705926305398948 2.5982341545229364 0.5664008485966668 -0.06819645447057932 0.8322555517852827 0.3753183266306052
Ni 4.457691443028613 9.353583647293187 3.633657904774945 -1.1863303956560796 -1.4860500618147634 0.5053194731128071
Ni 4.280487303191155 2.9990239173003777 11.659661720121132 1.1008473861909105 -0.3707667027041809 0.40223983361179766
Ni 5.168101931468085 0.8100014020471064 7.507765572939418 -1.1619365401927473 -1.537125797444656 -0.8808740841239345
P 6.786125298041678 1.5603175733109715 6.363842513534029 1.1423043677841165 1.6206550256175638 -0.4385520377792705
P 6.125766036422733 1.9592724642294124 10.46143108720411 -1.500843418073854 1.8115954307872997 0.2957257145079423
P 8.018223217301655 1.1359988224021988 13.3668932203487 1.4889376677752033 -0.6210132018334014 -0.6530434907960689
P 5.087182229080223 6.260712521325624 3.0388424900466173 0.39456303379283014 0.04927776318920545 0.15291533207621405
P 6.330678594737025 5.087423171849587 6.832832053882844 -0.36650484210403333 -0.8718875643546081 -0.7902866635526646
P 0.7325447886173693 6.2925169668816405 4.470102775759725 1.5114263357960227 0.25090470153850986 -0.5179050230873016
P 5.945049692370318 0.7956495533196577 2.3605320654071136 0.9559672657143471 -2.1199208363371236 1.5435633255398835
P 3.2473617762776925 1.0952702273501318 11.612895655290583 -0.5045347724279826 -0.21194760354902206 1.282891774422597
Ni 1.5627826031821548 6.4763841009949665 12.037940014616325 0.9107757567793735 -0.8912549131376264 -0.4741268495600867
Ni 5.124435688035697 6.062120077192335 12.039133608027635 0.16906983034888948 0.9051915778233764 -0.8414711568462797
Ni 7.243138129347195 0.7228542557741505 3.9739191370763725 1.5222933604175137 1.6159514494943072 -0.09885917366175877
Ni 0.03940433652352564 5.1647194656674005 9.411148581706026 1.4857808673137767 0.9909615224013449 -0.7880480040301331
Ni 7.934597542273247 6.568544710276607 4.811855999825289 -0.886245375738177 -1.714411330835118 1.5031106168414758
Ni 6.171211549536576 6.148498060009246 0.6665422237620022 -0.13179243405466978 0.4458136044376903 0.823784023979162
Ni 1.9842656430361076 3.175634967244018 3.582388990266172 -1.3065019576423693 0.9703559303358513 -1.9486881940089602
Ni 1.1998949914315515 6.910090352879335 6.694636548405378 -1.2939056090345975 -0.7563833259370005 1.2333581864688434
Ni 6.114413925173864 0.13561093092455895 9.439292550573635 -0.38451207731473136 -1.3024020765413828 0.8256251909529588
Ni 7.19228993798185 5.22544631057666 2.9452834859997084 2.2573745824426283 1.4179201989160612 -0.5726448378323429
Ni 2.774659863874758 1.140419195517065 7.087847734383371 -0.7202747531399014 -0.30889207668657126 1.0964528566676406
Ni 7.513735393401886 2.9319862252397053 12.195653737818173 -1.2782262506261277 0.6968604879810192 1.0879468760791586
Ni 6.832506781144202 7.6729429617737885 3.0120959892413213 -0.4188656150939367 0.5923929669935475 -0.6044311291050042
Ni 5.643945366902339 3.83070275496655 2.3771876976908635 -2.587547165774531 -0.7572238195604248 -0.19263656192523598
Ni 3.6491245771621803 8.213377593456714 11.4024080519744 1.300995168891527 0.2998173680788127 1.9315674751682734
Ni 7.141339809291004 8.296410178591303 11.718891939751458 -1.255620854521786 0.4611242666528317 -1.785519559635854
Ni 2.3311305606240205 8.28977498540421 2.824408058827662 -0.9182507250001798 0.6635299921496894 1.014563220980685
Ni 1.9031420659972458 8.547871026540756 5.294924011528621 1.27016892753929 1.2962383709328322 0.03376192694179347
Ni 5.515022451233542 0.7249495311646562 12.360664320119906 0.07456661966298125 0.7952712612514498 -2.0791403119856517
Ni 2.961371976072494 1.756398652425122 4.947203747109467 0.3304554046796438 -2.8254549408327403 -1.0611796352876435
Ni 8.430346557268786 9.090585347503048 1.6970183069154219 3.266725663094755 0.030307135623973615 1.4969430545781832
Ni 3.316614288410593 6.790017450469861 4.521168742320456 -0.42904666939199654 0.9121952628347194 -1.4375372018160402
Ni 0.11695362024917169 4.257125121592461 11.470101849730108 1.8095421478026965 -0.24718122994033562 0.834810971217285
Ni 1.2124240154384671 5.26305191665659 0.42737872407969235 2.1619648007820507 -0.9147324274342762 -2.366862953683459
P 4.0622302222659465 2.900988011258098 6.429637496926559 0.5636686024756614 0.4361100039966812 -0.02134144179025357
P 1.4065312172497528 2.927945800338067 5.606973625646428 -2.9204849705563958 -0.0779915861841302 2.201052510812132
P 4.101883841885469 8.654636474457678 5.678383502268094 0.15153542100955195 0.08468493904390577 0.8528040653605957
P 8.060425270058678 3.119699176633261 3.456156293287618 1.210601095277986 0.9966968822232255 2.1526023857305443
P 3.4109711837052803 4.031973370651612 2.3279389956329095 0.2971729884774301 0.3644950107628561 -1.578006851929734
P 3.3968111624903634 7.203558645964401 13.626439551616226 1.2029217243558572 -1.1015266716461223 -1.8687363987746655
P 1.9275143538213497 8.621284434959978 8.01216906686991 -0.13026185634275628 0.27820956000104985 0.49569660531106235
P 5.537393060666009 7.401215120109007 10.444626255743945 -0.23255088162167048 0.5129224822710456 -0.7506351105993136
Ni 7.5393401961615805 3.982654239168768 8.510617567585282 -0.05060393819979672 -1.3702915412945045 -1.2003092264336748
Ni 3.294503155806672 1.1105237580567762 9.505060659580352 2.181883908303481 -0.6517584534360581 -0.9280422571693049
Ni 1.42870721906081 7.742464217764827 0.4602507314445827 -0.8798379295499363 1.4535855135281546 1.1654700072673025
Ni 3.573579751937049 6.7671834895578495 6.842285350768535 0.0009592785894757672 -0.03151555410977798 -0.02949261014247824
Ni 0.7950370026636981 0.9100009916597007 3.727733082370068 0.5958852964175221 1.9622276232562916 -0.7524477383280203
Ni 0.7175303472741704 2.2705519881882155 12.558686841933355 -0.48958303621415683 -1.143756783959927 0.19720104136746683
Ni 8.099495066813972 5.969421980194422 7.332691923204911 1.5811058025700317 0.14151608910033692 -0.14551415451613647
Ni 8.066198629493817 1.1096989924231848 8.180787303791387 -0.904832651822061 1.9529351422107724 -0.6304090412260046
Ni 6.642087857110101 8.883254094465528 0.5677139866896993 -2.194680031626885 -0.9295985459128313 -0.9587697681601487
Ni 0.2911811901820286 9.099389025614416 12.07986405648562 0.22819286176329084 0.05519901376964687 0.3047631421198622
Ni 6.288235599210639 8.9035766903584 5.691133081579273 0.37026662313931075 -2.1383268496481365 -0.0023433034211959645
Ni 0.5873443354721326 4.971103416424434 2.405846913403724 -1.3862524354991352 -0.5263289854849387 3.5053250649033503
Ni 8.060360400851541 1.2247769658831555 10.793825538085809 -0.03955539369511897 -1.6737909862105949 0.13154946480592827
Ni 2.669923895438247 6.205249349224003 2.121208246112881 1.3627931760349303 -1.586720577653648 -0.34760414854478844
Ni 8.541189498205709 7.15477700219783 12.868796866757783 0.676787371380228 -1.5020659776270455 2.671461802311315
Ni 4.495964275239088 7.981544314180818 1.6411918672538377 1.2941141255009778 -0.7302835435261552 1.0102890190853635
Ni 1.1756431749921292 0.9109971973407239 10.052797710580919 -1.4113916537689242 -1.5114733869838743 -0.5930809941995075
Ni 8.279794394534795 4.933581213610822 0.23466991703367562 -0.9646534806344355 -0.6703483006231036 1.225648990750044
Ni 3.7292009798572687 9.719353305246566 0.2808716197621367 -2.2438845183759937 -1.569345319599994 -0.8447058617334937
Ni 2.170069586333934 4.986134538420895 5.608926188781234 -0.9924077679295683 -0.5106704530120754 0.6084003981653975
Ni 5.09617124778341 2.1092315370695833 4.42221169353684 2.01185119982069 1.4645137304048843 0.37981261495653296
Ni 5.0860516514701315 2.85041783078048 8.396456103351854 1.8748088302209907 -0.9987771617910218 0.27943211955424135
Ni 8.435526826810106 4.004848775039007 6.031448062652329 1.4516672134595194 -0.564001303224732 -0.04964723071348224
Ni 1.9913641877027477 2.9525868320203075 10.802845137986646 1.1836268806819874 -0.8322342116290442 -2.9880016253511315
P 2.283553630704268 4.281997829014474 12.247722396980642 0.6091563024948154 1.6071559626898644 1.979054207895327
P 2.065009271861742 0.8013089282908289 1.8642390757745886 -0.8526845090635962 1.722696453662046 -0.9556584762246767
P 9.200862999634925 2.6787368405792065 9.889564544554721 0.2574741272259114 1.5769041057838584 -0.608585774703326
P 8.947400473293834 6.830013950184246 1.6128041755079905 -1.2085840648479573 -0.06555284620014516 -0.48442283216945603
P 2.409761306702926 5.52370565796023 8.383408125687845 -0.2975630248269972 0.14778803815197775 0.30153100833580976
P 8.3577115793352 7.966476124065991 7.114255988608599 0.025437980457130385 2.6363716434764015 -0.6189671179376501
P 6.270322431011401 3.9552145645500714 13.787027907397174 -0.26652980967027645 0.49721921260317586 -0.41798526937151237
P 9.13480761271089 7.039430284879722 10.758140987240077 -0.5244968173722063 -0.40431111431852956 -0.26742866733546206
