# total energy = -340867.15260265046 ev
CRYSTAL
PRIMVEC
9.26724627114513 0.00000000000000 0.00000000000000
0.00000000000000 9.26724627114513 0.00000000000000
0.00000000000000 0.00000000000000 13.56355166542990
PRIMCOORD
 96 1
Ni 6.133156091403048 4.883542102981946 13.292348300541121 0.8892895618811393 -2.086837166409277 -0.8324111035265405
Ni 8.976782732249742 8.787740180598165 9.315718354722852 -0.08917177117066578 1.8392473881766132 -1.2327321228490706
Ni 3.654195581616189 0.19042522475841722 11.52980521881434 -1.3576717956479651 -0.5175828638611925 -0.5161196490521047
Ni 8.881005744587648 4.439159121620287 4.805918723557033 1.4640005382138916 -1.3323402588617117 -0.9657014622829756
Ni 5.867028587320576 3.1744858584095477 8.030774844282961 -3.0832756527647933 -2.29976693136591 0.24741777143117388
Ni 8.232845290395629 8.507127970979566 5.304325115617886 0.5026717510773149 -0.1293642842291514 1.032220786161448
Ni 4.043104828275835 3.9425181399270812 11.739864031000034 0.46426024117865206 -0.8402249431440046 0.20807757907065452
Ni 3.2629787906964696 3.900917472523584 2.625388557319871 0.15398362543972838 1.048942469791503 -0.1416726692828592
Ni 2.64241619516509 2.3900598186748643 5.323789112442917 1.6076822675069797 -1.5327716342410185 0.15859952694518492
Ni 8.451478158603091 4.396474186431937 12.233319860234657 -0.4245104720845399 -1.7974667046954014 0.9978790754567847
Ni 4.162837646910983 6.331465889079018 12.422354998089416 0.5951797857100652 2.2769576467808785 -1.739829770908223
Ni 1.5662757850745863 8.80138156674607 7.815114908600123 -0.34299081814249316 -0.4651328735915925 -0.8547164518919602
Ni 1.8023218085618817 4.079942131222794 9.716114352829733 -0.6844790835975308 1.7303231169693685 -0.3163567604947326
Ni 5.210759292857213 0.3296257471170062 4.309628970488151 1.1596685700941771 1.1220037085535515 1.34230559760454
Ni 1.4525296073711955 0.9371780559547414 13.089355763449024 -0.8297916636258225 -0.3372091784637095 -0.7131993343503588
Ni 1.9181160476366632 7.888937790430432 2.191571163150623 0.14738797450008165 -0.8556970706376748 0.26498149134655014
Ni 6.31939993475526 7.721043094206516 3.9382311119161977 0.4784416748853567 -0.363115099696194 -1.3879946150012223
Ni 5.931120860825272 8.122259243586557 11.869992846225346 -0.932089173545169 -0.05468813557149936 0.417130634680701
Ni 0.14106972588170888 4.160919326983934 1.434752249322604 -0.07481498822836147 -0.9582401209089241 1.7307386072402322
Ni 7.425000919957306 4.63278896005394 8.178035090508963 3.4809404654113982 0.09968295511463476 1.1191688102079178
Ni 5.593079527593515 0.6534817068592258 8.332428335999941 0.09410803213001857 0.9813772211470196 -1.3102190014826403
Ni 4.588500791303368 7.766267254805551 2.1685402033308034 0.25648708072229376 0.1889200323055972 -0.14510817732696946
Ni 8.750189299707328 2.119984467786 5.128867419913465 1.9642274272951397 -0.5094152404487355 -0.4088467974053539
Ni 1.5838742852749073 2.371015628094738 3.3120701730614828 -1.019885918745179 0.6484597280801284 -0.8526179174917187
P 8.54871937113704 2.6030025978233495 2.9616153637800524 0.42786576171001794 0.7594167134466857 0.06301028228394955
P 7.838959532620884 9.251621447595145 7.48078696085034 0.36808632765854027 -1.529959875823836 -0.11944702511543945
P 2.676621600241122 5.3711011835712466 11.1594388047249 -1.1819811175484483 1.4259250714984089 0.115923071122581
P 5.803835236680245 5.258995308414175 7.050157499313483 -2.3124229295670236 1.3285669078622087 -0.396362291785098
P 4.7687950627079205 1.813145951918372 6.104140344100676 0.29341146455246886 0.3677240592231151 -0.5204126200005037
P 5.183078028982352 3.253220380632784 1.321117278571506 -0.5545625264093352 -0.682208028175167 -0.0937665896301998
P 7.470234347802364 3.080831070087039 9.829153439661463 0.7855910578492082 -0.8248268634213793 0.5291392012402242
P 4.332057559316386 7.740949138666911 4.858328706723381 -0.3818766965744133 -0.6678651291899337 1.6947603893734104
Ni 0.4186886150344281 0.3259605513143591 3.7345750400087554 3.073493633677365 -1.0063806851698927 0.9708534387975601
Ni 2.9809857614202366 9.292452933578618 4.0609136949609095 -1.0926154851994214 0.7578755942118108 -1.0324514141150154
Ni 3.335578396051558 6.315943251988161 3.6698090377180854 -0.7104587954907441 -1.3010941563632366 -0.1626803818827779
Ni 6.11735543693146 2.493093059974057 3.8287738156728954 2.6164695052358358 2.1935937405412416 1.7218611022449444
Ni 8.663716627053724 5.2549825908856125 10.14949711316044 0.3202710079474742 -0.6061167443375433 -0.8504736174552063
Ni 7.56820767277224 7.306509912289426 10.331682829478568 -0.8828744023834149 -0.5291278883863145 0.6710491833448701
Ni 2.1805181188173304 2.049979691317741 10.20091642772678 1.0794383243875152 -0.7437065018002804 1.4417962342027106
Ni 7.052856121355785 3.8366491213444243 5.979599678228073 -1.7886681325671647 -1.124551671786386 -0.8907589473378142
Ni 3.642342773950991 5.9570506152015215 6.3125718278844865 -0.06959899124506078 0.8623384872135923 0.8832826935654271
Ni 6.969469441628304 0.5715277433671152 10.511698156777786 -0.40372078903269826 0.9522923879659213 -0.7261525520769172
Ni 5.749797925112013 0.6558754365073263 1.7225437944362985 1.5340137341782354 -1.003150608268369 -1.8392630719058969
Ni 2.3865382651855946 3.7668574915347257 7.126764261849519 -0.32288350586965686 1.6665517881496783 -1.407960516600188
Ni 7.970406150230864 1.9673343912722105 8.175742373842528 0.8731034390395802 0.0195385842535599 -0.6303190526153597
Ni 8.084254267640523 6.785598013258337 8.160741482702845 0.4064911526889838 1.4838779938641091 -1.4768185159141665
Ni 1.987898410200337 7.699960109501025 5.645191105437878 0.6826014069588439 -0.166913446127519 0.3925886836752787
Ni 4.836649838098521 2.2787323921838394 10.373810803180852 0.45579179869632475 -1.0737279042662993 -0.4541761174697726
Ni 1.6674648444149256 3.451178022959828 12.18289028754372 -0.16104593160314845 -1.4649114800639351 -0.6407824140405286
Ni 8.008689143557628 5.7708438408334075 2.9641916581748333 -0.2350746764847887 -0.08854750732310557 -1.2513242840289611
Ni 3.584922917583857 9.124586039092774 0.39944239849097024 0.022730865938612465 -0.6027493705272071 0.06699034997762011
Ni 4.391618149515155 1.8081787080492977 2.87038674046673 -4.878069438613721 0.5640452690887898 -1.0705865304238402
Ni 1.1670984298199136 5.256530220971686 13.318986999238236 0.7007276842459094 2.8074667317854356 -0.2601339334462617
Ni 5.687383023137731 5.933261594656907 9.407869069015602 3.5850732287672713 -1.1042199022075692 -0.83572114173638
Ni 0.7257662258494855 5.275852428932543 8.023776220085338 -0.78934923934006 0.5194911366274989 -0.6291029208200714
Ni 7.286399988416495 2.6207493739600607 1.03856821453381 -0.16740684082416973 0.7893001312696794 1.301478793396165
P -0.05478610504700222 2.5474176561690447 13.493563379845739 0.8214450914333401 -0.013720177799569919 -1.1769682377148891
P 5.660832363277847 6.778647578740043 0.4172475582776351 0.30027913820657964 2.4007588350999556 0.1613197540898254
P 1.4784964307315427 0.4894653530965192 5.6684657938281395 -0.5024370093586895 1.360357055789612 1.1605304038738402
P 1.4143763554887727 9.422101705459864 10.588128841639357 0.6756591713130558 -1.0771212462185644 0.40537606524793407
P 9.401528419285713 6.705464136885418 6.253909233825482 -0.6783994530623542 -0.4551994165279644 0.41545273275764577
P 2.1753933317658416 5.592801510212784 1.6401320289905827 -0.1939899906293369 0.3501366851586551 0.4272016457634578
P 8.428013491669331 7.843861905767788 3.1547327235085554 0.5117156064471381 0.23562592100256838 -0.8034926207199776
P 6.299049062485693 4.784021147925998 3.926376450801795 0.17246651473526428 -0.9375329702685595 1.1235872509905873
Ni 5.483401670894833 5.368969716985637 2.1214208909197807 -0.07694129054274491 0.3844310875651508 0.05983934075513566
Ni 2.0671240964628663 7.624543261354519 12.023572427515381 0.12347851487233572 0.09095071744795949 0.04811433900872358
Ni 7.539330934160233 1.3073303966610175 12.70320166903243 -0.7085582360339217 -0.7092169526638431 0.10170024265497968
Ni 4.441642743554825 4.305747847853136 5.048285935557567 0.9810200949179169 -1.891960916520245 -0.4840132554358632
Ni 9.250046015770998 0.4247364197899465 1.449319433348346 -1.0974183059047034 1.2258135413523663 -0.3616320873927643
Ni 6.936515114765565 1.3117694075067015 6.0152044374537885 -2.1504927955867092 -0.45862438304911335 0.3953294796452095
Ni 6.308103161851525 4.17561717917862 10.958386828950312 -1.2171234697775362 1.6017743866629768 1.0039445649245742
Ni 8.057694340534615 5.9419820731658595 0.5289271401175863 0.034293373965231265 0.834905330703304 -0.27052221865912124
Ni 7.395558879337812 8.285826135917079 0.3090904566515554 -0.48971364825475017 0.17414493087895172 0.4183267118713312
Ni 3.9695692310722825 7.004953726655701 9.805634095976158 -3.8283263272977943 1.7552167948872546 1.2356996901178265
Ni 7.611291099539639 0.6994935833703334 3.285783629713294 -2.8600864148636806 -0.47590039652074173 -0.4205448025685725
Ni 6.1839591341087665 8.174220692045324 6.631098194438079 0.774891154933201 -0.8166715813040968 -0.8880382059725415
Ni -0.19303117434047634 1.9821897866493112 10.847450480241518 0.2226716748347455 0.3302152636443797 0.11839441548120899
Ni 3.957586681962743 4.824055650751372 0.37257016519403996 -2.860982444315389 -1.3174795396997954 2.009927500435416
Ni 4.1010251159282864 8.116457947575286 7.399988622937472 -1.3757060274418564 -0.4884108702829266 0.2166807473586333
Ni 3.306859200621967 0.3225789332400583 9.146865425260016 0.4218421812237574 0.18655076074247226 -0.1330587023616031
Ni 8.881320830952477 8.783162161062116 11.658292804768731 0.43065669419159386 -0.20610194340152246 1.3820139719377553
Ni 7.360185801262706 6.138447688882976 5.19007943335378 -0.0488923548253287 0.7714587322128843 2.681961673401375
Ni 0.5359090832723635 7.90771323087585 13.822886088017746 0.05717130700466928 -1.6870046566873913 -0.988902325879471
Ni 1.3378845068034388 1.9790945264771642 7.847355657518984 -1.0798548430996435 -1.0716023732828641 -0.012842660290623044
Ni 3.2634514202437135 2.22695628864556 13.80009978349297 1.259963704871514 0.9490160312074946 0.5723779573242014
Ni 3.9050321297584145 4.684704072282584 8.53600378286697 0.6939037193455405 1.8332641740099849 0.5087274703530916
Ni 0.8280543805683176 6.219313677691823 4.239044064418765 0.5520819260793266 0.7327443463618218 -1.4499402034660835
Ni 1.225528416003707 7.009707823866215 9.914332404770063 -0.03864136652128184 -0.5512509455375991 -0.3381316902779789
P 8.855168662671643 6.522334088197401 11.947752454166817 0.817649886056966 0.5268056680110411 1.2235180604499702
P 2.22619637447156 4.420819241738015 4.645218190421854 0.006598479153124119 0.6088709100439127 -0.0775958934076083
P 2.073537030711746 0.790001214942958 1.920001932202627 1.5117253550936804 -0.03818191038636005 -0.9544875958450271
P 5.252128279110099 0.9305983112774229 12.52682095562398 1.4762148208918964 0.7284140944175842 0.9662262244381938
P 5.768341684406822 8.22953688356492 9.519293801589884 -0.8640117611509572 -0.8523708344779191 0.4947162436756641
P 2.358124888874808 6.741745405070913 8.088053838510524 1.5543635014791812 0.028305531812912545 -0.767235438160156
P 3.5850897280122958 2.613001956283669 8.550245686557258 0.0913780347933652 -1.6185716607259737 0.48745956211325076
P 9.080863172349693 3.5663513565509746 6.839705755896354 0.8679064682196729 -0.2768448184430394 0.8439468720802821
