# total energy = -381175.1992042367 ev
CRYSTAL
PRIMVEC
9.18364217079458 0.00000000000000 0.00000000000000
0.00000000000000 9.18364217079458 0.00000000000000
0.00000000000000 0.00000000000000 13.44118861373060
PRIMCOORD
 96 1
Ni 8.175719257592178 4.288816091258944 5.57883223375271 1.7254063963940414 0.05326657263362439 0.5934897996021521
Ni 0.7635463943920444 5.949833936806392 9.44787872585083 -0.45356085248327693 -1.0332096324372788 0.36327862185725174
Ni 0.6733437406146744 7.778214481006755 1.6085342477351376 -1.0040481803819739 1.3238098527931976 0.8820213103545005
Ni 5.987863399883747 4.70384325749701 5.449904915170152 -0.7494971403401286 -0.7834637270935604 1.5484260529488234
Ni 3.8326829417476973 3.525214595012646 8.04269695287434 0.17174609162947196 0.6505286947940152 -1.0006162718822895
Ni 1.9717188343987102 0.6754642436392002 0.9720279334174656 0.19205163595604344 0.21008818174278013 0.2500750065483629
Ni 2.782166090402938 0.8540668021956103 6.072796479665998 -1.786893042944613 2.3051770466378882 -0.4554794096622285
Ni 6.746955727723626 0.2114028556650991 5.5611978036630845 -0.30471351982884937 0.13837625791977456 -0.48107654140504247
Ni 6.34926727829069 7.6539506160225255 10.724495934118597 0.24893266541380354 -0.549885175538324 0.2743575332448113
Ni 2.868519879660695 7.824913302486674 5.490188044086479 -0.604406703624972 -0.5804085409381617 0.15909986362037115
Ni 1.6040608955339835 2.9716797344657975 1.7098270680452812 1.532491383996438 -0.13323070916309313 -0.20131274954299522
Ni 2.9234931629210297 7.975525037446498 2.53293856688546 -0.20739109452659124 2.845852530652486 -2.190016821823261
Ni 5.713511267555106 4.6142660097654185 1.5324027708056602 0.09640377014273074 -1.0191546970061092 -0.748320346423208
Ni 7.422146298820034 5.97777976055534 9.247309813096223 -0.16417650681233018 -0.12024766663986389 0.04386276282122123
Ni 1.2947466366814366 4.424385020007535 13.168669087258467 -0.30260367257469817 0.12954091901633172 0.4392876303937145
Ni 7.113548364072783 3.680427334802643 13.034727499938832 0.023092363043089262 0.04811639589125262 -0.9464174172423829
Ni 4.150400233373918 6.645476479473258 0.8977359400558207 -0.03744168978622584 -0.510961501889933 0.31444823061811006
Ni 3.167263766138927 8.288439284110279 12.749599281646661 0.9973640834935792 0.4923536569807585 0.5571359435634663
Ni 5.106334751892383 0.5410451069160341 10.897027186700498 0.39381381433163143 -2.04413499955506 0.9540739053463763
Ni 3.904526576052008 1.3653780301921679 12.83391613902551 -0.27707776038945187 -0.3376794332319088 -0.022197104922329517
Ni 5.523731297863354 7.029802729249697 5.874229600949273 -0.5003680426448028 -0.058691600303937635 -0.8251405380070564
Ni 8.28783316371349 5.680808317055598 11.582487825065536 0.5781770805044817 -2.181305152981875 -1.3634796605789938
Ni 7.082516836485635 2.557277055909272 6.603777232902614 0.40398715532020746 -0.454182802337992 0.971215193012353
Ni -0.019128608704134967 3.294484763968099 10.733407740679876 -0.5831182265598408 0.5315714648308006 0.35039148148193844
P 7.449678858662079 7.099662696800878 12.785782832606522 -0.5867936185288991 1.3938788416961414 0.941378569266895
Ni 3.0801385509216206 4.235192803427822 3.3486168255868294 -1.1544034650404957 -0.6963349544948524 -0.5172108252337544
P 0.6050238698898814 2.362492001122819 6.9070642672640545 0.7733068411652166 2.2838597732173502 -2.1684951457014012
Ni 3.3144040842807727 4.007658879929983 10.337658876516668 -2.125294699054527 -0.9986444928678995 -0.06318588862986536
P 3.3085724713722677 1.9614147876532881 3.9876918046769565 0.8843332463171286 1.686639817148805 0.43400632739011713
P 3.4635648037452507 4.402895296848634 0.4885440601832103 -0.24406556712948937 0.6515823328695101 0.629781949164967
P 1.7914990364199572 6.833539108040772 7.3960408770031565 -0.36296469016125876 -0.39193022415567336 -0.01718165398560912
Ni 8.14783771933986 8.87612811065198 3.6046310608198753 2.037210504521085 -1.385048644999021 0.9178154372349742
Ni 7.191563406053496 7.872475386349902 7.245230775368021 0.10107186504236142 1.1159701007649618 1.360474555204083
Ni 5.078848110262216 5.269776035250918 10.573256038020283 1.8093796540829032 1.244517802630089 -1.5970409857430494
Ni 1.8573916704648794 7.827558191490848 10.709509148125857 1.1124098942175293 -0.7343350878877095 -0.929648168203844
Ni 7.259026442944646 2.2472740238785556 9.484572887326772 1.0051753520078817 -1.067872988147419 -0.23575010528525853
Ni 8.84301189624557 7.990678047366234 11.344981384312035 -1.7654976079879725 0.032587961238350324 -0.5403960051009661
Ni 0.22418005730226986 8.139315299215303 8.87044527274996 -0.39816926308684975 0.029923784142625882 -0.4026470963525453
Ni 3.2765399267661786 5.958172684083436 11.965211529247433 -0.12722769750212282 -0.25167011894962465 0.689923908762186
Ni 8.700527684788153 3.7158394598029525 1.2841735092144095 -0.3885991028999114 0.9180362949965285 1.4157553300542587
Ni 6.626897970947422 6.886014440574945 1.5077254053781883 0.2993802805413941 -0.30947648843513154 0.26219287285781945
Ni 1.8233846427480367 5.751366241427324 1.5428335518158656 1.6447002394922254 -0.31307911818472534 0.6920137014116792
Ni 7.017083384559492 1.5600804321972404 11.672650989180692 0.9442492059464705 0.07421257875767219 0.04742271225833768
Ni 5.305197343893603 3.1560964570101993 3.708558668127578 -1.2920096775634653 -0.4394575803126754 -1.1907568068585492
Ni 6.234811543363602 3.9147020518041713 8.351131418787304 -1.1259423814863254 0.9230774569648619 -0.19683980137330614
Ni 1.1792990683777826 7.047848586517748 12.916135452485774 0.4761559641749735 -0.5262500526178872 -0.3673211673577416
Ni 0.0015612192038518147 5.670770595939068 2.9725053439153637 -0.18426479292177297 -0.567812449440706 -0.17828877784399616
Ni 8.84814555233353 1.4561583350749632 2.084203759671996 1.2675443454322493 -1.3351119080695781 0.457197935015232
Ni 7.268614165584771 2.214929235431696 4.3026990034381365 1.1127258827960513 -1.2075947043514945 0.19926795119882457
Ni 4.419774831534985 0.2572604555034147 1.5336131748707642 -1.0052442575726042 -1.0210881665833962 -0.40119647994894775
Ni 8.50826813165499 3.9708600249309587 8.276842180518372 1.259819980204798 0.037315448621006705 -0.6859374133106122
Ni 5.9046871508879475 0.8667099226540973 7.9749933045529495 0.9872758460196418 0.5353034210694071 1.1648285170285615
Ni 0.6421340503654391 3.1394005951713604 3.910767779410465 -0.2700401368163801 0.14898103001881438 -0.09261113586951793
Ni 8.059950261805378 0.05832806782014135 13.383916215621992 0.05936240111871712 -1.373263736548951 0.8524711075012092
Ni 8.592326010318846 0.88641893755637 7.624044084626387 -2.0432497687366293 -0.6674213567842957 1.1589854279842233
Ni 9.037466339906501 2.0507073424712363 13.191652989031878 1.317856206312924 0.41157910873485243 -1.2455616705135708
P 3.690400770422544 1.4763623483012804 8.259516320812567 -0.3539365185207195 -2.155982100836055 -0.31127548931708326
Ni 4.934765945031445 2.058899151470271 5.761579370113228 -0.3223456310883158 -0.24188192921460921 0.39980602735932436
P 1.1232788498866295 0.08810143640183302 12.565293681175007 -0.43386980181225276 0.30544397023697073 -0.7779818780433827
Ni 1.1286053624644767 5.204296665112897 5.184105508985906 0.07558246252200532 0.8587366287949468 0.1569933588003296
P 4.828832630228912 5.33399724638348 7.486284857171216 0.42814369796175294 -0.05311590598837304 -1.9905573234389202
P 4.121315637970396 7.740451343558292 10.752520737191972 -0.31991233905647487 -0.514551019013404 -0.6241311786370928
P 6.773891350811258 3.974083483404794 10.780397683623102 0.9198676917783126 -0.31035734837818807 0.27511806555991974
Ni 2.747259065733287 0.8280605637163893 10.813409204506431 1.0876589125250946 -0.30893707099189377 -1.2551236031703932
Ni 4.472654244333683 8.906608619696593 6.777423379668913 1.13072643313853 -1.169438504996747 0.36415922468999223
Ni 1.7730674661721302 4.316963955140155 7.772515112548458 -1.8923488959872827 1.021201809343125 -0.6728312149459574
Ni 4.191598053070854 2.5678933464954645 1.4544042593812236 -0.5204010500362779 0.8588484717824628 0.6851015476728782
Ni 0.8252081243945283 7.425810572127897 4.047330378264096 0.5158717947073568 1.4954862675269986 0.8559886337361645
Ni 4.730540105882876 3.5393574042710685 12.347008603913633 0.03280393390389834 -0.40990634901811984 0.12477280820372706
Ni 4.99220044444844 5.49400384749354 3.5588506035775147 0.46246946782681636 2.657685574462829 -0.4011705118070188
Ni 6.02249491528213 1.533411134738501 0.30750324457607875 0.847663915920553 0.7847323093933388 0.8041078857064733
Ni 1.220551989928973 2.2316067299857836 8.868334871732047 1.5055428804320523 0.10160511183801212 0.7507693221843328
Ni 4.359015853578023 0.03962098830104637 4.197575685893131 1.0175179327336348 -0.19311658688544805 -0.2693153428352136
Ni 8.72701330939938 6.28860932039986 7.175537950108076 1.5763204653662466 -1.203075476324902 -0.5050039987549174
Ni 6.466000556526929 0.49318363631136286 2.582079318873052 -1.6597908152767606 -0.07800984101657533 -1.1475291065181659
Ni 0.0858257298211596 1.0562198932600062 5.118767566940469 -0.7386586549637278 1.063060911470756 0.7438126883608416
Ni 5.779642676301793 8.348904385511222 13.26732712057105 -1.0508111475691257 0.39942833230493147 -0.717642714833693
Ni 5.209430321200856 7.052137347507153 8.486188818655574 1.0461993598287271 2.0791565099355678 0.7308242465209737
Ni 2.0528379475023755 2.6176778718135862 12.018533593608637 -0.11762102765029421 0.06796942606143778 -0.09773354469774782
Ni 3.2264523412496624 5.97164508744844 9.027438720796585 -1.037798794469858 0.5985255622538467 -0.1280581638232182
Ni 1.6936840614774533 0.7527941858986933 3.5261210205151174 -0.22773777650374327 -0.6623100036996594 -0.9068733364011736
Ni 0.4713164654508243 0.8270632201543991 10.518832854938246 -1.3348761379096883 0.5996344790473093 0.5564728560581707
Ni 7.475044078903483 4.279366123254452 3.372380418597929 -0.8608999549948528 0.8476657156927658 -0.6233300228920361
Ni 3.472702527908971 5.59251677925659 5.502567594008787 0.8274398755641944 -1.1351284188609676 1.3386821419193395
Ni 0.8477998846385016 8.698213406909503 6.545428961069247 0.39018701621232155 -1.9362013743958593 0.05099731698347346
Ni 2.667434846204581 3.380149780047686 5.726577753927107 -0.391221628124423 -1.2080911843719386 -0.39186980323138315
Ni 8.77577845041381 5.882444369054247 0.5505474216820664 -1.5223067301539523 0.10480356417065177 0.8842203748883483
Ni 5.730730597009353 5.709837810604865 12.726158034482946 0.6387106191131645 0.9240904716104085 0.8328314788934109
P 6.295460317612057 7.594220206011631 3.4983248901368924 -0.8527649845925444 0.25402962032073667 1.3959861178471311
Ni 7.774430820348008 6.663513153098934 4.790023475913868 0.15749986612310293 -0.3564698264655345 0.3804091108899513
P 1.5654987811988437 4.812917377991998 11.145380427463818 -1.2618961460075364 0.3809446716784472 -1.0555149808026985
Ni 2.7273581127053643 8.639447279348044 8.562682131094652 0.10844064670260678 -0.09136235106408135 -0.0916999369091582
P 7.567054991864609 9.101880407528952 9.598326073612128 -0.2814638052722895 0.6137413507623366 -0.15043858840094737
P 7.064571999283715 2.4725028531401185 2.0811125456483692 -1.9150126561333858 2.092247538791571 -0.47716357950388144
P 2.7529621076485338 6.471519925594664 3.674095213384668 -0.20603638027090965 -3.881021857919297 1.8004337577435248
Ni 4.746804336530062 2.3864704913655084 9.90754023076278 1.1267023995808014 0.6767197513670862 -0.39679629399872307
