# total energy = -340892.09921188094 ev
CRYSTAL
PRIMVEC
9.05579843246514 0.00000000000000 0.00000000000000
0.00000000000000 9.05579843246514 0.00000000000000
0.00000000000000 0.00000000000000 13.25407638004955
PRIMCOORD
 96 1
Ni 6.737749500411385 2.018791037716033 11.513391827948658 -0.5733032973519482 -0.21101069355704952 0.5362403310613796
Ni 4.606485445898749 0.35395856068588943 5.805643410197141 -0.6232084097125072 -0.7232821725076576 1.6300441801419474
Ni 2.6595250015185177 1.6821417301947998 4.856624710790518 0.23256373713747686 -0.5482946911227525 0.3258194485695292
Ni 3.403087556764273 4.294712416730195 4.9644068239880355 0.010035786969447232 0.16868467909532886 -0.8178746004732624
Ni 5.3897305099691994 4.453967688339298 2.9141604703426145 -0.7261448387674333 0.8673205138092159 -0.9112192720746951
Ni 7.187523842217898 6.185092232370879 2.58447869415176 -0.01849754458355524 0.070635145819059 -0.07658647830648746
Ni 5.113501489731939 4.488153327502516 11.584009849871492 0.2266121475397323 -0.7808993088004939 -1.0502928131718106
Ni 5.4127956286311125 7.9055671574207524 12.665715013803519 1.1818435635293194 0.031278498398307424 -0.5738360299269666
Ni 1.9248280729590643 6.566830360393746 0.2936695824794977 0.6334429429563221 -0.5048772433690659 0.1103679456323067
Ni 2.810041427619672 1.6051674433372212 0.3661992834559352 0.16299662757161607 0.6527390721817725 -0.6239519727467513
Ni 0.6150743588835491 -0.23387233412914915 4.454628761626427 -0.02066318477630635 1.3669714757823361 0.2971902148686108
Ni 8.57999774726995 2.4564940001835867 1.497551956831254 1.0256241067805367 -0.5445858748125976 0.35681975360578544
Ni 6.675672002010362 0.8868026472892554 4.753428453930022 0.94227279894639 -0.07686415744790634 0.18497544583555242
Ni 0.6206355247140478 7.387149863334188 2.521799890733402 0.4729755095644628 -0.25417745875251063 -1.0338045857088
Ni 7.5887681601103205 3.9883094760447624 3.8896474574700997 1.2676428186833264 -0.40003511265099495 -0.12021269963687037
Ni 7.723083762777568 3.908573170658765 12.685423147978595 -0.64419992436251 0.8687708731024973 -0.5090730266179684
Ni 8.113696573285191 8.985978247753726 6.633824251775355 -0.5790381429531963 -0.5616608280170134 -0.035841178068325374
Ni 7.007983582072209 0.6959462613956574 0.5752098285099319 -0.5432381025354515 0.26279991031419897 -1.0651329635084366
Ni 1.9695003267318216 6.404912684039216 9.268562627345887 -0.40481350787624476 -0.18969007770240232 -0.1465207414037799
Ni -0.043770296246755346 5.273173328069918 1.347873192087079 -0.19142660077753484 -1.518273440624843 0.18345515253628406
Ni 6.376079021762212 1.866255168559674 7.073886249740132 -0.3682326234284174 0.13970346137163037 -0.6098379019428724
Ni 3.300168407336464 4.264927895615538 0.4097513349599532 0.5240473885396136 -0.3295717165231098 -0.0673122520934131
Ni 6.1757828715603384 5.76051112186293 4.8680105661865225 -1.4718519159375103 -0.02048243622406795 -0.7318344329530428
Ni 5.560758319568286 2.727796666061963 9.433072073217904 -1.0888344208904344 0.5348115690346531 -0.1980507909622718
P 0.28867078173298205 5.5856527095178725 12.495254097187642 -0.33826924429710775 -0.37311514833169934 -0.3173142393119954
P 4.105029662316213 6.125115679211144 12.574658960350229 -1.519192352894687 0.18452678833390798 -0.1612459634290965
P 2.2692291439567787 8.451858199148216 1.4079937324422294 0.6659357733777048 -0.9374393821134888 0.25847120103185806
P 6.372927603900279 7.791753882452983 5.725879937415781 0.5141753808415402 0.2951896394988142 0.8553710547568237
P 4.963256737584399 0.9787869200840619 12.54225278558319 -0.20878334688842753 1.0607484612874958 1.2196500928541318
P 3.989423339254584 6.246689773453849 8.04910790197292 1.3075777072050514 -0.5598075768583584 1.752312990976898
P 4.65388349500611 1.161659714060761 3.792468778682175 -0.4161662138849026 0.15645856934278216 -1.2406470068207731
P 0.4654091778370548 5.3340011262843126 3.5547296186132393 -1.2685699584832861 -0.13739486784311178 -0.25391674889195626
Ni 1.7698924172124395 1.076580487587002 2.545392056865327 -1.1606070227480463 0.5971271392444232 0.38169080581585235
Ni 1.7195693452044907 6.651511131735536 4.626745983779509 1.8750728825156544 -0.8094087290940963 1.0560641684379488
Ni 6.135674740208313 5.631194319942197 8.921079868134335 -1.1606468748470462 -0.4041838447120459 1.3107669035663103
Ni 8.917951089768534 2.607417937215164 10.47303996765606 -0.5974055897167905 0.29533567815837525 -1.4215495681385326
Ni 2.443951719325028 5.312783390506983 6.929178212767265 -1.1953413409054383 -0.4213066204352615 0.3986024939695264
Ni 0.27989842977075424 9.118192905179685 9.286177060918439 0.6212325169330591 0.07947382715661153 0.3961776865781177
Ni 1.5309642308065152 1.271207707956776 11.38428421497221 0.36774077139366346 -0.9270469831355712 0.311041004708774
Ni 4.191820434697747 6.6764326890804835 1.6914719193417838 -0.31146343695817325 1.4834025968895872 -0.1405457547672676
Ni 5.758111335272663 7.922012487412913 8.045039131727613 -0.9093557365033952 0.567980342477138 -0.6325484561665107
Ni 5.456055177845071 2.9861404843529047 4.779101642546637 -0.8796199000018594 -0.20624592517855445 0.2723137633419052
Ni 0.8825708726717794 7.40761596783985 7.007244628918376 -1.1679359523092918 -0.14370924009691377 -0.14155516986838848
Ni 4.884987471547923 4.24598316525012 7.0593861052558555 0.04084660170271675 0.671388826072476 0.2013014366890856
Ni 8.062250582268968 7.174519715638194 8.983520504053356 0.3443113367261296 0.12178801454379025 0.2916188914284204
Ni 4.640435634302168 0.3759831681054561 10.45868562152689 0.7101088683504931 -1.1200756382929034 -0.9557021849784185
Ni 8.4092959464152 6.9123181272059195 4.679735988432111 -1.6336892330937025 0.2179526720925214 0.3105838625666974
Ni 7.282537279595512 6.063427580143636 6.922127368091112 0.1751116656675952 0.6816189884409164 0.5072621986614748
Ni 2.4044593822678633 5.202003808021247 2.401678346562692 -1.015694763481967 -0.3633315865823743 1.1352166076994
Ni 2.5099503784565615 4.945715655979325 11.487055754885223 -0.6833161736376813 0.15571654897043502 -0.9009659697778031
Ni 1.1236615837484787 3.2072468594016854 3.6937786871323053 -0.9369927814943734 0.23793914251677728 0.18492196688979765
Ni 3.551204196275162 2.9444838114652736 2.708007029700802 0.3364100796011819 -0.9608760158698744 -0.036164365735699006
Ni 1.045011974176941 3.391441799952644 8.085582846985268 -0.6830513500120688 0.124760724018869 0.6227080730373211
Ni 3.304940813121634 2.481017102396566 7.22603000282344 0.8203572576858001 0.10220057933016594 -0.12315686986685886
Ni 4.046665041281261 6.88084922757885 5.980716444965554 0.4159934357524642 0.5279361820710585 -1.206718215283812
Ni 0.6051102638447969 7.282283717238805 11.252047823629963 0.17425086032919668 -1.2140561437061221 -0.055423471075627125
P 0.28005509508400556 5.6443614508940705 8.047424429040353 -0.23594473779456784 -1.0259038428044849 0.3095608206188217
P 8.435983384458646 1.6295547085733928 8.017510410007807 1.1284062696457857 0.12159286781384866 -0.6709262846137607
P 2.02707709330129 3.2213920165865724 10.025675373818112 0.24838707732297868 0.15701881272162635 1.4599248254826211
P 3.978963892040407 6.079239004244028 3.758802942350206 0.13479831076052912 0.12295632382027856 0.6935496784402314
P 7.151680991937628 4.0458590752188694 10.339916108065337 -2.0917834546709586 -0.004841387252701339 0.65602468491158
P 6.4399948472493636 7.96106109034584 10.20953524982628 -0.550755236848103 -0.5661291482010121 0.7900982016909425
P 2.244968659898961 8.581926632340615 5.789937033358814 1.6402951684459943 0.17356848955019138 0.015273381219302728
P 6.979267645175106 3.9123313270171054 1.4639658115256788 -0.1451356881307952 1.7039968203700135 1.102349424657734
Ni 5.446166245933486 3.041507636099638 0.3048408154521458 -0.9816613280463417 -0.9898662324546372 -0.5700248837109925
Ni 1.3009650616760706 0.8976197985423587 7.195306395409123 -0.1508455940313789 0.9312900746826412 -0.874008724462669
Ni 7.0193033301395005 0.9739149005158999 9.375999714622314 -0.612628577314132 -1.8166530478158647 0.3297956596084578
Ni 2.6371662351360046 1.2959300377357397 9.17447197583072 0.45247533272858204 -0.40698968959195714 0.5208599919505674
Ni 6.324497193769181 2.100546786157236 2.4872067406397607 -0.2355433885910911 -0.8245491842799605 0.8907103534880659
Ni 3.95737486852647 6.868632955464631 10.456883517634576 0.9831970479645776 0.5849619646367991 0.13164510984352812
Ni 8.015658499223997 7.3230257544825985 0.31888817001373126 -0.049543872366398546 -0.9033771503224571 -0.1420843028989811
Ni 7.61312825795113 3.6377504620984418 8.18808995758343 0.47066254516057004 1.0824346880116777 -0.07819830287829757
Ni 3.1162723081344814 8.502652172675763 12.58693228399471 -0.01153653988468981 -0.248967632416797 -1.2317746440318076
Ni 9.001563276892773 5.1046268072471825 10.326860363434447 1.20205089171513 -0.310163230089511 -0.6311909136973517
Ni 8.631298845510912 2.5116438127674283 5.82031561485204 -0.2587961884714446 -0.298282419491525 0.07312937299582244
Ni 3.7056870620990954 2.3405254451838045 11.357033506264937 0.08770187149335863 1.7245252793406687 0.08815978496638366
Ni 0.925058867857472 3.4067460993396215 12.652566900028399 1.626474460512818 0.05288707780701859 0.28427376391725884
Ni 2.9077082139442587 8.229800965261783 7.917163107340886 1.6515038926776204 0.4290412700753578 0.30231159525557616
Ni 5.597379968515585 7.9823693841077095 3.7046737182521117 -1.072050002343244 -0.47735666935129406 -0.5877881212316844
Ni 3.124196131781585 8.391166237910628 3.7481198169142194 0.418108425212938 -0.07958926968855325 -0.33754959252226385
Ni 3.890208011394392 4.357940001534855 9.289371041033103 -1.3311889188660881 0.5597152742548683 0.31723170690051816
Ni 6.966526136750563 6.073914194753174 11.429533323106476 0.449482054428213 0.9170556762508141 -0.3421989183688171
Ni 0.7034009946828524 -0.2618275839561309 -0.036259417009146436 0.3001063600741412 1.0861039093331488 0.7905481447441676
Ni 4.271746911851275 0.25915521783240486 1.6696691789843359 1.4231073995439556 0.1333194122221575 0.10493931841756766
Ni 5.872830190085817 5.689875893923034 0.4054181353997942 1.567206161769804 -1.0068180298176272 0.4921515682722814
Ni 8.068182130256227 8.75557156769286 11.556295484283382 -1.9394638471972145 1.323216699293889 -0.7928001740031378
Ni 9.152786055273326 4.999552377787361 5.95477792145424 0.5075843578875839 -1.2225374417042556 -0.4872109364375544
Ni 7.705923024707555 8.761213330129598 2.8125815790859723 0.8433272362184122 0.12961856633180258 -0.1385842601655226
P 8.541103092910737 1.4448616991074734 3.773223395808089 0.23093314351258937 1.966728853560755 -0.6692190721146668
P 1.6731312107332363 3.071246878222025 1.462679888145235 0.7883490802103197 0.8728681831003225 0.6085927166818614
P 4.726818895753279 0.939629647569689 8.148208221192748 -0.6127262792342608 0.17360217100160424 0.4808225164127074
P 8.720924082808494 1.6258237196104137 12.529515805057875 -0.9425368512410541 -0.3585339080834148 0.3534204981162494
P 6.294386663910187 7.8908514849332745 1.4594324788196904 -1.2682578265595061 -0.9349114734853124 0.47720060338940395
P 1.695453753921934 3.329989151644935 6.058371727866861 0.354137578787932 -0.16072325815640706 -1.696849924912587
P 6.742041948878503 4.056472471006762 6.110155500165412 1.9051499044066933 -0.4325798793562357 -0.2061515656925353
P 2.0873524878100014 8.425514881446016 10.374469412645782 2.3673252380318583 0.5387129609715883 -0.7481658231232148
