# total energy = -340858.94886919967 ev
CRYSTAL
PRIMVEC
9.32357841319133 0.00000000000000 0.00000000000000
0.00000000000000 9.32357841319133 0.00000000000000
0.00000000000000 0.00000000000000 13.64599944945432
PRIMCOORD
 96 1
Ni 6.505853241592646 5.6734721215489845 7.616924514991742 -0.9588391879455035 -0.2952284631565496 0.9506185998079243
Ni 4.102010931768872 5.169439466446771 8.407614321299647 0.9624850122282069 0.13030196555207238 0.5903437977740027
Ni 6.823833887213457 9.227592284830498 11.199189764768947 -0.9919909921071238 0.38043302214935126 -0.6576359952627577
Ni 3.6836339925827515 6.247114613924471 12.505521946159334 0.3311465172093975 -0.8291170061563011 -0.09737616135832908
Ni 0.5626509256514766 8.450369455345193 4.082855639687712 0.8818721863711458 -0.1454961567940075 -0.7572896398013539
Ni 6.133917047043302 4.605129876175562 10.288579159104954 0.033467535629826226 -0.9759982162232934 -0.548627648982139
Ni 3.0609028592691745 7.055394283479061 1.0414474507580347 -0.07416295646665937 0.8713347771749317 -0.28591875571984954
Ni 1.8884721832342446 4.0142014692133285 9.064342018991677 0.9258673610051733 -0.6557104961052708 -0.8806539976933285
Ni 3.5296177989158357 3.09687322522153 2.4734325675821434 2.051474984859899 2.280457689514337 0.9635360792005407
Ni 6.272670542663561 5.309507586639159 12.70540828145725 -0.1119669146883104 1.061331073263843 -1.03300497262564
Ni 1.5671630200797404 3.678589936600319 12.764604613875111 -0.5388708267056913 1.578271161334714 -1.1625836868584427
Ni 5.276847091063447 3.3765339631014952 3.9967766333065486 1.001610774585075 -0.9052715391316924 -1.486609533862659
Ni 8.665203351735597 6.7860733941841564 5.042169822496683 -0.8798019341056783 -0.5065381760112566 -0.32097111933829237
Ni 1.5063080230421497 7.950541734158094 6.22026923427527 -1.8992988449425547 -0.5016895896697037 -0.39171296593854477
Ni 1.3215613145543514 8.97221946901012 1.8928775740876629 0.017454190920705423 -0.42693450814500017 -0.8339283115020154
Ni 3.8162152792189614 8.201523144492842 2.994150698814045 -0.5189108386439966 -3.3375024766980004 -1.3603609124443539
Ni 7.896567538072508 0.12265167550628239 4.886086591470606 -0.021026995873628305 1.1500904394874385 -0.04952047532763084
Ni 7.098758247202339 7.895262237078902 6.665115812896003 -0.5651464725727686 -0.13765917724809196 -0.3589979922040269
Ni 8.325023265644967 3.3854006862794863 2.6639449770302672 -1.2154177999403388 -0.8549671344501857 0.13669681333482264
Ni 2.9340555734263036 5.950848582690139 6.6845069915138655 -1.3632217789319168 2.6469252506225316 -1.5611180465941952
Ni 5.238629742686384 1.2824209319032398 12.441876402068987 0.5870766969869566 0.2691973292001105 0.7619595344731974
Ni 1.0614614444214163 6.566726885787288 2.3577148374254633 0.25056968679659425 -0.3156993294163918 1.8352349245831105
Ni 2.296863569819283 1.7670605436718874 1.5668199123899926 -3.7474255378866688 -0.4300116044084271 -1.2104517141843154
Ni 7.068419322679539 3.9807018515702977 5.857858939905688 0.8109565331971903 -1.869958444107225 1.0525145034134777
P 8.723587600463862 9.195631057644217 6.949293824571695 1.530305946309345 1.1530754902576914 0.7654932586580687
P 5.1922076452066594 3.3692522482728817 7.845931183099143 0.8721924971895365 -0.5770187985303223 -0.02064724393670638
P 7.152182352154904 7.194930959695483 11.37699693376003 -0.1840634755442443 -2.1562662077353765 1.2689833918716211
P 0.47423356577605447 0.203827411940752 13.575477170617711 1.262053240410691 0.5922212173023736 -0.03281987474349831
P 3.862301727871759 2.448147954978153 5.242233305786588 -0.463510250386505 -0.19204957907351441 0.30142147934113894
P 2.418862594828763 6.497014489150232 4.311754154284214 -0.07554492441585053 -0.10427571669163976 0.39885960428565503
P 3.8875779492550757 5.5504941207943 10.441550179619133 0.4658119019364881 -0.4800563276706442 1.4083456678537487
P 2.5866403903996904 0.19015438403273505 4.045493263461461 -2.031363815932321 -0.1563557252163307 1.1904732141798595
Ni 1.070011165929532 0.3740060289820609 10.697099211073649 0.012132778707792008 0.8213792711924113 -0.3437333527354725
Ni 8.085230149541124 7.767734330003652 1.7807214509278206 -0.03254039582986654 1.3391271998765581 0.34181145312241135
Ni 8.04602450184033 2.9808785847826353 8.308448740099736 0.7350033175993277 1.135419210628509 0.25098543417777414
Ni 3.716825932134433 5.24000030872967 2.7019488154590894 -0.2650162012392275 2.8580349316512907 1.719739427916251
Ni 5.752125829992238 6.86746823471398 9.814626233042524 -0.48262331706687206 -0.07027442004553058 -0.6545830673690468
Ni 5.750055995559521 8.844924651398014 1.9635773376905963 0.982295876306547 -0.15232783500386024 -0.622652022988405
Ni 5.472194708335025 9.066340994227598 9.079325009682563 -0.15439937282090826 1.142886979760464 -0.6972926904224314
Ni 8.465716065598581 7.928780501878985 13.080549922303748 2.8101167678137733 -0.12728271910977434 -1.4767231279868827
Ni 1.130810221495968 6.161039336974718 13.789418800543201 -1.3426910059684165 0.33213844880902155 -1.7090454385375147
Ni 5.524630513963861 4.261639919708291 1.1617300049609232 -4.165389209991626 1.007033231152227 -1.9830481595460687
Ni 4.31132526967203 1.3592472189554454 7.207598905838423 0.006105598677105613 1.0177094799191506 0.8016694514683096
Ni 9.108231832543808 2.339323146425563 5.515113005004773 -1.399952301583731 -0.16134803622459953 2.8312692335216725
Ni 8.257464615647361 7.423927371866505 9.567987745585073 -1.6177206255795882 -0.769094859966398 -0.6188221077193535
Ni 8.490041281972273 3.3695412792071804 11.265359201566218 2.555336128259625 2.1244562623136316 -1.01004219318188
Ni 4.116807450889242 3.543948139109918 11.873152097365834 -0.7398007389879712 1.0134427342229964 1.030038690908465
Ni 6.37423228354459 7.903327132503679 4.1297979928491735 -0.3082336171669659 -1.885870744462107 -0.6527452428293598
Ni 7.203350151104238 0.5703811046071785 0.23715547573890913 -0.8361232622708051 -0.2386153426481955 3.010070946446345
Ni 7.499373769296899 4.947501003219743 1.0115318167003031 3.8129156491696783 1.3874778232658038 -0.5366221398808306
Ni 2.2040007277027818 1.5281624911065148 12.460926337712804 0.30082704029024965 -1.466160779090004 0.7402802497275509
Ni 6.345478367371166 7.683961976949759 13.355735342491352 -3.001419441418934 0.1921629647229271 0.5517631092873272
Ni 8.20093575904572 0.5007078669999305 9.288736312802389 -1.4782627045598606 1.8954537601648516 -0.29510813552860143
Ni 1.6040564203061454 6.46801815993514 8.804016518258418 -0.11531886187967881 -0.9575220117959766 -0.3542244820747835
Ni 6.98549541527149 3.0933582361173215 13.15009076509593 -0.24687321178161356 -0.3728755215170675 0.4176582250493968
Ni 2.743155303111508 4.597027686436682 0.6863459095947907 1.21348047370831 -0.4743140258702283 0.8944394815131951
P 5.13409378025564 6.640961218009335 1.166847717213709 0.35876042227192406 -0.639826992105795 0.7842204027539268
P 8.114916423567122 5.213353521303068 9.044241316048005 0.2728398110487043 -1.0607335488891603 1.1018465168793863
P 2.889423603023523 0.892987177534615 8.918943608956114 -0.11118144267253754 -0.7486360778914138 -0.001655276215235859
P 6.841343567684821 2.1486000241027567 4.781981378367752 0.6476737418437233 -1.0106392033359304 -0.6155534642704109
P 5.14671790557951 7.602417959163524 7.463133951925149 -0.5793865274315505 -0.5080715819366475 0.48345326916733516
P 6.8705916335201085 2.2762211669632655 10.949714112366108 -1.951253126522659 -1.3232118141978824 -0.3810189765598083
P 9.076932579432855 4.839664493990882 12.797000319820691 -1.2833738562653383 -0.22312855986650604 0.3093705589848865
P 0.5771360372490867 7.49418985963658 10.832958667919513 1.564842289523318 -0.4591599438376092 0.03083395466172109
Ni 2.21728682710198 8.150625729320756 12.12519359857896 -1.4954703266873988 0.1788078835722598 1.1223760042913058
Ni 6.072372105194805 5.437865292203203 2.9310655017930944 1.0883410261937838 1.7595275064474665 1.5925438692036444
Ni 1.9332719780504883 3.3063460639596256 4.281227825833046 2.0711490662500585 1.560773261660267 2.6366904602684005
Ni 4.021184829529118 7.841912720754544 5.181727010585861 -1.4945239036137294 -2.594738027096015 1.6678900473451275
Ni 0.9929704365712338 1.5498677819144682 7.903149052153838 -0.6538094224278159 0.028143295203435403 1.2654738360564657
Ni 3.4920624246141023 0.34431322845109497 0.46317393692880615 1.649549597164727 -2.0619581437794103 -0.3434225063632731
Ni 3.8568008165415644 0.3642283921821036 10.857125383458266 -0.9497981607891577 0.4004727144090458 -1.4035829563577826
Ni 6.004561718577004 2.3159489350615 1.7963999805767272 1.1074183545402088 -3.1802921167908584 0.6692792359286408
Ni 2.861891075636974 3.749700870016238 6.875141539840675 0.7561485842183752 -2.0054247274690558 -0.9229581577781782
Ni 4.715698193912468 4.834732320950759 5.594805360095795 -0.806260927493734 0.4998959881043907 0.759611088845679
Ni 0.17203867095719672 2.38361014442289 0.36653970729863783 -0.8344687573865177 -0.016249114869010726 1.3947136788926109
Ni 3.3183828038363727 7.557133338263941 9.750285149994156 0.6830878596769591 0.4698451914655973 0.6049558912602226
Ni 2.1305682232339502 1.204457168270892 5.964680111433094 0.5722368037606467 -0.20661333582030222 -1.0956599284527002
Ni 4.979229140942881 2.381726781560688 10.093850627447484 -0.21315705047609093 -0.8306722664585628 -2.210540138587593
Ni 0.8262685819621782 5.113199640779428 10.663747838329177 -1.0890282820687955 1.4429061794374378 1.3860686016231032
Ni 5.264045817747586 0.18694893773558113 5.402001215046041 1.6759748812357909 2.5791849098527644 -0.16307041823234494
Ni 0.7980927276573523 1.5330946641466383 3.775152374675839 -0.8594876480283584 -2.133462836687616 -2.704590466544484
Ni 8.97498857183227 6.408654935461669 7.470475337656328 0.18032483443741845 -0.05203141467494264 -0.9170484771619626
Ni 4.115716592201729 1.0067693327893483 2.9554093653238356 1.7282456656150493 1.6729165540254414 0.03315668925762676
Ni 0.6652196130132867 8.619648347058767 8.687384145048362 2.0879712800137202 -0.6293165794927743 -1.5662815930730059
Ni 9.162504383142217 4.422816621682985 4.643488010588363 0.31444077441894236 1.7085661849082512 -0.4379180037396974
Ni 8.34504098873976 1.272286202045746 12.261067040792613 2.370679242105756 -0.33780798838997306 -1.9591921788640774
Ni 3.240465658096654 8.50473524172886 7.472399724264043 0.22346511727031837 0.4128415203870438 1.1887382337666237
Ni 6.800124027022466 1.5943412514823105 6.84133983825341 0.16023474855576272 -0.7391481930056366 0.8990762089542581
P 8.036141508603032 0.7730076396338135 2.659864979067397 -0.34323455872218306 -0.24848477924310752 -0.49806999063924545
P 1.9614291851982628 2.8360367923850602 10.832876620428486 -0.10678562759768707 0.30958884564327976 -0.3419063268290628
P 8.296036260008401 5.973327730515731 2.7999405581226076 0.27041140411286974 -1.2353351076895562 1.6406569226607874
P 4.282039909522639 8.376778450041423 12.407925523225309 1.4201537162322704 -0.14964848839948422 1.2043160336002225
P 0.7883934089170113 3.607320502349462 7.248113583964232 -1.8708501026835587 0.10630200309304919 -1.1605517440300788
P 4.288995299102851 2.51366474127862 0.3273321948821408 -0.4517623658219575 0.29480705934841483 0.11946039485187815
P 6.565496173421889 5.875336920210065 5.493920511015735 0.6077990171359725 3.257709318528757 -2.2547278888484006
P 1.0619835648188585 3.5569358839962923 2.4595823916821367 0.6964529681299554 -0.1385685764362388 -2.126319540774616
