# total energy = -340867.44674451253 ev
CRYSTAL
PRIMVEC
9.31359150866931 0.00000000000000 0.00000000000000

0.00000000000000 9.31359150866931 0.00000000000000

0.00000000000000 0.00000000000000 13.63138260519429

PRIMCOORD
 96 1
Ni -0.1603474457234687 4.939081322810501 11.142741591164635 0.2578554218247301 0.6544234018627311 -0.2048271904541569
Ni 3.4550909291884158 3.475301422448947 7.513004990790277 0.7950714865358178 -0.28406601878182686 -1.458852932574681
Ni 3.41825567534261 0.1866192242438858 9.093495367256144 2.7549565777018614 0.0900703717255352 -1.1731383224458376
Ni 5.604993791766577 8.852643100497941 7.535101486302079 0.1169905931551469 0.3492080026967986 -0.5687467883295173
Ni 2.5745933151988707 0.42863382720435433 1.2517504047984485 0.43607298011115864 -0.32033348575429343 -0.11305731953901174
Ni 8.066063741825996 1.0616842203906351 11.916131973105596 -0.4566531182553555 -0.1276141343072641 -1.2563253367879783
Ni 6.1102002417316585 1.4729165334899317 10.001631063619252 -1.104643362898233 1.093498144914691 -0.07488569356529684
Ni 1.599208832389838 6.4087194721401985 9.804548950836711 2.1356097078272898 -1.5474883716259027 0.9354017828581697
Ni 1.2086620057106514 5.547938731068876 5.408987398786613 0.3773816369175372 0.5864380349616932 -1.4322291593395655
Ni 4.495558788451176 2.394244932020568 1.662142631956685 -0.28217780062017855 -0.3349172971057393 -0.4601019960359044
Ni 5.563417919916342 3.736556973808922 8.779428027424043 0.5377092022974224 -1.0094330988429714 0.4708777464951697
Ni 5.903121851337816 6.54977381335252 2.7308837605240504 0.41022850824422896 1.1143040259164487 -0.4129543918158242
Ni 6.827877651490514 4.938485252963185 12.76182283344848 2.1555077323027976 0.9099242074123555 1.1057695060828763
Ni 2.019736109670706 6.818862095049872 13.505455359621365 1.5091465386229106 -0.9153721179008042 0.11136733343109853
Ni 1.2999072603066972 8.575461307905012 8.954100708024942 -1.4606190233361684 0.547196058741935 -1.7358103653361845
Ni 8.418583174964747 4.963175583669944 5.854474169564668 -3.1177867991677854 2.552280115042121 1.0182617528781948
Ni 5.1274766489275585 9.096603312694413 2.120960877413599 -0.48792056091006936 -0.012586835526075094 0.6929164157316067
Ni 7.355064177075344 3.495195253603091 10.956345893113493 -0.7969483918435565 -0.9322827776132137 -0.2973311113218492
Ni 2.1163366793012237 1.7150233410049067 7.711545611980466 -1.587722279445285 0.4312177089013864 2.168136476810401
Ni 0.5822698989907086 6.518647791013029 7.656938163093304 0.8939697409656281 -0.6069510673133804 -0.4814328963031967
Ni 7.838178788324307 7.525251432075195 11.41233001271825 -0.18993536094398902 0.555071861945586 -0.3700730190712659
Ni 2.0318717192183886 3.7177248920703083 12.148520048031923 -1.157210852582304 0.017070068108409314 0.7254562973408409
Ni 8.976430043320851 7.533438078884415 5.548885923310626 -0.30475697147227515 -1.4700560003793521 3.5469527677464656
Ni 0.5146560197633008 3.898119843205432 7.202263534434367 1.621479321291072 -1.2572913002456736 1.5795708539827442
P 4.036734023480307 0.9531436266310844 3.793558947035847 -0.6807404424907051 0.8441962690869267 -2.5504021812931175
P 3.420770345010971 2.3905660634316694 -0.39111123031586303 -0.44816307850647336 -0.27525999045442273 1.1251723360895203
P 1.5533021405552039 3.4408411344010372 5.359614188246187 0.7909471799547991 -1.1166730403692575 -0.5896040913945007
P 4.921785983646996 4.643821849379466 3.3576819398274766 -0.2942267613649126 0.011880553487669861 -0.9162591484914477
P 0.8406326488729328 4.936045092025738 0.7485631414411464 1.7051494459172183 -1.3367558714309042 -0.6509277300046467
P 0.48725729668780343 0.9024814150458389 2.3310075093752447 0.6516432680144325 -0.24411158987607637 1.55761646119884
P 7.048814665834436 2.496498851609216 5.527948038564543 0.774593421187124 -0.571023500178836 -0.34381100005094334
P 7.002954541956623 6.765411394210155 0.4453861839913205 -0.8357705069170768 0.22055180027826532 0.2140944746886958
Ni 3.4393975277395707 5.600038961160769 11.60281437737832 0.05671442197290878 0.0831114239091988 -1.6609555250088233
Ni 0.9636772984641077 8.379447464051959 11.230636746946942 0.19051205938306545 -0.4998916172290165 1.7732445989232428
Ni 7.127589021593684 4.509035555155318 3.722689967626616 -0.8323563390292052 3.14373720048496 -0.8559685791315066
Ni 2.1015280690319873 2.311596122253771 3.512725295268976 0.2802546154555367 -1.1463001192070712 -0.18343998302763248
Ni 1.2523986307574038 2.5434672928593804 1.171325680649446 1.844239956295198 1.0614753121511913 -0.3307508244328755
Ni 6.6242266627187325 5.722028380850369 9.812100410714885 0.9341206021529008 -0.24464406534077868 0.12306379593242031
Ni 5.093854584102436 7.766864619247863 9.7126731661053 -0.2995605148730002 -0.15520747054450046 0.498427116868348
Ni 8.748396072357334 3.388154148053193 4.384452300270761 2.253904107395525 -3.789712214470022 0.17966277537338737
Ni 4.425464699843455 8.028120170607838 13.451488685820067 -2.0147226078312137 0.7184626396318271 1.6893693002648258
Ni 2.6007458797498244 6.258938295819528 3.4127662445924916 0.4231873823977422 1.4435533261031332 0.4200501223203411
Ni 3.918730820894628 7.707378711204079 6.229023971716533 0.587875024518536 1.0005465949866188 0.8285379937243794
Ni 9.000738516781674 6.2969563757686 13.11129020269715 -0.25752760617166615 0.5498149844220208 0.22273415264156482
Ni 3.7389971347463686 4.335821382962068 5.208455531762736 -2.553693964670512 -1.494966904688419 -0.8765602872399292
Ni 7.629954826192654 8.403681428781866 2.009510717711841 0.37753076090089177 -1.489420263838577 0.34816722013711005
Ni 7.43307481834272 0.8794209628278324 3.5220761409987333 0.5872435615821241 0.9780522705388446 0.3991311127794868
Ni 8.671139831990466 2.1260973230510105 9.327164060995065 0.7115551138787165 -0.3863802408717217 0.4627088375311321
Ni 5.753331361425781 2.666835124070896 3.8084178506984507 -1.2109978164957724 -0.3891899424063749 -0.7128774322345659
Ni 8.404612787918296 3.044668898537813 1.8667501265615796 -1.8743336903567849 0.1497914417352517 1.5611604697963566
Ni 0.9725345238515568 1.06860421877431 12.943543108634746 3.468353115664691 1.1987421390568709 -3.324338428512217
Ni 6.567190229203761 9.154952962591752 13.586603749819373 -0.48871374623532604 -0.47949788406401284 -0.4825024752182916
Ni 6.41515516377293 8.244242058216416 4.530648675275312 0.02663971407471541 -1.2942455088725193 -0.37536820603193416
Ni 7.143971628803487 2.011242114346464 7.691684378396097 -1.466878888202951 0.15640791861050482 -0.6836067082949064
Ni 0.3557745333205729 1.5151257295529386 5.901993044064462 0.8998166866647085 1.3148845252791095 0.7535821090427797
Ni 1.9417627227687873 1.1029806844999408 10.320442746892327 -2.2804625746103437 2.1238623374833745 1.3686444926093848
P 8.824842030275507 6.652111555263447 9.704086034867418 -0.2357722167724456 0.1448641796369634 1.0601686775246257
P 3.3002617863482953 7.863176467546088 11.25809042021149 -0.28622471699604257 -1.4267671077837298 0.11860447460948605
P 6.252567799326346 9.186870640197206 11.364033453339536 0.09644696467584035 -0.883728008632962 0.31882630508114773
P 0.6922820401858187 8.490493413888505 13.67595741400933 -0.8925512633515467 -0.8369920380290038 -0.19196961776519839
P 8.459665426472673 6.929144330394547 3.7310181810245733 -1.293101110855431 -0.2624114166265287 -2.3667657659839625
P 6.321190340498508 6.843720070401187 6.320367950381041 0.2891902273822697 0.697481923615102 -0.1887878776031071
P 7.931892144631893 4.379688398287922 8.06575732467011 -1.7300549509096461 -0.6467658853174733 0.6733413218131565
P 5.300299650283506 4.203195841934439 11.717413462320348 -1.3632778289808327 -0.21559471338330613 -1.485675966304796
Ni 5.590827819301476 6.914410228856224 12.07540090494908 1.1917790774754764 -0.2865702732609194 -1.7645902656823542
Ni 5.615788244157801 2.1355506182857744 12.686973225090147 0.2595011849582692 -0.20266026470982518 0.24424837256425674
Ni 2.841809565031998 5.747985359982672 6.963155703338697 -0.6606207889226946 0.17696106017150814 1.0826277778590903
Ni 8.601157506479117 1.0175936788720394 0.5507759897923287 -2.9161919996079972 -0.6595054443713286 2.3533641478660763
Ni 4.815527219771698 6.255464326240644 4.894307163685765 1.159978645135428 -0.012869913984132675 -1.140719796905816
Ni 0.3083310989108294 9.17639284991237 4.331890116047198 0.8091115095686516 1.2471665531068457 -2.153048729239344
Ni 4.4503599295602285 5.533456096497389 13.671730906248213 -0.21655116375930447 -0.2848476341428578 1.026024170432433
Ni 7.276233939767909 8.915202493691943 9.169735494805169 0.9425538205219186 1.322654913253148 1.7951054035520762
Ni 1.0077678399827033 4.2537407022684945 2.8620452049892124 -1.0037764147778263 1.5161468812001435 0.42826171159685605
Ni 5.295205115807234 0.9436344498481344 5.370914368648491 2.3357502914390547 -1.0260794491504008 2.153591232006375
Ni 6.195186762930895 4.642881176651671 1.4286639354815973 0.2881229624600199 -1.1704008689100167 0.051287337420066505
Ni 0.9656052118765177 7.881514928942394 2.2737009817107072 0.057865504858216475 0.11726364431087546 -0.6398102799352465
Ni 8.909921687388385 3.355165407440843 13.249608210766638 -0.4367964885407445 1.0772109777188932 -1.120879365141121
Ni 7.744931111584936 7.181235307852051 7.957101242377642 -1.31540517366927 -0.9238634432012669 -1.9009345807737648
Ni 3.443933246733985 0.4863631919168307 12.125373910773366 0.3218293535735296 0.5071166742225459 0.18449567798565644
Ni 3.827662524534504 2.6562176299155946 11.03514912100597 0.6057349355180923 0.7343983370254772 -1.3239654045344553
Ni 3.1201089885886426 4.412779588405279 2.205776028531732 1.2410465562520367 -0.7698672193560483 -1.3198454688288108
Ni 3.2534144217858665 1.7681853205123303 5.6402299019751325 -1.5341047512301451 0.840191775913224 0.4670167208778666
Ni 5.024133039149286 5.7079741714816405 7.668716130732597 0.05999669226860636 1.490503983821059 1.017038936214687
Ni 7.701976828212785 0.30714734144842687 5.996540898158289 -0.40947620345923674 -0.2021455298569357 0.8359985637674829
Ni 1.245478632373729 3.5941894162142343 9.568208187735374 1.2799825711956019 0.4077787611521558 0.04625157476837196
Ni 8.595178180823236 5.779223145418535 1.858135054549602 -1.6359811144516727 0.44515437358713655 1.2525848959089396
Ni 5.831165044457235 4.287316199136795 6.006641487992873 1.8186718780181066 -0.5276957839254782 0.28872125816565114
Ni 2.184018547745591 -0.19897370318862956 6.603613822311265 -1.0111968756116132 0.5360246155061479 0.888498947659044
P 9.558352545353673 2.5780859119604833 11.308226413884652 0.21467168734840447 0.29620085437214794 -0.6087963480522354
P 6.567441696170597 1.5302696291112903 1.6174178348661807 0.1262434792119826 0.24655902297530438 -0.8276018550633554
P 3.2229682916159708 7.424394551191193 8.424575539648536 0.18431492943341807 -0.10603640813648835 -0.5899517045419065
P 1.9674868621169834 7.6732816532193775 5.208837389008672 -0.8722182082211495 -1.880178579173336 -2.1133472968846636
P 3.2849688693281145 7.633624381190188 1.651674155263212 0.05362421308335926 -0.4881789567777786 0.6988911452578028
P 8.932823808553199 0.4279082984370754 7.8819787457923365 0.5044681808561055 0.05099063211525412 -0.41000199405571963
P 3.2721161132453807 4.520016279373828 9.253132185958519 -0.21424771243710844 0.9224287676372694 1.9579860743711184
P 4.752092348989452 1.670243593725353 8.046931762445451 0.10492723423270962 -0.13203848862720485 -0.09918236132913243
