# total energy = -340895.5993685133 ev
CRYSTAL
PRIMVEC
8.99247788738658 0.00000000000000 0.00000000000000

0.00000000000000 8.99247788738658 0.00000000000000

0.00000000000000 0.00000000000000 13.16140036179089

PRIMCOORD
 96 1
Ni 6.287819131477061 1.9757462543793916 11.330070401828145 1.4525652997937564 0.1565632132414465 -0.4561430113881563
Ni 4.576775448857442 0.5655593998641666 5.968918896991503 -0.9348680218418868 -0.9665316714937549 0.6636138101127473
Ni 2.579087549040701 1.5996898320250637 4.616637303732315 0.06910302544524873 -0.09284484914687881 1.0337328519306004
Ni 3.405550198862478 4.254053411375626 4.655266289922982 -0.24919903170131275 0.4266730269534974 0.502185812579832
Ni 5.133931378368658 4.476068691786588 2.674897002789761 0.6547890127322659 0.8373021130702547 -0.0565825243807348
Ni 7.277971851748054 5.910863461358907 2.33210825145817 1.1471190155639406 -0.4846341768493138 1.7929695881559962
Ni 5.086037442467293 4.6913486064464935 11.483913709263469 0.20809249146899 -0.6523438936258831 -0.5237514545657497
Ni 5.539096450838028 7.778852856199048 12.431100371378866 0.6307224587013653 0.6635222788402056 0.926664660095488
Ni 1.8577559552878031 6.612321679531253 0.29355853325318165 -0.19604867293057848 -0.4743271384963508 -0.30926205843148025
Ni 2.885065593160081 1.5339098581012034 0.4698434678825441 -0.3004336615065729 0.49335792987555677 -0.422311407550692
Ni 0.4426762936896016 -0.0772741588410821 4.550778196005238 0.46178606860654664 0.10468169388080681 0.7620371817886682
Ni 8.46871977069568 2.4480851348065524 1.4569935998701238 0.4927619481627707 -0.7279988612570365 -0.03451963104342442
Ni 6.658902713697431 0.8484681418503588 4.7700462744977115 0.9017946363266856 -0.3260415918826643 -0.17874540576544057
Ni 0.8671751930812278 7.518961259975741 2.425224458154572 -0.3466777800757771 -1.1936202444492734 0.7395873374255844
Ni 7.493620457991129 3.618015468021609 3.9076595757588564 0.3547086208000536 0.9225300691018242 -0.5194849659799118
Ni 7.621331625409676 3.7938813531930284 12.575704807288643 0.2886711216540061 -0.1832998579053424 -0.9444039863567801
Ni 8.017998806510892 8.813860054929675 6.7644330357734495 -0.48450870701504295 0.17303807096801813 0.03477288470481109
Ni 6.673245715530453 0.892970115186572 0.3836154990570481 1.1050182297391486 -0.9235842213979514 -0.07793399347331739
Ni 1.7847819992533365 6.4767780640897845 9.065427314603246 1.273420087486736 0.5088156591915237 0.5902468671848222
Ni 9.25757587903426 4.640433198058674 1.0521036972164841 -0.2904986617810481 1.6940196545526436 1.101472678479735
Ni 6.438874770844525 1.9668706789504307 7.05464187110638 -0.4449605124087756 0.4178076061430676 -0.2056545714514587
Ni 3.3733930988280654 4.411178973148915 0.5491688108729129 0.6102415651391943 -0.17806303498643528 -0.7386871942088181
Ni 5.789465013242419 5.605955522078479 4.821824061491039 0.5299416425368615 0.12340883797666488 1.3626846754815243e-05
Ni 5.397824627140988 2.8141599069824137 9.316296758012088 -1.087883626941391 -0.07828597749609743 -0.9699880054734715
P 0.4662545700571151 5.361899678976147 12.160962746134528 -0.3704615127589362 0.6682459095681201 0.41315313809019166
P 3.9705295839189767 6.2133524241546425 12.662648577334146 -0.6851185169537426 -0.4369947205944797 -0.4184478108302277
P 2.28756940896364 8.55706187101393 1.2623190484705231 1.0285024567695964 0.4791327874151103 0.19181329469299224
P 6.209063012321193 7.956697086450884 5.890279680044933 -0.09009248321272226 -0.9792151804986942 -0.03764249294312227
P 4.797720624429451 1.0258618489725184 12.423558380383657 -1.447147471212295 -0.2459242176047829 0.5389597868750718
P 3.9971563102058596 6.02014904209666 8.122373595210393 -0.6735079292980078 1.0688376660535335 0.05791487003891316
P 4.5838435362811145 1.0630727214396318 3.8309546407522763 0.9769099294042854 0.6942446476247268 -0.9839706929058085
P 0.27198108316018066 5.693479306931648 3.5341651102836686 -0.029918641936303312 -1.3547103990267961 -0.3985387306111265
Ni 1.236043028811532 1.1587436910330629 2.448718205232286 0.9186654439400954 0.2553246849830764 0.2753574352642355
Ni 1.9418086437726043 6.476175568088021 4.81001783759977 -0.8737017347452114 -0.24822844025792734 -1.8857403895318299
Ni 5.89670030907865 5.45259780843562 9.16613856791292 -0.19814695022050394 0.363475054138774 0.4809528713429846
Ni 8.580388358007571 1.9783091105062953 10.163166936586126 0.3145359052359099 1.3996350274536282 -0.09481277150652703
Ni 2.200917894441382 5.100866038092781 7.050377638210318 0.8039986138221186 0.5759299363415178 -0.3404955625244652
Ni 0.5926546342360028 0.006372069654469903 8.865637841923004 0.6050551358422483 -0.5532034412782795 0.5663939718266245
Ni 1.4029524062552463 0.9305595709622559 11.46198645179034 0.31296804652815774 0.13957233511040482 -0.11181213427800099
Ni 4.026417832440752 6.949440673711923 1.677762522880423 0.314951909727406 0.3835705393370684 -0.6583847005033242
Ni 5.588896791998702 7.612644892011118 8.092760467099843 -0.3806862758107379 0.9006322405874683 -0.05529902968262089
Ni 5.387429322991161 2.8974212574350484 4.956516988547929 -0.7755017919340064 0.2407691557664047 -0.31311819895277687
Ni 0.7580541746842536 7.313420198598069 6.749060395250846 -0.27215204095306034 -0.5926284800431213 0.7367066734436797
Ni 4.848986739445163 4.502533553475982 6.841703597623476 1.0893190738363367 0.6127298787786867 0.18715856952980026
Ni 8.074786302796493 7.213333922484253 9.125587889250959 -0.5195286747336537 -0.014415404094381624 0.45312299361490993
Ni 4.645828684641629 0.21794978127070505 10.21889242126265 0.4329128372156221 -0.40201949007087534 0.7062722682132223
Ni 8.00731574307664 7.010553551741527 4.686642842898393 -0.5330411073977916 0.14059820527175784 0.3632218004773874
Ni 7.194251884935869 6.154946281894155 7.02533178949224 0.13094988354871642 -0.2653920965214075 -0.8191506389722086
Ni 2.263046922444109 5.252865887612263 2.4435978884650615 -0.4374284656977886 0.36702034828787117 1.4513203716430618
Ni 2.4887401262091187 5.110478996688079 11.262328269283618 -0.9632918244002184 0.12510396629090068 0.479803845340206
Ni 1.0902839587730018 3.341083126673803 3.934587550046621 -0.7398531894924613 0.8677023226286669 -1.3402574568262595
Ni 3.7216987351907282 2.7728664496675313 2.6580109282806395 -0.7397272054375583 -1.208459623454951 -0.1938868893925693
Ni 1.121928487582033 3.331299311003378 8.27178181267453 -0.861752275692819 -0.4254496960693576 -0.5558154249798298
Ni 3.575121349687116 2.6803608322027674 7.138756607686886 0.2837633999397436 -0.3249527296938597 0.12153707487524876
Ni 3.8238083187731524 6.7773066667603805 5.966325466440629 1.7333860721654082 0.9674413277922176 0.8391767043851484
Ni 0.6732883827227384 7.409981423477688 11.23409728498607 0.18174614026497732 -0.5440158612417405 0.26051857047919
P 0.10077869689196191 5.624623905655503 8.050907677675863 0.08524492531243384 -0.4625671697469453 -1.9095657740862015
P 8.49220812228681 1.624509070306657 7.91584515978804 0.21022933530633475 0.45764504985497956 0.8895495004107454
P 1.818108121380722 3.162591438032012 10.268326768583448 -0.35394371760957105 -0.37899474704092795 1.0565485642735353
P 4.01367549162734 6.188641095604709 3.6803351365502674 -0.8205495762022642 -0.14979272728683235 0.7482480984243759
P 6.919666580251649 3.8970520491367666 10.376065643167422 0.5246873361164576 0.6077925893780695 0.674400102094974
P 6.264762418812566 7.593985500911732 10.43566059097169 0.23745011869550073 0.26993600713834803 -2.3500862484457525
P 2.1754961601580254 8.510094160309306 5.710244882240417 2.019696406896722 0.5573562871043886 0.49625324914548086
P 6.837673169146009 3.8446259045057203 1.4464643078034871 -0.24805849033896635 0.7881994420063329 0.778276012245034
Ni 5.1977150222568245 2.9864198086208917 0.18948229481127046 0.21485140745937836 -0.052051212169284544 0.8550476099791339
Ni 1.7129680728342047 1.2702414212698288 7.059459141377195 -0.9269564803042939 -0.9958669301227623 -0.71080640863815
Ni 6.95167080816621 0.5014817019572286 9.01605951161697 -0.8484229055737647 -0.19921010137769565 0.7681504937752577
Ni 2.763109611430021 1.3965047997886149 9.397660695683049 -0.34010398351300136 0.42868080141214554 -0.9816541289574902
Ni 6.29442860254118 1.9169804130133732 2.478896960186281 -0.10480227861907111 0.7127802445350692 1.1672070445630673
Ni 4.124660650638726 6.775103509739006 10.52850162785236 -0.08415709156489377 0.445555208569981 -1.2212660311909997
Ni 8.07966022567643 6.919333858579033 0.26546243612020715 0.29762447419255195 0.057854963335255194 0.28153811015365066
Ni 7.515094494591291 3.8730241488873407 8.249288928357954 0.8986864297150071 -0.4675448254671948 -0.821214977700405
Ni 3.2266628412046034 8.401545962737888 12.382126438913147 -0.2896378564426496 -0.02769926568748133 -0.42795137944528877
Ni 0.11962153453516856 4.818879924312274 9.95774457591328 -0.2432415285662972 -0.8260422238857192 2.1351592505534325
Ni 8.60879559486683 2.344186048174115 5.896043858211057 0.21476990348916558 0.6830192112225527 -0.6025100008228913
Ni 3.6082496373064603 2.7704834430933927 11.419580624991605 0.34078224052694855 -0.5950530303242139 0.04833185433616837
Ni 1.323072227394597 3.1438511146338817 12.59723639574569 -0.6316948499169637 0.4582718848057011 -0.7548951714272484
Ni 3.2124367415808783 8.352995575968933 7.91009357109061 -0.503969643953132 -0.19303302603270625 0.1712239005774148
Ni 5.828330501594971 7.746390011924936 3.596589091552931 -1.310884660091097 0.15658712450084644 0.055276403974801575
Ni 3.0552572249417596 8.529230152723521 3.5225567209004405 0.10531495658943153 -1.3198886633619202 -0.18928075807912564
Ni 3.4043991617247804 4.223380070151526 9.13231336327661 0.39332376206909037 -0.07390816014337594 0.3618760850827703
Ni 7.396744496394171 6.0343841341980236 11.394850412238632 -0.20214450141567122 -0.9893885214872703 -0.6924788139735558
Ni 0.2441970250012537 -0.11598137958720156 0.4548089445191399 0.43735158971326615 1.1942923308156335 -0.4206641017552562
Ni 4.651116261492925 0.46102634355823174 1.627275156428185 -0.36838123319113975 -1.3192811116849086 0.18470856532741092
Ni 5.9366538872254315 5.661142357344471 0.41004618933141723 -0.49644685321352566 -0.647885086523581 0.09679972002956877
Ni 7.77326852758569 8.807826102434403 11.491126575577116 0.10256079088306207 0.0025009120449827893 -0.24937978025355115
Ni 0.19851254085560952 4.9481377978846 5.770865871743209 -1.0547055975275255 -0.334206901302276 -0.20285541143976676
Ni 7.924539986416472 8.74692005139048 2.7317015847828756 -1.2232987453503126 0.5933075083880169 -1.1162495796785936
P 8.506910823225363 1.6747950052597977 3.7126334184836 -0.8562629704434737 0.2171088360349874 -0.5526655664969385
P 1.8571714442413163 3.224441699227953 1.6320402703286983 -0.4019783524202948 -0.8694655851766767 0.17066185742635767
P 4.7134880863918855 1.060959489194641 8.176058686710796 0.3211935197617436 -0.4283439868980171 -0.12417296983619905
P 8.54977796412694 1.6977168307597184 12.42274276266187 -0.708084895941929 -0.6109365343236897 0.4064911526889838
P 6.309949618944814 7.709628763339735 1.4504650611047485 0.25292327463043535 0.649360899738159 -0.40971660160481693
P 1.7709965310338862 3.248523554343209 5.996412498122714 0.42136986957302913 -0.19213982479447556 -0.24657573514585276
P 6.9190101293840565 4.140451441371507 6.0379235733964425 0.17936941250268465 -0.543852853301315 0.028651859408737754
P 2.362081078674249 8.315685786247798 10.177644825583721 0.3780334115689231 0.5024025565763284 -0.01625040042059137
