# total energy = -381165.98057705374 ev
CRYSTAL
PRIMVEC
9.23037453078358 0.00000000000000 0.00000000000000

0.00000000000000 9.23037453078358 0.00000000000000

0.00000000000000 0.00000000000000 13.50958614635978

PRIMCOORD
 96 1
Ni 1.8601327692397454 2.2102316453208593 0.6148915536636106 -0.12137586670703611 -1.0860352608787425 1.1486069129633767
Ni 4.883541951141953 8.213704170266436 4.895684508854646 1.3241937184951775 1.2602231291804875 0.06437528095227622
Ni 0.7394720728096882 3.4084634863816228 7.982381753818102 -0.041390132911012595 0.6425996697549256 -0.280983008981129
Ni 6.38907142152309 8.517891163365466 9.826927189565318 -0.4535415692095673 -0.020999742180118672 0.017863253433666012
Ni 4.795244188253611 3.8408419211483613 0.702468424300063 -0.8495493058687241 0.047193112746034854 -1.0777889617095504
Ni 4.541095055557853 6.099597645447269 3.9234814644412035 0.6627319217284264 0.6243312104630409 -0.9037679580029725
Ni 7.989646058584267 4.7432587188215445 8.897507854200983 0.2818929223899081 -0.27058289669372754 0.14574298269749092
Ni 1.1322992756926444 8.296232949064748 12.538449399923852 0.6190493932388113 0.38234155202597375 -0.09588672129699614
Ni 4.038694999499983 6.204740841878494 13.309603810318523 0.19414348548806565 -0.027522373789984858 -1.1390475514097158
Ni 8.339348028559987 2.649339023130207 12.690635200218809 0.7267606179745612 0.5497707614476467 2.0453431609305484
Ni 5.504432325221738 1.9316774023306442 3.1594196738461773 0.6194535706557653 -0.23875341088795654 -0.46401701481959445
Ni 0.8512897530737137 6.81988069261734 2.9358083122919405 -0.7914374893276563 -1.4528290949781042 -3.659324888292994
Ni 7.235709065826605 8.43891607876661 4.004957057504042 -0.8708328978378486 0.383701665598294 -0.8003170512054733
Ni 9.152368648774086 3.3677483042678364 5.517328081497225 -0.15353393949681945 -0.1724621438598901 0.07738866249280865
Ni 6.276562386205716 1.1975949452172245 5.799098186978585 0.46746460704856263 -1.1512744324932107 -0.6660116209209627
Ni 4.624399185817867 2.2542051496486932 6.693770700409315 -0.4687807547568249 0.2718823322314415 1.153784343399258
Ni 0.9588789987591116 2.8304758931825615 10.418538815591392 -0.9832209592239775 0.5873777731671432 0.36881112163970675
Ni 4.075450350934373 1.3904359301914297 1.224658403380367 1.1269682516476784 0.5570719230947503 -0.2701866896965734
Ni 1.722858639020696 4.371173090576513 3.5072368013400026 0.17641238675688972 -0.17516771571651124 0.5716567628874606
Ni 2.8040770219865907 2.036100629547435 8.082947607512937 -0.18743084935458043 -0.6057462483720019 -0.19550231350880523
Ni 8.262726689469863 5.377246994379331 6.321324164519611 -0.39581490392206026 1.0014683354699399 1.0823243876860587
Ni 2.0143907886198393 0.48282612379976625 10.575425645641628 -0.15056842911059232 -1.0858997637421426 0.22427964275181372
Ni 3.835995974512737 2.28408387204777 4.623548145284905 -0.3733612029042344 -0.5429575951805553 -0.36134900893470673
Ni 8.996144559616111 4.926970863371688 12.281902215921553 1.4685809584957226 0.7654261528655592 -1.651581282882775
P 4.824006035332856 5.925337404430229 1.7216485369179715 -0.5577005578176847 0.6282259175317568 0.27562020200731885
Ni 5.731296470765297 9.156079259340792 13.05897421943641 0.612776415745906 -0.5804872166948971 0.48276832728516855
P 2.779671911692134 9.06686768937259 4.506675911920561 -0.6071927510105415 0.6513172521335815 -1.7280358635970885
Ni 8.425338197812318 1.000074160349188 11.048301425682913 -0.07426554348279468 -1.2818129395361213 -1.4607910301376583
P 3.214884071443894 2.696090870195799 2.6775322791375404 -1.038732362027721 0.9515202856865871 -1.1348839069503294
P 7.284306987801005 8.339634170170852 11.757919698104793 1.0250162979932087 0.5033132413160557 -0.029496466797220167
P 2.6279707060607405 3.684691674986738 9.38383967425258 -0.21437806736738563 0.9576852768467184 -1.406026789912585
Ni 5.3634291236868945 9.044419418481471 7.627647383640969 1.904933674630829 -0.9636288960246628 -1.4729623753928696
Ni 6.465378927878717 3.492090679750678 4.754415472532933 -0.7205622024733332 0.36942664373651857 1.4357081190271017
Ni 2.1731070789047067 5.908898107367283 7.594981088129591 -0.3514985985031882 -0.853312372455582 -0.2787993710662489
Ni 1.7709396600206306 3.737341731385975 12.47968329735173 -0.053008948096863545 1.3414738457318638 0.01961108936270816
Ni 5.877782514779304 4.343029678591718 2.7024302914326492 -0.9779203729466707 -0.6995089813474598 1.0245933515231773
Ni 6.479538322429283 6.807964279080977 13.044316384660466 -1.0667005651058725 0.6343412864008753 1.4231853039697426
Ni 2.106657612562121 6.774587244729707 4.590340949825246 3.071921146983922 1.071997551838754 1.4980797392857879
Ni 3.301898812270614 8.822825816802563 6.498705195169994 -0.9231142237400682 0.5781264297722043 1.2998052623484841
Ni 8.606382764119232 6.754428106725512 0.14764445601928486 1.7616170419866433 0.19202309671095316 -0.24019837086459922
Ni 3.3990946562194164 4.755424352470597 5.32353359883262 0.10495268815400634 -0.2977717984036936 0.3675926758515734
Ni 4.450157405549914 4.4037747734660835 7.471570980475699 0.12830807505049513 -0.2101033512514317 0.11141361328800167
Ni 4.350090915117913 8.642316612219203 2.736218077451129 0.8754703966098599 -0.9527281899517592 -0.12595628698886696
Ni 3.563598391343401 8.849612363729383 13.434432626539834 -1.9520008033219605 -0.9876306582558989 1.634617915555559
Ni 6.313723874120043 6.344885618580743 8.441505198826214 -0.5038917395273451 0.32004217976611976 -0.7491721529005421
Ni 6.011807553158849 1.8600958477415692 8.79606419188701 1.1007892792594656 -0.7186066214088592 -0.7263716100662587
Ni 3.5655460003721946 4.539045912409075 10.9973432969376 0.2750167640953651 0.7313099279081405 1.5176355499305283
Ni 9.11457026501622 1.6914199833236758 2.0925268321726413 -0.12865671663916553 0.5658206158216578 -1.0227375292613612
Ni 8.4031206862848 3.759097724186291 3.3325178107081226 0.7472420257573646 0.39386086551948296 1.2425377960855826
Ni 1.1641625286186907 5.744652822730531 9.976735245377727 1.672662014812474 -2.0986097335641727 1.5796641850274986
Ni 2.1349302497905334 2.9555659290034706 5.957660330008568 0.23491064010309867 0.9824203176995531 1.3689473685617843
Ni 7.077611210636188 7.702424493897193 6.31469121737226 -0.6594511940946255 -0.42840620759452025 0.1678866086740657
Ni 0.4534283039144347 4.230852936757929 1.4723148906218426 -1.4442698925541837 -0.15875739267928787 -1.305492028320616
Ni 7.2994263413041525 3.4339208593741013 10.855857346814101 0.6926616194083232 0.17614807735190954 -0.29450135518253795
Ni 9.035078279442896 7.071251482575341 4.834243443739659 -0.8892394253694943 0.20232756396075477 0.2183794752172949
Ni 5.304197810237753 6.489414823191412 11.172846869405724 -4.159593686355771 0.09536298758304222 -0.8974332740341964
P 7.417344376104338 3.3003942612199344 1.5589114954817171 1.0769027024498552 -0.40180428873627577 -0.9974229617559726
Ni 4.115380951211916 9.172693933520076 11.447631427432151 1.6024660134133628 -2.2732375176168143 -3.6487615109548517
P 0.8796925385831971 1.5587887315002815 12.247818134880207 1.6201508322876355 -0.7004448628981678 0.652925991381598
Ni 0.540313819497538 8.6006968534001 1.2262515660266693 -0.06446398401134058 0.08498987187883426 0.1544076003510244
P 5.73905921575684 5.353395706557517 6.012454602414388 1.3854371386866913 -0.06013733161152869 -0.5463887323492913
P 1.221012405435469 5.259827399804524 5.764229524100998 -0.8432621873084316 -1.4075771651188405 -0.25547663717990843
P 9.19059162976098 6.526991677960223 8.59916276515088 -1.8108642090482296 0.612154723001507 -1.3082536502261535
Ni 1.1252934214137138 1.8726768482451037 4.198239254381452 0.9588517863509938 -0.38001778898880356 -0.6163651615384288
Ni 2.61781729406229 4.562980273601785 1.1320842079657683 0.8600854295133575 0.6236804642529195 0.6127980130124607
Ni 7.209171739012473 5.891341934984508 4.139026401681399 -1.4713029854125759 0.16478071605523234 1.9356645280557825
Ni 6.320111293304524 0.2090716755724554 1.7980040412212273 1.1278272572138641 -1.2845179971721103 0.8752503101792539
Ni 7.641402487786506 5.526225239520231 2.0397715495036017 0.5912557680653107 0.7837833152165081 -2.45140673916381
Ni 0.6822945176965963 1.0386478955687557 8.858965502254865 -1.33535153488421 -0.06061092881383755 -1.047661031975918
Ni 4.224151684838952 6.787020559240537 6.511039744673203 0.612882602306467 -1.3943604093182502 1.2328779043983156
Ni 2.374116945350393 0.16415944215349165 2.1601559403819564 -1.3716696525889538 1.9596714324933413 1.6500854150635387
Ni 0.6137257573586976 7.587838624307408 6.803360168258407 -0.8821712056688034 0.5042362673509574 -0.30472663245497195
Ni 7.2788333756963866 6.317545249181279 10.744741175015426 3.8163020491434088 -1.0543204462739648 -0.563371640060533
Ni 1.5762802912612484 8.033038049315827 8.733866236059413 2.5418128969622096 0.982214115226018 1.1074461224543508
Ni 0.2491038099699821 9.09613720705176 3.594468455968508 0.4273327720246834 -0.6818858689490579 0.2371474998534174
Ni 6.226524525802443 2.038039008201684 0.4389375389177372 0.43937916166625623 0.9011922268559963 -1.413341064185811
Ni 5.480747184141717 3.949677267397205 9.608734057868437 -0.3625723398188465 1.7104526032976866 -0.3527394128888247
Ni 7.8313543655284255 1.672894621613776 4.1204908865595 -0.2917286775334072 -0.20101270180407316 -1.1322657526011919
Ni 8.079660671137802 0.5127666897082876 0.1568988295371452 -0.045610084529631126 -0.956640637632288 -1.3267388535145344
Ni 3.2657249744324983 1.827263405488398 12.013223550656013 -0.4861596123549047 2.268594619528164 3.0321392391002937
Ni 2.9142415421697776 6.990901072169422 11.257619552255694 -0.7967540164445633 0.17023505430158423 0.13816928411529106
Ni 1.427717412974831 0.8699821845628608 6.622047921089716 -1.2544147500288267 -0.2635259898469462 -0.7332966193208661
Ni 8.485464857592232 0.44573940191924455 5.80386659846804 1.1595988931985062 -1.0493075664404057 0.7451715163815812
Ni 7.00711884024331 4.592120566037338 13.139288631381609 -1.2534112484649766 -0.911868732733236 0.8133502302403477
Ni 7.236115202306543 3.3508013366049685 6.970837930060484 -0.8979235834070535 -0.6258260498410125 0.949632838855887
Ni 2.6798915628709983 7.2730736219809025 1.3930001282397657 -0.13692024219953838 -1.5154632248695576 0.6109995263511413
Ni 3.947148144772137 6.020853320212014 9.062554335348159 0.06301413893869148 0.6826795684949469 1.239451443850775
Ni 6.0777678096506005 1.3686891677656579 11.274101309041543 -0.31595129752619777 0.8745627971939262 0.29055136939585446
P 8.156531230340615 7.54337591012874 2.102131959923175 -1.2373945613217465 1.8607081291535503 1.2660556767018647
Ni 7.669407444153141 9.484302147752517 7.989245460329056 0.7487728605795944 -0.006586137857949948 0.11373686210453961
P 5.32013866707532 3.664920212713392 12.024491068861929 0.28388012802326595 -0.9160678584162482 -0.3983914063999849
Ni 4.106372105656927 1.9563225023632467 10.005996455719808 -0.4583744718218364 0.0904048722468185 -0.6772347433302918
P 3.726191438936768 9.248004559424945 8.707603974406693 -2.463318660110048 0.5462426936897302 2.1980404634586854
P 8.14178109181923 2.377633718051674 8.736122139597976 0.1549678437298686 0.06529907831812626 0.8647203571822075
P 1.6665625846765604 6.13562379729268 13.257848177212605 -0.1733751425924627 -0.3271661924054107 -0.8220950663125133
Ni 0.07682902251736536 7.85253807510701 10.521103968412463 -1.2308385053707833 0.2279594055962461 -0.25428570219560076
