# total energy = -340858.83503500116 ev
CRYSTAL
PRIMVEC
9.36493678442473 0.00000000000000 0.00000000000000
0.00000000000000 9.36493678442473 0.00000000000000
0.00000000000000 0.00000000000000 13.70653160632354
PRIMCOORD
 96 1
Ni 1.996791845743204 8.438463692166911 5.434955177116767 -0.5264801663508223 -0.8280654249633351 -1.412093050711323
Ni 4.587985601444043 5.266503374634326 3.044865012892685 -0.5902442960816608 -0.4000405119676336 0.18926507434984177
Ni -0.037323956013551915 8.377638427003689 0.14677384654713213 -0.15335961870248427 -2.1454955994824343 1.115690107630698
Ni 9.315077975595475 8.510105459449226 6.514166759457582 0.07005793315935033 0.1443000796033773 0.2814866880904249
Ni 6.033079649492012 2.1085249078929187 5.317832593781304 -1.2861971846467461 0.7225944024120136 1.2554992413422572
Ni 3.8127561248910813 3.2888440949771063 11.422037066038772 -1.3549374274359374 -0.5779261408359402 -0.2365517752509474
Ni 2.223760456443102 1.2996472130595178 5.721201965404064 0.3075581883664961 0.7029699433128668 -1.5187866328158361
Ni 0.43357597559257904 6.559529577305793 11.313961011748368 0.4342194718421876 0.2008095846543316 -0.00924517274735182
Ni 8.962965713105563 2.5584445713627653 12.32281663264319 1.29562619127013 -2.5741447763256957 1.8167060125409875
Ni 2.285971732267472 2.1961432575260367 13.361935983622915 1.2067932914961217 -0.8523829186627773 -0.398491679423275
Ni 0.25852470207695616 1.660169188885313 1.4671746962699623 -1.5062383638371801 -1.1036360046796412 0.4314082276456377
Ni 8.404909123255468 4.222706237673225 11.015418997805524 -0.07205568031566946 2.160786978423866 -0.8311522914187751
Ni 9.257848846201718 -0.05625517595619279 11.291372783946416 0.4253381101921578 1.0215247399001828 1.3878007538228616
Ni 4.994526877194714 2.495212517416334 13.257410176911172 -1.9696439703250208 1.576287555245782 1.0420112898893088
Ni 3.877308634940363 3.1371789418872873 9.194643014078606 1.145284019237731 -0.5470109393143225 -1.2196441793168606
Ni 5.672641958098314 7.229693826781589 13.077854368746817 0.78778189485294 -1.1090332644358125 0.33928842959024147
Ni 6.356638219374892 4.596657533013118 5.118512086290241 -0.7650397160604179 1.4353553636733731 1.8843265399034388
Ni 4.451856878670742 8.952767296821845 12.112516673130978 1.0747141794389685 -0.0657878450290867 2.15786723367391
Ni 4.26261023380263 0.13198661118258603 9.91751219193194 -0.5780760361502432 -1.0121386706995923 -2.2538729970472735
Ni 1.381946278533635 4.383511569177102 11.961457431458566 0.16292437957278394 -0.4968217200544412 3.212521152027893
Ni 6.393788924055801 0.9788138398144355 12.729639792994542 2.761637075045831 -2.856866879485118 -0.004493516994979358
Ni 8.659766516042522 8.141941695113319 9.429202842629358 -2.399880803370377 2.165777489659922 0.5582114360158322
Ni 7.635261149094697 1.1534980078035921 2.7005293940042434 0.40763220827196245 0.3892971574082005 1.9260676283959668
Ni 0.08483134441178238 6.323411423254937 8.494595250956028 0.9709997345674374 -0.6870632993849393 -0.46783510301410397
P 1.651019645534356 5.571219691475113 0.2245281081438496 0.9066658483760579 -0.4050793599431218 -1.5087819561946403
P 4.1226137920897745 3.440481153256226 4.492068981224145 0.7353352470174497 0.17519882606476278 -1.5470340576973034
P 4.833974398987128 5.5589047994520735 7.130110833765479 0.2878123731981366 -0.12670190690563984 0.24392981288257345
P 8.23501980295893 7.04493298668841 5.473265260985851 -1.9771423355845947 -0.7382097403517675 -1.2466826714918917
P 7.275450908473275 3.7845021102648393 12.750788629995018 -1.9536077427977645 0.22660340578898394 1.4439958129571904
P 3.7684599733557405 7.876061771595377 6.387326181101352 1.0436907344742605 -0.0885801603332539 0.7464699234780305
P 6.503115197422305 3.3094001314718358 9.438317735713788 0.6357170837024794 0.2526880186911777 1.6528557787198244
P 0.8964651401747501 3.0642635431866183 10.271263318379287 -0.5021629297616965 -1.2498371579604732 -0.4174929031161262
Ni 5.736239244583832 7.2618998447794825 4.252355627897514 0.763716369263304 0.9459471624741838 1.607087314235458
Ni 2.2282368962811345 6.1684498123764415 7.385257603102732 1.3623036379930216 1.9988113359175963 0.10284566911333254
Ni 6.472941370731636 3.8833677491144365 3.071236675202097 -0.4402883037440869 -2.089631184214646 -1.0476630888584473
Ni 2.2127941153336126 2.6157579851886186 2.8972455125435146 1.0010631296117212 -0.9243812633779499 -0.6030723010842646
Ni 3.3863799127869525 6.974686595004141 13.56312011355701 -1.043071869943339 0.9026893802268131 1.4235928238208062
Ni 5.701851196288319 7.576589819418396 10.52856308670977 2.31904917663429 -0.25401367948113673 0.12744624127083212
Ni 3.0443630522748637 0.3687949610829456 3.065657982290976 0.13941446937630184 0.43996820140050674 0.5129919020564004
Ni 2.121991687154614 8.378762219431648 11.646302955949432 -1.2033711531884503 1.459648431892783 0.930243892806314
Ni 3.620334766413989 3.95749122467516 1.200888334490577 -0.4653213354533147 -0.12446196183152758 -0.45067298941252065
Ni 2.719989732881714 9.360226336388683 7.8007302191746 2.7887902384218552 -1.2974406187710494 -2.6430781089622997
Ni 7.848659966227004 7.587986947625268 12.22136065224715 -1.136792951047584 0.5605686233940992 -1.9058903821171436
Ni 3.8952331241662916 7.730437002805832 2.7298341545506255 -0.5212346016811669 -1.2576237438844275 -0.5031422629558302
Ni 8.11494258203163 1.767332161827999 10.09073542976475 0.3007866739706174 1.3749182414332384 -1.1819245532788998
Ni 5.797888624194222 5.003030239899595 0.3926746136833611 0.569177962329665 -0.36211699744898285 0.2616429138916203
Ni 4.1817908283586585 5.442376889609738 9.934754913751572 0.41285617567506316 0.21950947505668 -2.1151306140373314
Ni 0.6289884949154192 5.8481970652191375 2.0288133744841743 -0.637823845632837 0.021387464536840588 0.9780702682609737
Ni 9.487242975558626 2.048317728565074 6.844082248507943 -0.8153672606703765 0.22615680516986855 -0.11528235221478855
Ni 6.866961725847476 2.2112769955558695 0.9132705194411705 0.5758054949485115 1.8333284515890167 -0.4568428656686584
Ni 5.260584734513748 9.04263323131088 0.8756787262322886 -0.26348408086541725 0.16389779922964676 0.8671770462528161
Ni 3.445950276405621 6.428682678943894 4.8231916106408725 -0.37119967647654134 -0.0314607896124426 0.30231339502778903
Ni 1.0737181103554805 3.5257957284120303 0.9643206634685384 -0.3982551379324367 3.8966690775382506 -0.18269256333864664
Ni 2.41630355909989 8.839282991471897 0.9935261556837844 -0.5854093365868628 0.757168026621825 -0.5932347461685525
Ni 1.8899098209075074 5.013275480867812 9.986935405662727 0.13991943403717838 -0.1138654172626039 -2.5240715138183885
Ni 3.1046545160348056 4.3926892073387585 6.159413584761969 1.806806236928772 -0.2460427454605182 -0.5925755153179987
P 7.920489032247313 3.1004964840513614 5.5064068361800205 0.7095817922024296 0.5136958701019604 0.4532950004164
P 7.962247285882849 6.298903383388555 10.146315393770477 -1.3505603814141645 -1.6051810983516805 1.1703615310316489
P 6.886412699788048 9.548115065406346 10.582416156351202 -0.017899763098556266 -2.171971020065143 0.27293339920377513
P 1.4990173547161494 7.660705682651044 2.8503140677646126 0.808280529026924 0.3806415386157315 0.4087141284822316
P 0.7764525373120555 2.4968794761844717 4.505391540457587 -0.3463543352980874 -0.2899255628863974 -0.10993574319089452
P 3.719219135137385 7.126557776705752 11.228171634291755 0.12010702729694155 0.0514706570754662 -0.5878606263408327
P 5.8344212430397535 6.873592101172428 2.171114527168034 -0.025471919018859358 -0.07843021638344556 -2.255060332487155
P 3.767457925107478 1.5459263236464924 1.4384458793429085 -0.7093395942846364 0.5823602653478939 -2.401843326413386
Ni 2.021318615483385 4.6003285882777805 3.923412219297336 0.7365210397954347 0.5289054879628633 -0.29611549374719326
Ni 7.543325563550841 0.345372317403233 7.828403607713062 0.9593739774030511 0.15566101314215128 0.46151481722303095
Ni 5.039946821158013 1.6320556483125663 3.09279663293247 0.7068299404889054 1.5378945572898803 -0.0027446526246726927
Ni 5.901727044537533 3.5189124997907877 7.478557659952867 -1.158786938820172 -0.8255442012033783 -1.8393952266083868
Ni 0.8988812938948596 0.3844774844150982 3.1967745908355845 -1.352451170678974 0.3482438390113164 1.3270826100071984
Ni 6.500652219017698 7.124787803631718 6.9427006530233895 0.8574482490008265 0.45950087211679574 -1.769873111347849
Ni 0.7729060357081584 6.148165359051801 5.166786463020552 0.9782325048704508 0.8881775597638834 0.538064528754312
Ni 8.509721497036342 5.056326095795499 6.747574700769678 -0.20271708608968958 -0.5106270013686496 -2.937273759978961
Ni 2.247172798692225 2.6514664895869813 7.545171392613762 0.5965021040659146 -0.13391976481031775 1.176048039893465
Ni 6.0868156574222 4.974495277166365 11.242070137144523 0.5686390591070595 -0.416836757589366 0.029596225599878057
Ni 8.446461348279211 8.327854422445155 3.4682051124539472 -0.6895413286117867 -1.2091185971951888 0.48184350147805405
Ni 8.322853546140742 0.8124747670965562 5.11102856521373 -0.11447039783645446 0.7404067480030861 -0.011628585377863843
Ni 8.992315425349064 4.5291925275880445 3.9451510473224918 -0.3440030614570914 -2.580133389808963 0.5375356528340356
Ni 4.683348753893171 7.398431259839469 8.453873695835284 -1.0199172862037467 -0.16557055894637937 -1.1561464158735313
Ni 5.502190741587798 1.7954550673376457 10.819963399772945 0.3756104039497273 1.6055927319678025 -0.7862456607140718
Ni 2.359889179216403 7.276836919134423 9.476654977899884 -0.5756548283032602 1.132453957352598 -0.09995266383625366
Ni 7.559283416027843 6.012074096026099 3.1305719789045843 0.01124317701398709 1.0823840372794005 -0.5314544796369621
Ni 2.1058090761920205 1.1713756723450224 9.443991950981285 -1.4492755732988911 1.923338659500578 3.575185023119281
Ni 5.464187827649022 9.339969977874743 7.004792057655444 -0.7818243917179245 0.21904744781859695 0.10173752365081833
Ni 8.161111720946899 6.457414305352017 0.4117350697552172 -1.0149864245610327 -1.9390843523706087 1.2397916007990133
Ni 4.334523584255036 9.390222229278258 4.877839763425086 0.24378763087775432 -0.19579130550413376 0.525567681838882
Ni 3.8049551324536734 5.311342692509847 12.168960084318853 -0.016421635891133008 -1.0321169135937323 2.35337520360967
Ni 6.907099845399373 5.373048261741635 8.282075801398598 -0.9227496413117979 0.8126580892693296 2.9837266521248615
Ni 8.802141651727888 4.0016281722832066 8.770275580939451 0.9160526889075965 -1.7097280664268362 -0.29776588486642264
P 0.6304213302610655 0.7608514889309299 13.356631683362956 1.673767074951195 2.054632042431642 -2.6870635134043144
P 0.8199910654522147 9.00178337655461 8.380543430429961 -0.13269232016111987 0.25190511777856617 0.8365955739215334
P 1.1905737929893032 4.4374629706559805 7.032533810233274 -2.137392253649009 -0.255785683779895 0.6475158761096202
P 4.376796909420054 1.8885425401201588 7.096940227266922 -0.5319090506758775 0.025810790415516836 0.4915167629017599
P 3.255270796191864 1.173229929851153 11.61406509716608 -1.0292951278742208 1.3813007479208146 -0.8163100841996198
P 8.052796860765557 3.987627591618231 1.7700479935288973 1.7422090697736772 0.8829816173852407 -0.44677982500570146
P 7.48488835729703 -0.016357735282617268 1.0246580154192884 -0.2298270549326042 -0.825009925966463 -1.4929874123645448
P 6.367726304664076 9.745527935250951 4.223133278795849 0.8265631293861958 -3.0232910446810446 0.10305495691066123
