# total energy = -340866.1415053145 ev
CRYSTAL
PRIMVEC
9.27904126948946 0.00000000000000 0.00000000000000
0.00000000000000 9.27904126948946 0.00000000000000
0.00000000000000 0.00000000000000 13.58081483776328
PRIMCOORD
 96 1
Ni 1.0036860694227678 3.57419395084412 0.7849725686642811 -1.1388871145724515 -2.8398456623367734 0.5639277696743191
Ni 8.927996690713117 3.1120048994888263 10.328508388171423 0.5426639751995364 0.6909014421841069 -0.9293442638101802
Ni 3.9942654333557743 3.574017649057817 8.93172222582894 0.22427810008991697 -0.06555593152393872 -0.749802073175057
Ni 1.7822718739021894 3.585282405298438 11.794584864147527 -0.2935073667003848 -0.23492786649427927 -1.0001640148362194
Ni 5.276155721564617 0.20107404308680607 12.869262095489667 -0.2872045644108086 1.8838388016337426 1.2165107758942018
Ni 7.222044932197341 1.386687781603878 7.008229837385662 1.2225839786714752 0.21577494771491226 -1.7433431833781203
Ni 7.465016630846977 7.742840408936293 10.041152250867947 0.2659194297797872 -2.8885842651930576 1.1893115897715905
Ni 4.700715970113132 6.01283737515224 6.6827934421448845 0.9703703285135548 -1.3535603445827527 -0.06549396793775172
Ni 3.7109762998910663 6.446446979043686 2.248086246726355 0.5182852892448557 -1.950072990171629 -0.22421048007677516
Ni 6.04813484857837 8.945840287295253 2.132921280392568 -1.3860068951472322 0.3406572849133101 -0.4162366621115218
Ni 7.174972355254449 0.3800880931864193 11.29470249088066 0.23494714976798892 1.3496718081616241 0.8232438352049758
Ni 7.82447741503595 8.458226662546796 0.2453016659412504 -1.6143385964812327 0.01782571532751124 -1.1524771945520604
Ni 2.514564540915007 5.974310795324351 11.329142580882873 -1.2247416484444262 -0.7338149537181814 -0.2691253383115946
Ni 2.4140632436809333 4.441431716709779 7.123856899980391 0.4922582690534748 -1.7072950315053113 -1.149411411142543
Ni 8.726298168141144 8.537636698714204 8.052377166764959 1.3317172805657322 -1.4208000915670178 -2.1286780137044627
Ni 6.0153519953674035 3.3185470816634393 7.1018562928580575 -0.9555304352872446 2.1380460851829244 -0.8762265580495942
Ni 2.974842109745121 0.025634279728450806 6.261733741725794 0.4095494798993334 1.601096386759346 -3.2446686832947154
Ni 3.141270996015118 1.1274963186143696 11.516694276960243 0.06662113956365946 -0.1540630725274121 -0.7840802776316368
Ni 9.291660880649207 4.169351665237386 8.012531107252213 0.5422276589930661 -0.9322125864969106 1.012787617137501
Ni 3.4985697635615334 2.840017638430276 0.9897591562089721 1.6680358288943724 -0.157568000356877 -2.214137369020548
Ni 5.908466717660887 7.435648464865458 12.148541320987292 0.7488237684221878 -0.6192843920677528 -0.39155175777033213
Ni 0.8939781073271261 8.258894295527835 5.725807860105494 0.8564308634799056 -0.7989944757393078 1.2876138624886146
Ni 0.661884228892383 1.398629907865558 11.412380221621332 0.357124686440714 -1.2976141682344362 0.6665746925132843
Ni 2.043616074492871 1.440135059977829 13.406138150947726 -0.566076954806838 0.6014779600139513 -0.8093495937213866
P 2.1827089048445245 7.091210448677773 0.7063187743696987 1.4135729776909591 -0.5075722737027258 -0.8791262481948924
P 8.075475484483063 6.936213341393317 12.116504502703629 0.45983228731428544 0.09689742194969765 -0.2446718332549206
P 5.236664121432755 1.5848045942014868 7.958819376198808 -0.7818537022939631 0.22936939856989527 2.0206795967455973
P 5.4128916754046426 1.6229600123740016 1.1530229614627618 0.9121615813833064 0.24703159173634875 -1.2455765829119063
P 2.85585696207339 7.065711642953535 6.688769144796416 -0.7989127146587789 0.7419028729326383 -1.162519923500043
P 8.374557546383963 4.504028129888715 1.0479554479634416 -1.5599695348120488 -0.7093393371743203 1.0677596024980063
P 1.5586933717458793 0.43980521982378656 4.360365371655261 -0.14242086030279344 -0.46445924456333554 -1.536122295880806
P 6.827648557196229 2.653202698238826 11.314394472506562 0.537774508317719 0.16485502093659352 -0.41309785937222404
Ni 0.6238336638875114 7.568979010517419 3.525756426913589 -0.219875343036531 -1.0264877403324129 0.8831677652541178
Ni 0.898244610555658 6.230737103981318 7.308841085306706 -0.39854618681029425 1.2728914686767756 0.33068191886815307
Ni 9.054887581644328 3.779075184610932 3.100567553078456 0.10376920936886645 0.8846541199916571 0.20742529019863631
Ni 0.19586200554120742 5.735885826953054 13.333100960403101 0.8317747554941223 0.7197782731194572 0.200374553999442
Ni 8.365844526524043 1.64363371657837 3.3200614212173685 0.3587465383148531 -1.4480429864433706 0.5619287369664193
Ni 6.144005904161645 5.134260620714885 1.132478235933636 0.6190061987057016 -0.19922964176172142 0.5500543541263365
Ni 3.919327895135631 7.555134680771944 4.749713948143278 0.5536937506511368 1.204682672911022 0.8728604697908386
Ni 3.21894585144365 8.351211478260897 9.675624829421876 1.2442555501076378 -0.36740549954143176 2.634198804194799
Ni 4.557150641814213 6.310351279059183 10.32541197206146 1.0297057330490782 1.2564937440450425 2.0767823532764362
Ni 7.701205350244641 5.906610909384013 8.108289886434736 -0.6933571028134511 -0.008139598387998886 1.226472515092604
Ni 5.355482246359567 2.2216808786588635 4.6558425259783345 0.579235346565667 -0.3337932108036251 1.384069054694571
Ni 4.969140079280084 7.915950205003035 8.249502977742717 0.8167736540995998 -0.6621014872332791 -0.13549507971723762
Ni 7.84666360298597 2.203892956325033 0.5681603434854511 0.2344884649640155 0.13187496646614708 0.28233798034712665
Ni 1.3752003283700325 5.407454157153403 2.283423620030438 0.14345084422920457 0.627094632140791 0.37990491756002315
Ni 5.113336382393139 0.1843606337452852 6.409669498516749 2.2948779787047253 -0.6277929437593962 -0.8209527251779538
Ni 6.874452041938974 3.6700928435515476 9.325727953187771 -0.4962838452731001 0.26699440801152086 -0.052677532899373804
Ni 5.7762403779336635 3.1622880247507084 13.150955233836264 -0.2672764580283139 -0.10048462508032373 -0.06142339741280389
Ni 5.088728364641799 1.6423903250328649 10.352546672781763 1.1148686401706671 0.472969853137508 -0.527431474520498
Ni 2.8146301812026495 2.233511656423931 4.744307978632747 -0.29280159888261187 -0.7009714248255993 -0.45594735043758255
Ni 0.7778304905107343 3.5412255168054663 5.616848716649571 -0.10635316804595876 -0.7469437777906556 0.0776866533492017
Ni 2.825514496746512 8.365269225958212 2.9007266945916323 -1.931296223784758 0.9967457331832897 1.390576773906102
Ni 4.267997154194585 3.8323461611985796 3.110590773581849 1.2169720318013364 1.6977315561865924 0.3683740341022882
Ni 3.334636939423931 9.214245838379439 0.9520816086677522 0.5413797091704741 -0.7661905418354096 -2.504104326667842
Ni 1.2871422256323948 1.209643671990166 2.0097030340412885 -0.17421717887778385 -0.05474341428946701 1.2959259818987356
P 7.551218925307742 2.8987446913519315 5.094774588007852 -0.2906619268317897 -2.160169656554841 -1.0897595038078651
P 8.02631512322869 8.833294794344273 2.518561951943392 2.16921376903498 -0.002145842698409208 0.4709188841457503
P 1.7946779522330873 3.7370504061811363 9.339607543290507 -0.254240193669646 -0.07488646489624522 0.9054582012212019
P 5.1505360593030645 8.720907045096824 10.613420425974256 0.36853781337366204 0.12482011650189472 -0.30721957408015477
P 0.4153159738021666 5.397210095465062 4.677069261049212 1.2332761682779987 0.23509550242039515 -1.8780682176985528
P 6.920633830908965 7.531658706069497 6.991484879303433 -1.1448279055369188 1.2719761559513578 0.15870957016048795
P 9.0046322935066 0.16883030218027104 9.943587770232027 -0.708448964149567 0.40529173306424393 0.16733870659039568
P 3.82560957715353 4.040205967249773 5.307355570315412 1.5964318914041409 0.7578470549667207 1.0540972745195654
Ni 9.199751975737056 5.943996167121626 10.255063847710025 0.09686322627765254 -0.30757181521325094 0.3935397347346384
Ni 8.451016847391143 6.729717554425625 5.636704009403838 -0.6610833303814099 1.0396391901127062 0.20304952972844387
Ni 6.538764161776748 2.8831651808675804 2.637285430648084 -0.20818068030742212 0.6851761096645554 -0.5872291634044209
Ni 8.135705742108986 8.861837125642584 4.659713742043892 -1.4406058134390352 0.12955994517972524 0.01794912827925296
Ni 3.3890492381018555 8.01781552132061 12.224960722116519 0.2710770627213267 0.12558270569953212 0.5506482789565936
Ni 0.10768234736143444 1.7247882125260392 8.433496161449181 0.5353926383491037 -0.4827264183036396 -0.6979750612014366
Ni 8.324970349225909 3.998942070213495 12.261751193301395 0.33503479652021007 -0.763696314658646 1.923919214594396
Ni 5.937120397455811 4.834204259468628 4.833968571817464 -0.5585616202663993 -2.0167998020752167 0.2517002008566117
Ni 7.869926159736577 4.597922749657119 6.151430065173276 0.7789038756370198 0.44512454879046565 0.5850966904424505
Ni 6.8078192457578375 5.40942131392689 11.425865452465233 -1.3126579499414361 -0.975841378930455 -1.251175931376555
Ni 3.1099727894256497 6.052486718987639 8.560856571874442 -0.3074625433288963 0.13898638069994776 1.342557565714346
Ni 8.227048625496689 6.635711586160609 2.0376385160330623 -1.217051221778704 -1.403593240770428 -0.04589470564958548
Ni 5.112482710585778 7.355217734145769 0.6685790572512034 -0.11301875299159243 -0.42552837182609293 -0.18320061332331675
Ni 2.806891460688088 5.702963788121322 4.346784566685102 -1.7637783113040206 -1.1352400047381674 0.5929413832978497
Ni 4.131994244623926 1.1175955814572505 2.730857139776312 -0.6606210460330106 1.3753638136110895 1.277934944637954
Ni 6.188786557882597 7.153463537325489 4.8583056415603805 1.0162200398578176 1.4723280842429805 0.5781385139570624
Ni 1.8772892576781022 8.7304180625158 7.89300684727605 -2.882044664302327 -1.2070627431074243 2.5066078098159865
Ni 3.173571339074098 1.1350587373426284 8.96796894518869 0.0709102538573166 2.6879199478673383 -1.611652050788005
Ni 9.341953284952474 1.1616988651571445 5.999637010878841 0.478438332451247 0.9316942520995954 -0.09304102431808492
Ni 6.842467186287062 0.12678974938012186 8.801278389951655 -2.559117192568612 2.0393002971705783 0.41441246441858953
Ni 2.5298192849509054 4.856037843846042 0.026110294551468804 2.0162953516349726 2.5386069884304017 -0.577799899670721
Ni 0.953607083071342 7.6717072776837405 12.31775855919329 -0.14830637254929296 1.4005236007061685 -0.3729490550674803
Ni 4.189236650924083 3.980773707182906 11.218989224800783 0.2705085918123664 -0.09739904417646453 1.1463006334277033
Ni 0.5499112527948176 8.20252411911781 1.3319386537237006 0.8712090502303448 1.1046284504998978 -0.8386514280092976
P 5.263944503102791 9.280897192643343 4.170410403859342 -0.22142700379436706 -0.3254636078920072 0.8557520922453262
P 2.4359896184721914 3.0116891830824404 2.6795217712214434 -3.4093223868537796 0.3299897778971349 0.3237391690017328
P 5.738372610044064 6.009153595722647 3.112654432385732 -0.5010301017088339 0.15143360532436503 -1.7305632580046326
P 1.4675731853514007 7.360005719500101 9.650187265370773 -1.7971419743661305 -1.704610799804929 0.24122295547437164
P 0.06395486483760744 0.7021691870626101 13.452571401939235 -0.027687438612939413 0.21144726687383586 0.12863434804166232
P 5.491921270875292 5.364195266219487 8.83076161604634 0.9522785040088502 -1.1800476479711612 -1.8101522705828696
P 2.178570452387097 2.0135055852006016 6.831761028337779 -1.1599336508301055 0.15053449054886334 1.2730799305384977
P 4.629722024481343 5.097877499446785 13.125300540216767 0.15789941555436676 0.5365460352272565 -0.6722000091198617
