# total energy = -340861.070842846 ev
CRYSTAL
PRIMVEC
9.35568350667051 0.00000000000000 0.00000000000000

0.00000000000000 9.35568350667051 0.00000000000000

0.00000000000000 0.00000000000000 13.69298849899626

PRIMCOORD
 96 1
Ni 2.202393434409968 8.010673194533098 0.48695023899132417 0.7888478742236091 1.039886273126506 0.16629252471406847
Ni 6.315732044389939 0.4546020270060565 13.03599917442801 -1.2205744044406142 0.19243190211359762 0.9185361174510825
Ni 0.8914310616739556 0.9904862340583894 8.926582467058006 1.224243625762085 0.9013068980569896 -4.060217978068911
Ni 2.446745181468974 3.797593640552971 0.5172748165907712 -0.7250564907992609 -2.0376720175385357 -0.1899207056559697
Ni 5.4260252352231815 4.295016631885893 2.2388862142774295 -0.2185378551720301 0.03476748538817238 -3.032633405127893
Ni 0.1570772515984068 7.701701740109955 7.468196972740825 1.4175309338974424 -0.2908467891490862 0.9238557298917832
Ni 4.314560655149783 4.215558810162478 7.519888060790282 0.2893984867383338 0.3640422394961537 0.010659022375742934
Ni 6.46198944778122 3.4401597445276493 13.361002528451444 0.9212853980614455 -1.720626972727527 1.2315306463418016
Ni 3.5436523176943058 3.654966242440001 11.659757518626519 0.8455918638828728 -1.3377004947323607 1.245433886686455
Ni 6.820246643972755 5.622270056660876 0.38834413942482554 -1.2492915698696485 0.17808900312836426 0.09142482887090062
Ni 1.7284999876001104 5.427428587779229 2.5199066280575884 -0.5156013146547895 -0.3957902213317119 -1.4613168207341414
Ni 4.895539257669777 1.728864859264683 6.576098850818561 0.3932962512652646 -0.017599715359634206 0.9902498410463011
Ni 5.424425413309287 5.02652818525126 9.972371083076748 1.7377574617602267 0.17416061460823554 -0.17338208457099819
Ni 2.9131260142621236 1.3610180872734883 10.399756490610818 -0.8612532245692135 1.2224345975778044 1.1399854898429527
Ni 8.048526290811555 1.3806088889559127 9.675110137949636 -0.5948589120355369 -0.00859082699280456 0.6050556500628805
Ni 8.273231102085896 1.1919234599534605 7.2947341766980065 2.2634459854476887 1.235548766362259 0.0073523266000131435
Ni 9.038554096368303 0.8798674366121234 2.984044903466174 -0.8275242077478844 -0.5086480232654079 0.7815978775294152
Ni 7.938690564091564 3.483635606714004 6.125476731661456 -1.007645410814929 -2.0881399443811004 -0.0778100663009434
Ni 3.433947570546212 7.020636033292645 6.65016405645327 -0.6364999846150909 -0.33807846844254036 1.2306940093731193
Ni 6.6069183440861075 -0.02682835859814714 6.4063605524594935 -1.4877696156090312 -0.12194742293978998 0.7839013288516112
Ni 2.9464416039426933 2.174260893503067 2.1694071647958837 0.10716949329966705 -0.17699191340944356 0.9472273147381879
Ni 4.099407996940273 7.527657956108931 9.895457071753265 2.59134468514375 1.6443282008647873 -2.2530175910255132
Ni 7.460362523204596 7.238417638623817 6.646371262278459 -0.3308788653703076 -0.6578031169682413 0.29672895896147605
Ni 8.231598309589817 1.4952627927850006 12.155594721571106 0.6731639156950278 1.0186713296117875 0.365516510048835
P 2.5811676449709196 7.183948848081756 12.198193956194116 -2.085966590878866 -0.3041969852037471 -2.127584266419652
P 8.960799009079558 5.228517396485043 6.08501339962875 0.3084066524097205 2.115571815339808 -0.8694208479816704
P 2.789163205144586 2.2891393337411228 7.932936818611768 0.06207748605703503 -0.5430175018842132 -0.7596671388945949
P 0.7125372912392329 5.084299532141885 0.11565309084899403 0.11406519197823581 -0.007170549606510231 0.6032525354158708
P 4.541407917993022 2.690947237588669 3.544978018075586 1.8926286320112309 -1.6959947760011436 0.3989809603548677
P 7.0393286893391975 7.739695171644016 -0.36684758497128855 1.376762493730829 1.1405984408366034 1.8179275436529145
P 4.95586470621241 8.41627950596568 7.476070716148622 0.056718535737966834 -0.7821509218194078 0.34105991966836746
P 1.645973501620805 8.227865391790731 5.793229271743705 -0.16923618072342464 -0.6521613453014317 -1.6582391545189248
Ni 6.531586378877473 6.790476858417133 11.621896937801095 -0.9872971861758805 -1.6233130320657012 -1.6574079168668812
Ni 0.2746922293207554 6.0328629475092805 10.117105381160531 1.0840799369245846 0.10743046027053756 -0.7897462176681624
Ni 3.697375556683759 6.857379352605774 4.233995120475461 -1.2135349810953293 0.5629330098612176 -0.3170095635873831
Ni 5.925113538255946 6.38130603149219 4.729312147405941 -1.019797729906747 -0.3031567168646908 -0.4667225866762156
Ni 0.8283531709847285 3.0657172155230317 6.673921879658785 1.0856642506925689 -2.2465697785176406 -0.21041933982995376
Ni 3.0744367127379406 5.832005774004042 13.753375225280497 0.6226455952305018 0.19907563268236037 -0.37880782784110245
Ni 0.826465194012659 0.215253699593545 10.892567129876197 -1.2203635739813885 -0.7725972166927016 4.082286527833176
Ni 8.880714356547776 7.08637842270162 0.7947138746478971 0.9956031349384145 -0.24516008574524875 -0.7244754214848104
Ni 4.094374639105915 8.755965669998853 2.90102443738714 -0.1359321672546562 0.3136974684950146 -0.20413093571808072
Ni 1.3947359713534582 1.9880547206829655 12.639121715894044 -0.3972297819917159 1.05577054845693 -0.7422016351199798
Ni 4.5183648690227205 2.9387044535170177 9.27146758452715 2.5295595335161534 -2.8948901528064273 1.4652102422512767
Ni 4.3305869413398455 0.4917094752930669 8.928321688659135 1.3701768700935113 -0.14207556114823272 -0.5775828985639085
Ni 7.413715084241574 3.4834391373561573 11.251118094536132 -0.6691612222935379 -0.8726437257943424 -1.556884725239138
Ni 3.7025586054574284 4.615776247779837 3.6651068680100005 -1.4019474776368888 -1.5249086865531738 1.4077368306251563
Ni 8.913253424480667 4.922511693797012 4.014318989193625 -0.03110597737618514 -0.5120652764770729 -1.2912972248774728
Ni 3.966257906422477 9.061718769226795 5.274511808725317 0.8538433052583876 -0.18464865862375296 0.1824670775914019
Ni 0.40041203583846413 7.2919321494277645 12.085815354642568 0.28388758422243365 0.3470721873007184 0.30546299640036423
Ni 6.8564999183373185 3.589953596360169 8.481313670118038 -2.0707677716512403 2.0417562149102384 -0.18443294306852107
Ni 8.323630170215418 5.182665190637115 12.471204033584355 1.2657617996105297 0.7492076341241677 -0.49965816106197175
Ni 1.8979501309010034 7.822352637195219 9.890623925550235 -0.38250738817987673 -0.6405674698162452 -0.35810864762053807
Ni 0.9327392119454018 7.008146195543821 4.075869096733501 0.14207941780297464 2.18702431485384 -0.27455807929139164
Ni 4.976615612674501 2.136342307438661 0.9415382324718201 -0.9843147065087887 -0.9076086719053015 -0.41248953636426383
Ni 5.160248972475181 7.403227362806046 0.8708915936636431 -1.1061973376489143 0.7131499691696621 -0.09201181172262217
Ni 2.6414650264624306 3.9975620241060454 9.339837049921048 -3.1048448942951365 -1.2261454707704884 0.03582266612556411
P 0.6029990752611236 2.398432430806109 10.582954811119125 0.027831677500287554 0.6993745126521246 1.121750712002481
P 4.971114470654794 0.6067413487439172 11.148858600482056 -0.10366765079399565 0.595153303347504 -0.6657305993454341
P 6.482459683732101 1.669287865418609 8.203811928980075 -2.483868973457574 -1.8798091116490594 0.02701200981246961
P 2.6136038003830326 5.963237949361905 8.67166066854685 0.6328158508952845 2.1462237358977103 -0.22266987506253264
P 1.410107359684033 3.259464069410962 3.4537965890989493 0.15137267017944253 0.36088621036567525 -0.1262617340444277
P 4.116921836839746 0.05481962868107238 0.8654886863228599 0.6362148492745043 0.052458474910032235 0.6756375740465009
P 7.4423060536501175 4.9370691376450795 2.350250659715142 -0.24677808096464596 0.553933891686401 1.2640723277232488
P 5.529985592575187 4.843867816556106 12.188211441678764 -1.0719708123658764 -0.3128438622454677 -0.5749891696948033
Ni 8.968255488994025 3.469695637990598 8.924021816427405 2.7639376981545496 -0.9479215125917353 1.0077654813325612
Ni 6.801544632242494 2.1621639944699367 2.3529076738879255 0.7112386110795622 1.8667463649278302 -0.10375532541179551
Ni 8.916434356941041 9.050370324890222 5.657888080101734 0.5493262177110604 -1.5296186904343334 -1.1030130263836617
Ni 0.19818331910178213 9.349087949970514 13.437477758209072 -0.8078943493320989 -1.7390152454267276 -0.8831430826637693
Ni 1.1941126899408947 4.335536098020841 11.729975667120916 0.4011561136293156 -0.23853229601608594 -0.1433269170568306
Ni 3.405225621565772 5.633992728345727 10.673684360572713 -1.98173175472749 0.9070795388747087 2.5355610025152266
Ni 3.3668205399486024 0.9333772695742181 12.848733938212279 0.6550286395468976 0.263195860201037 -0.49506925613970865
Ni 7.357777451357517 8.980399166445691 11.033755623835033 -0.01843506677673599 -0.977715456024716 -0.23608589135812244
Ni 7.089241261915957 7.117317668720616 2.2339286374810987 0.12059193735316005 -0.49100099960760596 0.718514318805369
Ni 8.271313186925964 5.471755817182919 8.145753362599645 -1.9791418825131273 2.2273425548569126 -0.9269263983973068
Ni 3.0966190388071992 2.766709564247825 5.473292956015976 -0.3307230565187337 0.873053045417619 -0.29339063861686243
Ni 2.5183722959296433 0.23289009894958043 7.064048276829791 0.6208867035578662 1.1249764180286301 1.2501413194644533
Ni 6.585830633010565 7.438975430250431 9.191884396642063 0.2209786034030388 -0.3509195860712666 -0.6709967328403799
Ni 6.387705319147766 3.942503825490445 4.2495236842923125 0.4800136473581669 -0.3164169243087067 0.9789120474359787
Ni 1.8385041166268274 5.1571709525355836 5.0830701953027875 -0.5932105777988365 -1.107968570616724 0.7600386633014008
Ni 7.11212526426324 1.4505519803493245 4.6696238209237535 -0.08782091356972617 0.28533742929508277 -0.354423485459467
Ni 1.0089449980122687 5.04321872498452 7.642891912327853 2.224441064939401 1.1309894569919294 0.5109147078123976
Ni 4.372734296439809 8.13359752275916 12.067083404724443 1.6523438720804124 0.08136075976667924 1.502917012773431
Ni 7.922392963073998 7.33168444949874 4.398694447589947 0.7697353217638744 -0.005973701084931647 -0.860928237129627
Ni 6.423846325307847 5.192947087031091 6.581795526627743 -1.2464525577589565 -0.9508011481323754 0.5762083868138851
Ni 6.435391239002264 9.344316551279952 2.3431712138540672 -0.4591360325782093 -0.7619461647367587 0.2631544654401403
Ni 2.0700385770072662 0.9032070607559363 4.256711656084389 -1.0614004930491978 -0.16868030821995467 0.18798183676204402
Ni 1.0119668838496245 1.3597270029219244 1.199466012158031 1.3788993375681735 1.2585866220183293 0.933810784221966
Ni -0.5697742357125115 3.518644575145538 1.6190038721986824 2.1337207183346933 0.6709283414962898 0.054370604331080555
P 3.9497451246796507 5.069966624702786 5.754506096880499 0.8211296170754503 0.772122076828496 -1.514655641366598
P 7.736907177899334 5.2235869511714625 10.117420667701458 -1.5708003068789658 0.3632791360778841 1.1336906579731765
P 0.772193808396816 8.493230004455624 1.9599455689853325 -0.8754644830725891 0.48196357199568607 1.3180649798896205
P 9.240852045164416 1.623725685765597 5.161435273169227 0.3686085187105974 2.2643690114825903 -0.18608564818059567
P 8.265147791363061 1.6929296781461574 0.7035277678294074 -1.3378136232714573 -0.9031447225966768 -0.6387335019312999
P 6.057805200272099 8.634454050012545 4.47849749404215 -0.49418196843874895 -0.1055404423366763 -1.9851158407083747
P 9.084883442085287 8.321656120953245 9.455680061149293 -1.2673885365806754 0.3729462268540029 1.1753985792349242
P 3.919928560705493 5.9164782421944 2.0841413346271738 0.05626910690537405 1.678066216547181 -0.9857103013047347
