# total energy = -340865.2324540695 ev
CRYSTAL
PRIMVEC
9.25260015402878 0.00000000000000 0.00000000000000
0.00000000000000 9.25260015402878 0.00000000000000
0.00000000000000 0.00000000000000 13.54211559257540
PRIMCOORD
 96 1
Ni 7.892782377137108 3.039164507263154 12.571064402521264 2.0035025707456784 -0.13521148703854777 0.7183749650140273
Ni 6.4343598094182575 3.477626715437475 1.0346904987235108 0.7414796693522907 0.9468971850922789 -0.5780708939439205
Ni 6.795109430303473 5.633750837760715 7.006635894381628 0.44278587335496006 -0.787757726483224 -0.9259671198078311
Ni 2.7603836696609707 8.335389750105513 10.499161146317842 0.2914743954307561 0.3868186139607209 -0.1863378734007178
Ni 0.6773717419133999 9.00395486735148 -0.04009059048279128 -1.2510872283174905 -0.56135023875513 1.4867979957243815
Ni 7.604989507147786 8.92498392646417 5.490230983585516 -0.1466187004342249 0.6029532590078971 -3.042972325160056
Ni 5.079751413551265 1.7423941139136276 0.7434380815991242 -1.3742386988677107 -1.2685553031952668 -1.1901019468833696
Ni 6.611676635565228 9.00251146175354 8.750861097832642 0.8915025103720582 -1.845553018679667 1.1141417893069714
Ni 1.7060499011654904 0.37449990972559377 4.495129584425512 -1.5122979397676988 -0.579183667392125 0.22772337832604006
Ni 5.4121603206769215 7.635828422903778 5.38105400478131 -0.1300469121184728 -1.0183406857452462 -0.09623124912060847
Ni 4.034846044442331 0.5296706378041673 8.898239286202335 1.1732964452902568 -0.04324981182757068 -0.6161026519056615
Ni 8.025353629747931 7.735414156561671 7.217337951800959 1.2407485653956438 -1.4086331171871804 1.5005410563420867
Ni 6.692072476850505 1.0278713325332418 2.588833063825771 0.4102891862788353 -0.2992393840881556 -0.021789070850633443
Ni 9.194058786680205 0.6185825721172912 2.7150588833656486 -1.3668462630583813 0.3216190373349364 -0.4969726438100087
Ni 2.4926226786430616 7.747609083344268 5.955768149841202 0.3825888921500895 -0.03624201305116984 1.107734857339363
Ni 8.520848864240866 5.1559928374424695 11.331771160289719 -1.56365469697312 0.059805916414038936 -0.291784213361691
Ni 5.25304335870398 5.240746653321527 11.026600057005194 2.111937046800698 1.5469497255136133 0.7851182319778479
Ni 5.297677901040287 0.8393570098822491 10.948394306136793 -0.539474007507329 0.6355540757620538 -1.440931829319886
Ni 4.766800724197841 3.174863138669514 9.830262010212353 -1.1673402277068219 -1.258922150980877 0.17304192762276005
Ni 7.06324977792084 3.5108342967900876 10.089431036882521 0.8419781783896854 0.3465888199063967 -0.32369520313767475
Ni 1.0325624007265477 7.621579418924111 8.923468350586333 0.546248093006369 1.0855706625374981 -1.544505891958811
Ni 5.288675121253133 7.618655597328283 10.344496535458546 -0.6049659185625517 -0.2246082297358261 -0.6089480431387513
Ni 7.7825654060943865 1.2473059938201116 11.046235924697173 -1.0335194503682137 -0.315661791310237 -0.0024497470920732
Ni 4.1086077715370735 5.475956997585885 9.04548331187222 0.3596654505846967 -1.3839582401483197 0.7948488290020504
P 6.681441239465675 4.959532381922816 12.814768633573502 -0.10018997665804034 0.4621835611552814 0.12773754725900582
P 6.546482816058259 0.6551497725251103 12.647888740211638 -0.4647112126731416 0.2877740637610334 1.3536382490085397
P 5.244438440716258 0.07323432889549562 7.0723423079278644 1.4164950364337605 -0.7038898840239748 -0.4919921598762817
P 3.0447438250551926 1.4199132465738034 10.6354223358034 0.34830117461181304 -0.2827419006537647 0.2596006866506109
P 5.611220756792865 3.7621996806313933 7.995563033570442 -1.87609129647784 2.562620063515548 -1.3000022088506387
P 3.6793148899496684 6.336855910757394 4.448354915712259 -0.211635471625242 0.15303848791763966 -0.16683605592236428
P 2.911117776045875 6.983649660234429 8.089802614955964 -0.10430811259147198 0.483576939229393 0.1226825013336016
P 2.939282690405684 2.846645659337876 13.451423383985004 -0.12364975034287737 -0.6688920277925512 0.0632617361731233
Ni 6.246439503686417 1.8493171593610498 8.309672148442212 -1.151504546226146 -1.4007786541397682 0.2797241968733634
Ni 2.153524141726951 5.402842952490217 2.2744121363344454 -0.804637532957698 1.758116485032553 3.220402097437866
Ni 5.407765335683193 0.6618070182156105 4.846479488984141 1.0221374337835172 0.7921789954793711 -1.0038388925846453
Ni 3.0577252228366683 3.30742513868035 2.706527060917823 1.683002991727166 -0.7714391918288585 1.0987863898968238
Ni 3.6710245603614986 8.382207906038705 1.0054670869252125 -1.7640421064883685 0.5141149599172501 1.2946926237122671
Ni 4.9517879557338675 7.316410166159584 2.77300514130296 0.5310032510321564 -3.0601290394450005 -0.8055502745799545
Ni 8.138725737386151 3.884102685457439 5.42977912157178 0.34217732110226234 0.28298975499851264 -0.4578268268484825
Ni 3.477830272637184 2.893963455670354 7.343455515920991 2.1599706531701575 -1.104003672431705 -0.8638580091819122
Ni 2.115005567981916 4.477092566011251 4.98919991852048 -0.19514158773527682 -0.32951592358450993 0.46927492078442407
Ni 4.782585659775316 8.611431818111605 12.682813604121801 -0.8189719473024993 -0.12264239212428554 -2.455934194720519
Ni 5.759456661181336 3.1447089153125436 12.02515452648027 -2.1759642003849367 -1.0986982010583917 0.7806419413740491
Ni 3.54941763873503 0.812876068720037 6.155948150555547 -2.111001936580939 -0.08311476634330847 0.03538892102225518
Ni 8.767754494888536 4.799619696351009 0.6384562316289318 -0.9834006793349516 0.3260583040532126 -2.585263769056993
Ni 3.095364799582957 4.929045064966321 0.5192226018990764 1.8750564274554224 -1.881008531273799 -3.082993602748
Ni 6.516855990900536 8.14799684257292 0.4777589255782446 1.1329398958500811 0.6691949037449507 0.9294967302276443
Ni 0.8081405880467946 2.0158084435234693 13.008258079237395 -0.728909545996764 2.2360987037829876 0.5419618069261892
Ni 2.621816732258704 4.918978236180686 7.35967902473784 -1.9788660031439211 0.37676868592388657 0.5656750913827291
Ni 2.520361973403478 0.5594214478017133 12.682462005322302 3.433108947750416 0.7616556300795335 -0.5262708785534936
Ni 1.100902104229028 1.931545015443712 6.069143033259416 0.6135819423663368 1.4630625997806546 1.5578496602555685
Ni 7.632858338308016 3.4433273272864193 7.672691706511175 2.58418673394273 1.2945571265756672 0.015314004649251046
Ni 7.028635801370234 7.029607324368847 11.813776104001905 -0.808420397038898 -0.21355428591450962 1.029117464645776
Ni 8.26605076580446 1.257382075205733 6.995585514217397 0.00041446182959928627 -0.04523007548239307 0.37992677193689406
Ni 3.3380327394366733 4.267178830110795 11.384314825094739 -0.5350784495427947 -1.0972887223053747 0.6958292185030275
Ni 0.7472723590336526 6.038681623582884 6.687353650857239 -1.0762689255205982 0.32449533044146694 -0.5465810508657554
P 0.5454241145416873 3.4508311858757117 10.971876479643283 -0.465102020353657 -1.1671975314813705 -0.5044326996324796
P 7.388330625856954 1.8708757173302861 4.775640658225227 -0.4875644631222313 -0.04387176168228573 -0.11100249389251207
P 0.616743155239916 3.7771703874100298 7.328004599203039 -0.24082572003595298 0.05533425379593051 0.14384833677793937
P 0.6283181578233986 8.94642220063358 6.416715101243436 -0.09205860580015758 0.4248573139009973 -0.08001838680617188
P 4.798213301153016 4.964538038515673 2.1135584613439815 -0.6107372738286901 -0.7244432826952942 -0.5978416488129445
P 0.022927942767282144 5.137200806869285 2.5758183566843424 0.348001126872891 0.81818159019072 2.3034675201459494
P 6.953421416077564 6.530466565481115 9.056560524576414 -1.6010943298768168 1.313039501650571 0.7583695031290939
P 3.107346916565859 2.7094666119336286 5.092106410313634 1.1859305891144993 -1.427877053018457 -0.8280217162095933
Ni 5.417813659268854 3.048953758049185 3.173567774671363 -0.4262513660350465 -1.9184450788537022 -0.5367573799071143
Ni 5.46710225939852 3.0718169326165596 5.64526107214429 0.3975180026560961 -0.5892500504891917 0.5346842994281695
Ni 0.9513893410423805 2.4848782524541133 3.8164254681140135 -0.038097321092353746 0.974000211956658 -0.12888297371735866
Ni 1.373789035639622 5.130076304879452 12.08532233367441 0.4956107304654755 0.8265027084619057 2.3112260810454455
Ni 5.119602361694398 7.026350409173495 7.7073732270416855 -0.3210906756352922 2.1546620964730505 0.28120746628710924
Ni 1.1097568424163924 3.41279374732999 1.626408146779138 -1.0870094518665538 -1.451778799336719 -1.4330709385145703
Ni 8.663126094237839 7.245794323060352 1.3364372147529224 0.505668886032426 0.3644235340949724 3.1049030012265817
Ni 0.7786146162289277 0.5892388765191643 11.105035272353268 1.402458355835036 0.03221283728711872 -0.16865254030581278
Ni 7.933031187079674 3.3871177823666296 3.038552910404027 0.24556786270662867 -0.041863215892689196 -0.03457233865823078
Ni 6.825883577859559 5.777850829955087 1.8100935374970215 -0.5485458879016101 -0.474733372795834 -0.11354042982301736
Ni 2.1489070943335395 1.0542875054955463 2.0667301275508048 1.4923423225813783 0.9353562743322149 -0.9370346904759024
Ni 3.48679604202439 8.534191113421826 3.7635709159494364 -1.2522041155307533 0.2403135562862248 1.1263738125967893
Ni 1.909385038475334 0.6588665419398065 8.16810274234423 -1.7742596704513185 -0.002153556007893065 -0.08401850910450046
Ni 8.86346338915196 5.777277168755906 8.766285182010632 -0.8135165806148827 -1.559903457460804 0.09725146285500672
Ni 4.862250545661635 6.462404439978238 0.1252839048612216 0.050113371716623376 -1.0005903037403607 -0.5634348891983006
Ni 1.7106206855589678 6.813790429676816 0.37499862486488217 0.7282145768122684 0.7330215112826085 0.17361579784835907
Ni 4.4494272920507285 5.16910377162376 6.070469856097523 0.2881453310575231 0.4789183574114591 0.7291489157010798
Ni 2.374615018411457 2.972055399558918 9.258040515588904 -1.9152322283433598 0.45724112954834156 1.5171850926566708
Ni 9.039605135100608 7.411989524023193 10.77554278474345 0.532213983510806 0.41020665386735805 0.462004612375256
Ni 5.7605299627798034 4.994266642273251 4.117236746284759 0.8574639327301103 2.008094303881419 0.6089105050325965
Ni 1.7176804193488937 5.431007866850027 9.77857236038611 0.27760663630972837 -0.021763874039652843 -0.21105903029648165
Ni 8.936170319848209 2.075237893238664 9.209884433697622 1.4102102318663132 1.7658596193130813 -0.39911260083672556
Ni 9.103762663409055 7.716437073988751 3.7106886059848985 -2.931988086099989 1.1230935991836206 -0.05842189158231874
Ni 1.3921461940134268 6.414263162246935 4.285374993244829 1.1527738998568726 -0.1115820205450659 -0.5381527175927442
P 9.04673888969043 7.102147708265334 12.977544998841223 -0.40521845662414724 -0.945267877018972 -4.1428727740566655
P 6.909416050540359 7.741890976552428 2.6323702478036437 2.5652343612099435 2.14358784093676 0.9849708520355488
P 4.371973777561254 0.6186205077772371 2.4367416010228036 1.1123926678263487 1.1350618272890902 0.4032186525852991
P 1.5316476440143598 8.299341620556955 2.298719641759759 -0.2354390018027429 -1.2552719558227994 -0.39323685878223885
P 8.823584683208866 9.251582200798119 9.489150107539114 -1.0643806587234443 -1.2833049507006156 -1.5508791424750064
P 8.217261806074081 6.232754908305945 5.30127808769515 0.061189941245759126 0.3318828811547897 0.47705507895047516
P 8.362546131066761 2.1477135089352424 1.2361103478360875 0.5391215092639167 0.1824670775914019 -0.7288252138130739
P 3.130996562132111 6.641405239322806 11.691003354777099 0.7858476539447047 -1.540869066537172 1.0508828813473257
