# total energy = -381174.2771460862 ev
CRYSTAL
PRIMVEC
9.19586775943604 0.00000000000000 0.00000000000000
0.00000000000000 9.19586775943604 0.00000000000000
0.00000000000000 0.00000000000000 13.45908199849179
PRIMCOORD
 96 1
Ni 5.767556423727238 2.356671060588813 6.010166410093385 0.0005612718201087108 0.020276747971165077 -0.4720928498491934
Ni 0.885275173144522 3.071245176027753 4.28670442526313 1.5874497425101888 0.5353687270897037 -0.06465501697622414
Ni 6.455655635319001 5.233423629333557 3.5093206925067237 0.7850796654304285 1.2228793984247068 -1.07083824142333
Ni 8.131777291908456 7.4202194211592944 13.066360041494582 1.2127729061183243 1.11128349392257 1.579694781155118
Ni 3.5156171032966372 2.5928025579795055 9.182647057282235 0.4045376285070388 1.5008043373058024 -0.40081467112949676
Ni 5.116305055037746 8.554263053440527 7.860399871813541 -0.4383982858102256 1.3000996536604512 -0.2368201984209857
Ni 7.288240324245548 6.21779531475246 11.53034203115857 -0.895171217472897 -1.3038928021542964 -1.328909378803292
Ni 0.8046954605876376 3.945864177384117 8.330848521847079 -0.6552127305332458 -1.3168766160084742 0.6043753361664043
Ni 6.992905828949985 0.5857363270191819 9.0227529835993 0.8628010286723077 -0.18474558921293344 0.7768927587442621
Ni 0.6396792884528526 9.118981304658005 5.412045088110196 -0.09115460592864946 0.36390622813892165 0.8405234482210298
Ni 5.735931833824342 7.505869735307472 13.364088221219259 -0.7869552851865866 -0.3518058453309619 -1.424911285521914
Ni 2.3894359381183343 4.041492008265252 12.826344209479004 0.005570552109242019 -0.985246988515071 1.1914407202994513
Ni 2.1764596362424706 5.425065517550007 9.254774847600169 0.3964214271578076 0.11732766477959149 1.021371245041454
Ni 4.259967439179189 7.883994629816697 11.428443537917797 -0.8442518049152105 0.010733070146787966 0.07308129336670639
Ni 5.961644412820156 7.5175668793483235 4.901219221052628 0.38451696241073774 0.19952454729432087 -0.23663867853779894
Ni 3.964173150485794 6.9632675465257226 6.318554439953404 -0.7196013812219607 0.6896732262039607 -0.9911785235081575
Ni 0.4838488688199588 7.687396168771615 3.563480676424171 -0.9758112970234678 -0.5074552885088873 0.8191056446668862
Ni 4.526693589261634 0.1547158804365486 5.649692064540143 0.4225410070629949 0.27906805134660323 -0.16972854697881093
Ni 8.920313773322679 5.798472931797473 9.933543011976326 1.6046213691934688 -0.1985506134168258 -1.3307045230305017
Ni 3.2556223285584553 9.007389447004137 0.6329911336879858 1.183810457447703 0.2016703899927301 0.04937186556490852
Ni 4.513359580724501 0.8691870021543742 10.372295344336907 1.1435037874088565 -1.1689186279375354 -2.1691042400403093
Ni 8.318858029618411 6.462129526360479 5.27485653199901 -0.21572301143105427 1.0089705573842558 -0.02192996730387191
Ni 0.3099274181559603 2.444004218573057 12.368614364416299 -0.8164653788305615 0.9392905763896144 -1.4759214580211937
Ni 2.572231401360494 4.409096829832077 6.807455518628743 -0.2725626461279177 0.3181922710415746 -1.3674178192911355
P 8.189821610450789 1.4849487576387927 0.5851542285775263 0.7198572059865086 -0.1542556481541924 0.35995804212445104
Ni 4.674802238571334 3.942857128562294 1.4840926223320292 0.028158978932719247 0.20767083055053914 -0.40775947787844613
P 3.235510965337276 3.57402006068928 4.585294257815344 1.0383135293227472 -0.23708630759817878 1.6803910080256157
Ni 3.351397293326898 7.50286268648565 8.841823361965545 -1.0488933617211225 -0.5565713293092479 0.8516750939624751
P 0.10913656090944508 6.548818973587757 1.3056504829805446 0.5203426859945168 0.19272706475651324 -0.4868777214678518
P 7.964991834778812 8.809393214029646 4.598147322458345 -1.881031928312567 -0.6037032498000441 -0.7797191724494635
P 6.820474108894962 3.868223464226176 11.489762505039492 0.5154339358389897 0.81617458706302 0.5734616773066834
Ni 8.874444783954942 5.380336815808893 3.08588499781473 0.866092554939386 -0.13685056530386755 -0.10144878876580592
Ni 5.497970358710277 5.281380080727453 12.509827032345312 -0.4836157628871284 -1.0395592288043902 1.035527481937178
Ni 8.328706804199976 1.981341709938409 5.635721701940409 -1.7161347412841286 0.14216632108982613 -2.1574432587626133
Ni 6.828805565263681 0.33607310993028905 6.531759718941387 0.41709309657454613 0.20101578712786672 -1.3183819969094068
Ni 8.668852764048264 3.4508230176741272 10.169668991846244 -2.2392714450840145 -1.4580114105099922 0.14963177622893586
Ni 6.783800987483868 8.966762102371685 1.0276161740718155 1.5578509458071492 2.0461252905122116 1.0204667309493134
Ni 0.2209601544358214 3.6448466356913487 0.9670052887827825 0.0555445700345237 -0.1472689324237141 0.6232122663672492
Ni 5.221514980329703 5.174147064485033 5.344506955489424 -3.071209465628878 -0.09905123506790683 0.9499033189084543
Ni 2.487059272346062 8.817963762965237 6.789258735116135 0.8300534019276413 0.975261852277901 0.6798690956293452
Ni 4.044149614104723 9.056136743042304 3.276599942541151 1.3363344676227698 -0.22675304399297078 -0.43224923548969435
Ni 0.2740764073401899 5.328876738723516 12.593757719185598 0.08104939917384751 0.1526137416753952 -0.27420121017260524
Ni 0.11974675335782035 8.800123779129349 1.590742620545998 -0.8924170517665274 -0.5502600423792394 -1.2731136119899107
Ni 4.54927864096315 3.2038771795664225 11.811515809387696 0.5836483880316982 -0.17414081711389365 0.714435520750305
Ni 2.2590477263610858 7.359443929833838 2.1912327981148185 0.15522829648010686 0.07130363264099332 -0.5225358369910936
Ni 2.6949318675059883 2.951340253741079 2.7004438707592002 0.702502516758145 -2.5233706310966215 -1.3997309296015443
Ni 1.3131147690009524 1.2095141206014066 0.47218207114336525 1.4939199514811432 1.100592332757311 0.9460587483513835
Ni 5.616523488407325 7.065691123826818 9.566580981579673 0.6757589301157136 0.15920836417377743 1.1735741244316755
Ni 1.9887535795114637 0.6558244738243316 2.730161237647889 -0.6088220590838482 -0.9383770634364097 -0.7687978975512695
Ni 0.22226412851207344 -0.0020598744222881443 12.25542334532477 -0.06358286695796792 -0.13428923233459455 -0.35853442230404703
Ni 0.3007067213558338 1.0852595527712394 10.057393881203197 -0.14957932572444563 -0.06634346042224058 0.13232002442336563
Ni 4.0090213985103444 6.110874958020567 3.343357345972404 0.7709182863283819 0.06441256194811487 -0.40522796970584407
Ni 2.7419687321042194 1.9473537819706546 11.237943776501563 -2.758398256393559 -0.530490573061796 1.1432083676556246
Ni 6.9017471898957785 5.076257050086563 9.322271598815137 -0.6201593384735383 -0.9330088571459608 -0.7007294840181222
Ni 1.3511028995298466 7.143184703097453 10.818774044954656 0.9270017317199324 0.9925196109170842 0.2755893487693834
Ni 3.392889049547273 5.813940381700547 11.685983015911555 -1.1591314666437842 -0.5082968105735761 -1.568937285528298
P 2.3280443236397823 8.966458638729115 11.702510749390031 0.08406581740266812 0.18523281326199711 -0.21763822617589615
Ni 7.330982718508027 7.2995420459642615 2.756016339994788 -0.01702173136897714 0.9290007644278323 -0.4284468310244686
P 8.851758577705903 6.005508702973345 7.5923090549263295 0.08618852017262577 -0.43588503247006866 0.502261917233406
Ni 9.005292789110023 1.7284369493947993 2.8162455967636206 -1.062918215245305 -0.888821106885153 -0.7148769791630978
P 3.9319416332977584 5.584402321634769 7.8326072000881775 0.9139762659945421 -0.03459470725573397 1.9258506272891542
P 1.274639257470356 4.018254049938815 10.946177277973177 1.6169788623175572 0.7290779532538283 0.13080281644789085
P 8.097072086240082 3.660111776499377 4.033525627854412 -1.4256486779085704 -0.8659933103573602 1.3244508288113062
Ni 2.4523172832058626 0.5170385954490766 8.90948196045655 -0.16026071669769174 0.4947573813262447 0.6516805490102712
Ni 1.8199082479595323 7.3496779180638825 13.218339231627233 -1.6189745525913473 -0.26342905925776566 -0.26697923850286925
Ni 0.7137188997189722 8.05374115642838 8.429059472037236 0.6118878424933656 0.22651753094339697 0.47517328854673
Ni 7.648148204332661 2.853946816212267 7.64144809493945 0.36838843227999135 -0.49210580263601056 1.722704681192162
Ni 3.719535475235207 6.293118669185327 0.39235366099853863 -0.6815724514736972 -0.5604315835956025 1.2553256918788704
Ni 4.489560674452707 4.690242100870538 9.842505758379147 0.1931890919945963 1.1319901303423021 -0.014800555347942253
Ni 1.412816369386881 6.81050578802996 6.42306455969386 -0.6064152494145686 -1.1875688960488708 0.19416122609987851
Ni 7.101361895630638 4.66571672103017 6.21604993901429 1.4426179587730574 -0.9807799538826528 -0.35464151500754404
Ni 3.40465056466382 2.3243475847212114 6.931535364967733 1.3338392120047415 -1.5275659216703628 -1.0250453514589315
Ni 6.430909554647673 1.1346781471702416 3.9036854898273803 0.3492985055280759 -0.959309956934335 0.25299809373242876
Ni 5.383325472894803 3.9242538876860045 7.6669528347172005 -0.9170824157236915 0.19649784465285514 0.7863572465912715
Ni 8.275398357655314 7.986767650100144 10.381973075774477 0.07082103657761996 1.2414630749641653 -0.48411275712820495
Ni 5.287219456879922 1.40925756848766 1.7363693050942002 -0.9318683157836144 0.6976421033420501 -0.18566038771771895
Ni 7.172602284690756 3.3608230579824574 2.133399064948692 -0.15385584161261245 -0.8236050751991365 1.2043116627248485
Ni 6.019937019797319 2.7655285458091403 9.935144932174373 0.04664906731710676 -0.48438066607761093 -1.4121804682188068
Ni 0.18695107597176674 4.408600252962418 6.241756987887086 0.2515019688028765 0.17544359508571722 -1.2428856663433046
Ni 7.25450988058058 1.303937292780222 11.679199224119941 0.9390506924646667 0.08664180565996045 -0.5649140448469885
Ni 5.383012813384277 3.3032293369699994 3.9361220748708488 -1.5567358583660995 -1.0399371809690994 -1.0202975523613007
Ni 1.179682724950055 2.1142955688555607 6.422243368685333 1.2530901176801321 0.34626306113586175 1.43174939148967
Ni 6.621190454406541 2.861928829598634 0.049135361665937564 -0.7817745123165956 0.20194498381035542 -1.6023081476792598
Ni 1.9621959128526774 5.292332359463815 4.421147095202462 -0.38312188183542406 1.3993416645829255 2.6345114503392115
Ni 6.038659806957045 6.482038580486612 7.2945128257787735 -0.09259699480213085 -1.517365326988277 -0.2967592979787792
Ni 2.5601204432615945 7.7913278684176 4.630570113699879 0.52519590032176 0.31629531112917786 -0.8895944947160679
Ni 2.6072124830675656 1.1871589655988062 4.7949867152438905 0.5675738510673386 0.982697739730656 0.38245210946190905
Ni 7.758406661132816 7.830787337819557 7.611932117559012 0.35750752370142946 0.05560293407628489 0.9358612389930915
P 6.3501790298563 8.562337025506462 11.129382876926204 -0.40394858877278816 0.030873292540088765 0.06593259813706709
Ni 1.9476204621413973 4.911228003736639 2.3438860453686923 -0.2730141318430395 1.700046320362698 -3.3925832197222285
P 5.428458792826009 6.186060374434083 1.5636892966043483 1.2689070301077308 -0.720855565344036 1.6221380379209933
Ni 5.076891564975571 0.7437332931426609 12.518655985170485 0.1165445067566638 0.23084906843921532 2.467785951852782
P 0.07531231939131895 1.1664590668284016 7.925138782228311 -0.7199844755929923 -0.8471764347611732 0.5041470500712608
P 5.344013137380151 1.5393055331305125 8.052407755574665 -0.7721228481594444 0.8021175947493218 -0.18770621450315414
P 3.5188356570814627 2.0481864741152505 0.20075867170866696 0.5180022107867983 0.8628228830491785 0.4319792696577593
Ni 7.397615977721865 5.3091791895603855 0.8173351810940441 -0.22209369084408848 0.7010061347182766 -0.1489910573211434
