# total energy = -381171.0943570484 ev
CRYSTAL
PRIMVEC
9.23677493841745 0.00000000000000 0.00000000000000
0.00000000000000 9.23677493841745 0.00000000000000
0.00000000000000 0.00000000000000 13.51895378989107
PRIMCOORD
 96 1
Ni 0.2921952148497817 4.61312250947327 11.843806638638151 1.1108003836385645 1.090401251156922 1.0480554392008594
Ni 6.899695383234593 6.133560322413755 4.824846941025029 -0.435613781086553 1.1025880230311011 -0.9830132140885457
Ni 7.594855065398177 7.096281664333285 7.353608053775579 -0.5899941277440678 0.8407391637762617 -0.15239879745111173
Ni 3.7490683974882533 1.5301918472796396 8.40527399632527 1.2576921352285177 0.4659761954284942 0.2771417808581679
Ni 0.7935802902071338 9.171452469988338 13.867337406622834 -0.1974003018624665 -1.3342570162684504 -0.3984520844345912
Ni 9.078336541794195 3.622081215580401 9.213707944317246 -0.9709688813295021 0.18682843988389114 0.4153167214004138
Ni 5.791014523675561 8.798610049439134 12.808694927959163 -0.06192296275704174 -0.17000314079643628 -1.6139336477333301
Ni 1.343775255392509 5.075053624341737 5.630630858286038 0.20683907867786314 0.5141406709488628 0.6371319617721349
Ni 7.762862764825142 1.3894603442575248 3.8590395925972514 0.009952483227021568 -1.0784286521760782 -0.9527924675307914
Ni 1.9326104211943462 3.43942399109482 10.443621474995028 0.18665051954513018 -0.11674736679608924 1.9970850972551089
Ni 9.313809645400312 0.46501896873170445 7.583564955386104 -0.11104234599151198 -0.8234898897775108 -0.7206447348848105
Ni 1.4011356277846942 6.912155792631865 2.127585808743087 0.8485656017992159 0.6053515840367446 -1.3396409062881833
Ni 0.9707111522446888 1.2985335317247277 2.7066022827811733 -0.6320000398622083 0.07296945037919045 0.3118262196142307
Ni 4.022532356432381 1.7365875833671398 12.460595056448115 -0.9844908270753367 -0.0770248513954867 0.6255226596679808
Ni 7.49749022073054 0.5601235745709405 6.135036359049549 -0.6398881843610336 -1.6579259941538802 -1.2762873817322018
Ni 4.164640138920911 8.38293670348211 8.145074969875896 -0.5644059948623183 -0.08488008577384737 0.31238337766928137
Ni 5.02226545554603 0.734734644404214 4.928307133477144 0.8023304820910763 0.14606617036486455 -0.21021288024610246
Ni 3.9810222898413214 2.8900113807470644 1.186087804608666 2.3052865756325587 -0.9245195887280271 1.559834294785765
Ni 0.5449373928881721 4.659463409359195 3.20769639972784 0.9618725754551886 -0.7233726753389348 0.9457905822916616
Ni 0.6901672053072262 9.357222487629501 11.204495268808685 0.23423264019946757 -1.6374895806763992 0.21016660038919932
Ni 2.1844141428985906 4.071210160378728 8.416522540850101 -0.009873293249653964 0.2983001601033379 -1.2360912691292905
Ni 7.409297493580687 3.613084596786522 3.147834708681258 0.25577539936724986 0.07112854051570977 0.7759483925531216
Ni 4.879492625261649 3.9043201107197905 12.745386072504084 2.452706946032473 0.90936936335015 -0.8877530706319549
Ni 1.7708190713036032 6.635477436007789 12.52018703366638 0.13075216571561354 0.2618879400228909 0.06800053640968934
P 7.271263128841748 5.245509069128433 8.300569610288418 -0.9133458314993947 -1.2044412463241772 0.02999166126608383
Ni 1.0282562601357215 2.392915863672954 12.265517140697515 -0.9649877240454026 -1.1238374193281806 0.48715257239579335
P 8.012366529568734 3.3112637387692856 11.395180174396689 -0.9024458967574394 -2.080678603007049 -1.2161099409113572
Ni 1.4853380681594381 1.741224444388215 8.898040236983887 -0.23993586123183194 1.0342504149969671 -1.1405529323106487
P 8.580455898849983 1.2853064700072383 1.2223772460022917 -0.9916930012507308 0.5139799770012826 -0.26608218060989663
P 5.424794870760046 1.2621498752266893 6.9461194140949996 0.3063847368836853 0.4114649517544914 1.0364430517729117
P 9.250260633796731 7.269646693226831 11.684824192007385 -1.5034440889214946 0.39822557024608196 -0.5977362335833318
Ni 8.58362411265522 8.261842583987498 2.4946663290832327 0.6507950610815243 0.6325600261307364 0.15946033228358342
Ni 8.583263878432467 7.140128634984767 0.33701112319271936 0.14198865786138126 -0.6799297736639516 -0.8944127420403176
Ni 8.232109405447973 5.809718992933883 10.16033235854469 -1.2676371622563716 -0.1033336644933446 0.4566058099571878
Ni 0.5233141027480585 0.6363713043653059 4.9769618454861355 0.10930736557827626 -0.35174208197256196 0.3814964304168591
Ni 5.507870424591819 8.208176921572266 6.287368327721799 1.0804055733967908 -0.3945193250390883 -0.05474315717915088
Ni 5.940484015793168 7.140350317583384 9.511774053320407 -0.9124132923827963 -1.432480099008107 -0.8735873206545343
Ni 7.495338052168965 2.4952131461598217 7.300870687242056 -0.2940382995031904 0.9401138436218582 1.0346607630615083
Ni 4.4590623402093 7.128795112130466 2.139266634335222 -1.5372206711513074 0.9195303630435518 0.5462460361238399
Ni 6.8801688410064 9.178731048642934 1.2632028675701208 -0.6131471688217635 -0.3771625789281956 0.34403185781249784
Ni 3.2473083090682406 8.15136151890168 5.325426569607406 0.3715861132816827 -1.169633651726689 0.49665845500369954
Ni 8.690281152914892 1.267202391120172 9.627820275309007 -2.1069601624113976 0.005962131120705861 0.9133098360551368
Ni 8.082362810082095 0.7984351391168493 12.484442561994353 -0.5015103837793621 0.5112337817147131 0.6462850890263128
Ni 4.256028790200826 3.120431968459697 10.446960569136698 -1.9749761811712119 -1.871478737406493 -0.6433730575858404
Ni 5.0747857578684075 5.891252005350279 6.414554100290912 -0.6499818211516096 1.1739513052654365 1.3580533473571
Ni 3.80783275967168 2.6738061896707555 5.942959471477727 0.2839953134448916 0.11446191319602222 0.24094501922263664
Ni 5.069049720629189 3.724932704563812 8.00189572149405 1.5488579982799198 -1.4459591073311486 -0.5336792552024228
Ni 2.787686387935369 5.496527664962575 4.0370571850292745 0.9551288289734516 0.3884841745886019 -0.8722976553088333
Ni 4.150156875811257 5.405175960782429 9.015587434900626 -0.9542361419558535 1.8631203381394688 0.541533461139519
Ni 3.011992230636146 8.82435294120355 12.619713283670533 -0.22929560790916637 -0.8284865716611538 -0.8159480728745109
Ni 5.610888175524193 1.445250464909505 2.7478084594766283 0.741814169873574 -1.577674922511612 -1.9567648003695073
Ni 2.655295692686224 1.1773562812556333 10.680216846756641 1.180249222459006 -0.8758552907531045 0.5160021496376339
Ni 3.0035313447889247 7.421462326179803 10.15728976487867 -1.192177855575792 1.318378140254665 -0.32627967603539937
Ni 2.8034627995369554 3.9725336936692734 13.05352303722692 -3.2663016881834586 -0.3619509041847638 -0.09968449777653154
Ni 2.3794301722570776 0.7477566497179825 6.456828048169706 -0.2850366102252123 0.06013938849405771 0.820203248606439
Ni 5.391810347440803 4.768614378853309 3.0988548621942953 -0.6015250112018028 0.5392037845650779 2.037184536379156
P 1.9547140236314637 8.909220429374145 8.637395074304795 1.2477579068339415 0.08516882065885978 -0.5623426845753864
Ni 6.4422348674382395 -0.0014760366357924606 8.458903635318228 1.0999315592448604 0.8446037889379907 -0.7685405301248248
P 3.382026671602865 4.669235917248233 6.841306957791321 -0.34498547997501877 0.463674286768195 -0.8542742221482191
Ni 2.149295924567659 1.7654247947372528 0.7525837883028708 -0.11847077724509919 -0.2308434120122605 -0.8920301007407541
P 8.426386492811071 7.891484855897795 4.551858675990435 -0.6693527694790536 0.14846629516592497 1.5271949114841894
P 8.430894038982952 2.7871691285385958 5.360197485200505 0.3031361480394005 -1.1480862645732162 -1.1100110549680495
P 1.9184596819826187 3.4256889067554996 2.1654528912968716 -0.3903284268861923 -0.5433792560990062 0.06255905367914388
Ni 7.191716023037964 4.754759216439738 12.786483255255218 0.5285522183885026 -1.7817595783727895 1.3006856080709084
Ni 8.128075609271939 4.79433879706784 5.926141151662639 1.0505800053949261 -1.0788449137778904 -0.31515476976683143
Ni 1.1527033289344188 5.202558065646362 0.7380792806108499 -1.2135586352444132 -1.239790572357749 -0.029773631718006784
Ni 6.036407923569794 4.0218026512119325 5.817367966263668 -0.631011450696694 -2.356459498961948 -1.6156290331578822
Ni 1.7525672040174585 2.9377008497745765 4.756414446509414 -0.0358108390510222 -0.7276785018031403 -1.6824360634801026
Ni 5.845021946763662 4.472076956103114 10.446312147535744 2.746671969095566 2.5918241958833295 0.05979948865613572
Ni 6.530353700388552 2.4349616632106716 9.52287296209117 0.2525784896965069 -0.7153168949139939 -0.3727793622588354
Ni 0.5637813374481233 7.418081666550892 6.372307862736945 -0.2934819127790881 0.9635448209512889 0.09511924700335231
Ni 6.518881625910115 6.59629503670221 11.94268446704135 0.29074137391947347 1.4708126760397187 -0.4854440743451188
Ni 6.231987396199766 6.482424075212538 0.930755634876432 1.2931566466837148 0.9423784712863189 -0.3938094434562573
Ni 5.1316750547385315 0.232787973130365 10.380582333368267 -0.7214476904020801 -0.13800576195423328 0.7619711044374232
Ni 2.336045040352715 6.755869560606781 7.951077756793554 0.1426280912175931 -0.7577550094735466 -1.2796938363105896
Ni 2.977871583998991 0.7874867897776452 3.9508466697820572 -0.6380606442339914 0.31031826761013653 -1.0063079229504281
Ni 0.3605168680660902 7.562942007972251 9.11457333357065 -0.7127501626280822 1.3202311343030038 -0.810377777875585
Ni 6.460773074747598 2.2544381337367803 0.584016340314397 -0.2163717007586467 0.27949202625789926 0.04782534701339505
Ni 8.10558406228724 5.8511551653254035 2.570656352856706 -1.3411897388325418 1.3281357338620612 -0.579787105304079
Ni 3.3271509916701807 4.988431148932089 1.7950600634623874 0.0706693414911041 1.2969006871071793 -0.4371361312683503
Ni 1.3353420798701154 7.504574827111346 4.193674093597296 -0.5047142354286405 0.38073409832953786 0.372304736615262
Ni 1.2950789778962772 5.736286632141955 9.971674925056536 0.7358193857427199 -1.002482892777383 0.2982788199470992
Ni 3.27159179039176 5.271713799639968 11.227071794122853 0.7934046403563562 -0.12238502469784084 -0.8603029448408022
Ni 8.530623498035839 3.515119361747631 1.029193792792373 0.7600736303043942 -0.05618811715579355 0.05953363658925876
Ni 3.986841458055021 6.216229458148065 13.205611155040692 0.9957610006725174 0.8315526121809873 0.7677445165860907
Ni 6.118125671485037 8.04913813061435 3.7750865451459514 0.543105176502013 1.568943199065569 -0.778698187384117
Ni 7.695203388372202 8.21436556078366 10.3608590478338 0.7713749142498264 1.512120019428938 1.1563942702182795
Ni 0.15273561573723288 5.403153107070047 7.546198506034197 0.9726411268256022 0.6639958760425145 3.157284343041775
P 4.577302296246717 6.620366072202054 4.417047945706386 0.6691272837318089 0.7070070894967179 -0.305596436654435
Ni 4.30748686340483 0.3292984161158314 0.8220203202547245 0.40333743755135054 0.26721783687623657 2.058444474199197
P 4.685621955996018 2.721227792224939 3.906518463156077 -1.1464538711761159 1.9407056900241157 1.5045658612307637
Ni 0.8100614677368241 2.958058701747584 6.8638834831054885 -0.7692123593808688 -0.5481149710117785 0.20655265778569587
P 5.741329911260495 4.476852368748326 1.107297190672663 0.575280475682977 -1.1773047951187015 -1.190156197160073
P 2.4932457130970946 8.844073455705534 1.783663730538478 0.04094996004980044 0.06681602918328493 0.6140933347851166
P 4.6544108934657125 7.309946742300439 11.317581104428253 0.48826071785830755 0.7198042412613862 1.357445538569772
Ni 6.073391970439086 2.0521712360485242 11.728138200744691 1.9376018542878117 0.03644358753901465 -0.24550975577518364
