# total energy = -381166.4649247203 ev
CRYSTAL
PRIMVEC
9.29761564516963 0.00000000000000 0.00000000000000

0.00000000000000 9.29761564516963 0.00000000000000

0.00000000000000 0.00000000000000 13.60800031409696

PRIMCOORD
 96 1
Ni 7.0210757529013055 5.7041243023989505 2.3912927815565275 0.25503312188458654 0.27318690997547795 0.1529425857697237
Ni 7.059456309703384 0.6138564684456594 9.587121866670401 -0.01793910097692394 -0.11658898684135405 0.20609757252614827
Ni 1.0498123618305182 2.1427563619858536 0.8874732058393977 1.5552461611944506 0.7180206669984022 1.8654610704575034
Ni 9.275905572176951 5.979835792565825 5.148423489171634 -0.7326296751608287 -0.8491911511983569 -0.0021101043644673337
Ni 0.3364007456101629 2.3342500509140574 5.109232180297574 0.6000404562364762 -0.7999529829978352 -0.6426240952349578
Ni 1.9560788378889185 0.8243953929730345 3.5487622333122584 0.24067813871449517 0.2815211408727861 -0.3012654133792489
Ni 6.621798952681224 7.254232056904634 9.895669745514093 1.1300031818192602 0.9191940627500556 1.2491833264265582
Ni 1.5177892430124607 1.722327486493309 12.313825197785876 -0.47860571126704665 -0.5090072063770396 -1.002532772178712
Ni 8.065960378514502 3.76417682741013 8.849145950287475 1.350845259644435 -0.315285896028057 1.7774727780719775
Ni 4.569936079866186 1.8058572641846562 10.497810288662684 0.5806450824289999 -0.40443452727027124 1.6377883428637408
Ni 8.960260823418766 7.6632527581733045 7.352294007629327 -1.0788677965960258 0.19167574067386345 0.2961867133047609
Ni 7.171994647768396 9.153716309218394 0.37155038102447024 0.10382628785904698 0.15712114262744553 0.2556946667279854
Ni 3.203567802958053 5.038684663134992 8.880961460781911 -0.9987090275572477 1.0412610419868453 0.2775845248225413
Ni 4.751871820055888 5.634810578813799 2.1862747811156535 -0.5315357264968588 -0.6733726892717241 -0.08376499833279767
Ni 3.763414422938771 2.866882550313456 8.419663986578316 1.6913817027091644 -0.4396480990569267 -0.45770701344116654
Ni 2.2522171893189156 5.531737213332247 4.229774448784502 0.05899936135234355 -0.190659126483891 0.3170370743912088
Ni 3.28896640136578 1.3994956809502377 6.031160489673101 -0.7350069171437534 0.06435959722299239 -0.22705771971758312
Ni 8.50011253449151 0.2841555845679526 5.89796563924201 -0.14940834736422012 -0.7505752038956557 -1.8827648518432736
Ni 3.8197021872022856 2.3578381014486687 12.575057511327781 0.07137382375729642 0.2092723707097041 0.6463910184765578
Ni 4.609227802987695 4.9828803748777055 13.376949885495565 0.850605000826748 0.12346437380494867 -0.9044122764551908
Ni 0.2630555759423134 5.283565260289344 11.244821627792767 0.9885619118209169 -0.29571877252940687 0.573025103989897
Ni 5.730947923129085 7.116367014205692 12.26256372446403 1.1843532173250506 0.07779412546134344 -0.1154553874575431
Ni 8.709122931029967 0.9255329949065759 7.915501715614878 0.32845277242731824 0.28641009353397123 0.2221841936753657
Ni 1.1198512994250103 3.598855926126755 3.0016115073027705 0.7120608498705414 -0.3893773758268327 0.6999283282730656
P 0.3536189997627236 3.5175575761564595 12.841869323933862 0.6624989797820139 1.6204585933360414 0.4601130517794979
Ni 0.8711819239526237 8.106730422501206 4.536526028312748 1.8142647500893463 1.7630905412083764 2.4948969491369613
P 3.3188117471348395 8.30386776404057 5.0424446188449625 -1.770787909852634 0.16314832265813192 0.36685759745776175
Ni 3.5337261295185756 7.167066911551075 12.959742633775287 -1.4834787015431612 0.2628423335163602 0.9326177923551294
P 6.1298900091910085 6.902717107530552 0.6878943104685853 -0.9712614728692563 -0.7006418094003224 0.2665897163739344
P 8.559059416789278 0.35668349383296716 11.781479994705562 1.1909830639367425 0.17090097002035728 -0.2631652640734177
P 2.751313189594017 0.7499754189528789 9.23130026179469 -0.20477191173618928 -1.2243485267710656 -0.866264818851192
Ni 5.611864063748991 4.017127754822283 7.120712719692439 1.4371268537514992 0.13655411710937126 0.18039708243625063
Ni 7.050363241740102 5.225315699154406 10.91794349998219 -0.14189172727220078 -1.2628456544049993 -0.4001230443791109
Ni 4.728692864603469 5.616168859727519 10.891135685198412 -0.8493166210326276 -0.9017529844554727 -0.6918293533150149
Ni 6.093238808872744 7.912382365613158 2.5674351775254505 1.0954946065194295 1.5670015019581658 -2.279618481442493
Ni 8.220217117347666 7.251833272104504 0.4756120830341389 1.6795818818607589 -0.6159887520356165 1.8837557550016333
Ni 9.08377964539445 4.823119447665949 1.526708445565812 -0.2786628454883846 -0.5857687768088106 -0.8031187823203265
Ni 3.449740768667514 4.061784202089819 6.569071245394337 -2.242133597123158 -0.4793467031981293 -0.23282958920435387
Ni 1.625399844860151 2.3262912920423084 7.643709170383099 -0.8750273955351704 -0.783267037701722 0.4249940965891778
Ni 6.1450358248476435 2.716158905371957 9.172499352060342 0.021380265447988985 0.8645727758607498 -0.35645080030214094
Ni 8.144683288990086 5.262310911246332 7.317280117401384 -0.24248253891308563 2.379789689047456 -2.203189611759793
Ni 8.277722869242254 1.9652369891607326 0.2254383533731436 -0.13108820889879358 -1.4105563023518224 1.123434013242175
Ni 4.829069921588752 9.169131755724655 13.307807238035695 -1.967053841000341 -0.378432961000187 1.2836420223250602
Ni 7.8912116951096865 2.6947371992498663 11.867292337003233 -0.4590920667141513 0.6115834238790693 -3.3967586912561565
Ni 6.376974141219899 3.342232440590372 3.4833079499229758 -0.7522376791997432 -0.5663500059625666 -0.08195751281041368
Ni 4.678969216886047 8.272265168941184 10.242632582337231 -0.558888921698831 -0.06036513135161862 -0.3279470364354933
Ni 2.3586098035355323 2.5921287145435326 10.121453970184 -1.400514601845104 1.3834846429460108 1.2460432381356799
Ni 3.0555683593593375 9.352192507390386 11.368272577175269 -0.4306296976084003 0.38709860709498495 0.24733601035064498
Ni 6.082044479805471 1.7711399678913025 13.212130125687874 -1.3732501097021963 -0.04909495775443803 -1.1975059526569245
Ni 4.658161153387245 4.591143940831676 4.762677508795078 0.16272486196746813 0.23750745429599743 -1.4820442830894798
Ni 4.261729423511504 2.1923312478552064 3.895820835575092 -1.5270668705467572 2.7775899988306616 -1.6073788773339477
Ni 8.601512329182276 6.200245065712649 9.358439575247779 0.8349220428738523 0.44633990925480554 -0.3988686031467195
Ni 1.7395652656384288 7.361191825667018 8.903415202224988 -1.181191017546985 -0.06007819623881911 0.40665287507782866
Ni 3.4473047934053667 1.818074330957411 1.3644473895449283 0.3625743967013756 -1.1807277047573213 0.3194639386651466
Ni 4.433130965334743 6.132790865228375 6.6057726528363245 -0.1438449943438297 1.6962459727800014 -0.10469532072756163
Ni 1.150431156818915 8.426521907774346 12.433983861518275 -0.5727589948127039 -0.059046926760827345 0.023072051328115104
P 2.425050563929829 3.241873978836097 4.813475960864807 -0.21651671097694325 -0.23876138130775654 -0.37294468419210614
Ni 4.540602102949869 0.14369836666638966 3.585462710992696 -0.4638876883305817 -1.9081753214965784 -1.1197779045468266
P 1.89895428823001 5.63697692322632 1.787220193906127 0.4231961241484905 0.6304023563577852 2.2380041483358166
Ni 7.686608368320307 7.682926512580572 4.392022488143679 -1.1173235294690629 -0.6981763785789653 1.5604400466905644
P 4.901609917753923 3.309848845788617 1.9307846749092537 -1.5288830978198895 0.4743898734134863 -0.30596564706839563
P 2.990075955746487 8.936691368115163 1.1688274188558807 0.31710340885277 -0.34774350233613016 -0.27235927186785996
P 0.8726277031635546 4.503551105164916 9.418941018857877 1.281592595995199 -0.8924185944284244 -1.0694372473107452
Ni 7.1608096163166275 0.9754500330264895 4.03573786201585 -0.10613128184313979 -0.8292612450436492 0.2732385891490197
Ni 5.46903409437071 2.3006949565587513 5.687722378887674 1.6658259657272472 -0.32479717795260193 0.630375873995224
Ni 0.9968345486865628 6.004232735649317 13.519901653636953 1.3179726772861302 0.6481882195862966 -1.2894324037545921
Ni 4.819725818006851 0.7992239585180275 8.513301202084474 0.9441229647812516 -0.6619896442457631 -1.6559297896594578
Ni 2.706331325783828 3.9951388941544255 0.7484943088030311 -0.054538240257196405 -0.1657595350287339 0.26640665382885087
Ni 3.5109562691483496 8.305048561209626 7.883468640917639 0.5276345916702396 -0.47639276277612796 -0.6474325723671948
Ni 0.7910132342661098 9.04448792227294 1.191131468689337 -0.48132799529421616 -0.20742066221294603 0.47823084442613123
Ni 6.433605917257075 9.339175845684254 11.712964006530688 0.31375686097804034 -0.349516792186469 -1.1722898584026133
Ni 8.294347005764084 7.249369403995844 11.792692919003844 -0.2588650940361671 0.9354840581593309 -0.7918689204381202
Ni 5.696537448147376 5.732853934307483 8.526487080392785 0.22798254552469766 0.23557244205681363 0.9557793180732572
Ni 3.1920945454256486 7.282970986428672 2.808704580817901 -1.2141774997753347 1.1544862545622891 -0.44253236258325723
Ni 0.1290109234541211 6.895148848509987 2.964965885553809 0.36968966758991817 -2.4913719667028382 -2.990066221189644
Ni 7.045361124598744 4.903116131465632 5.12077238066161 -0.46140785933152145 1.133373383843074 1.0456386022292508
Ni 1.5260083351183322 6.439147296097686 6.836155478134698 1.5975174111588357 0.1377378530048273 -0.583788513153988
Ni 8.047923004436004 3.131102187716918 6.619149132262476 -0.8304151561424344 -1.555500700407418 -0.3194940205721336
Ni 6.491260430999733 3.635665185908594 0.5927248479273054 1.3069405878416847 1.7688207588239344 1.068643033544224
Ni 9.364837264476344 1.8719075247277694 9.774395367921167 0.11242508527165153 0.35538404960052344 1.827718561601407
Ni 6.071631150440566 1.118372978559814 1.9564089032393241 -0.6806777075735696 1.4389276544056637 0.02219093427474243
Ni 5.219513987079673 -0.17538464030531561 5.8151750219832605 0.9271876224784935 -0.02196082054180734 1.1783453205680736
Ni 8.28039128489201 2.384215436634594 2.450487910188262 1.011604138352361 -0.33110100868344267 0.562402077058412
Ni 2.426045408788798 4.196822769675429 11.943251996150916 -0.5898403757750228 0.7986165235745988 -0.1831977851098393
Ni 5.134961471682844 7.225641889228667 4.3403528495011905 -0.5999031593276636 -2.3891114806690146 1.9458604947521776
Ni 1.0436387451356102 4.227532793686396 6.3638765902588785 -0.3231262180080822 -0.04601349061563688 0.17348158626333995
Ni 1.5511304922111662 9.178847763926733 6.853138502614998 -0.4660433012210038 -0.18810833503757926 -0.28972424550886877
Ni 8.081385122636268 5.291914519012277 12.998348192872573 -1.2192474580990742 -2.2002045609895395 0.9087576979080801
P 6.620441500817584 1.2080019920220342 7.1830783352111665 0.5885468537745799 0.2544124575814522 0.18721976178503885
Ni 9.087359227363637 8.515249052532642 9.900064728363013 0.22051786171653637 0.6201775933059835 -0.45112113269353277
P 8.59366514169658 8.842422844516259 2.9012530455484966 0.13580849719259835 1.97082153557289 -0.7751474939183811
Ni 2.6004779732664653 6.750942832037058 10.908404146474696 -0.3291485129427622 -0.32570709136138104 0.25325751804140256
P 8.259769173703297 4.336352085549655 3.4905470733546857 2.2238872493184605 -0.18023664559898636 0.41259418026292816
P 5.831204111112811 3.515800326826131 11.742969271286423 -1.4459051141647614 0.3669149330582584 0.10320896599002224
P 6.531026332511965 7.021466252752489 6.2770712626253395 0.2558263072098433 -1.160156051253557 -0.7550340109979577
Ni 6.391329659558661 8.305894644220524 7.902396726561454 -0.06529779276654561 0.3071097879751678 -0.12765244374436724
