# total energy = -381169.44736817566 ev
CRYSTAL
PRIMVEC
9.26868092741267 0.00000000000000 0.00000000000000

0.00000000000000 9.26868092741267 0.00000000000000

0.00000000000000 0.00000000000000 13.56565142989094

PRIMCOORD
 96 1
Ni 1.173971087811029 6.020795903013795 13.56464735843683 1.145562469710098 -0.8929631540779848 0.4063309729620357
Ni 8.502095855451147 3.285079936133645 10.58940180506377 -0.4733102671960623 0.11525792673475634 0.8737089338340629
Ni 1.990653074935657 3.9265189787040082 3.3360511914881306 -1.6765330677321062 -3.652428161173162 2.3358047988260737
Ni 8.5999267794354 8.871925481021554 13.035980353016289 0.26636474484732187 -0.46854781281041247 -0.6862770560382181
Ni 5.579421331708243 2.529552703764876 0.4573574841732397 -0.778216362651692 0.66195133480866 -1.4831987084088971
Ni 1.1941211994871792 1.8928499569932762 5.130786602870066 0.9625873421340261 0.25234811885325575 -0.6439327867440523
Ni 5.695956453191333 0.6987611978882803 10.627697212797143 -0.2065305462985088 0.7122325995617153 -0.27366384961189644
Ni 2.6235093192483783 7.987582125343158 7.762495923866323 -0.0301631538469416 -3.025534589299583 -2.579703758470712
Ni 8.560609036229224 6.848896904666949 0.827823868102503 -1.653832797921113 0.2396124164541422 -0.658646181694827
Ni 7.701939925878762 2.612118110761723 1.3383984089453764 0.8525585250086931 0.7235577947665475 1.2634380365733595
Ni 1.3936758933176818 3.2445758018076205 1.133770966209466 -0.5078049585388221 -0.34845338391896113 -1.41504262025795
Ni 4.167819810064124 3.7406912008773596 6.107812130446193 -1.4758391827200326 0.5675918487894677 -0.2080169010360482
Ni 0.9917766327889116 9.01988142981934 9.672227855747797 -0.13607640614200436 0.37284441116881595 0.09241264670546664
Ni 8.092939217993937 1.2499557315649752 3.3467546638724994 -0.7110853733311495 0.3657381391413379 0.6991976207546281
Ni 6.7960005443469 2.577267871616219 9.243268682137831 -0.48341958771592236 -0.8034741087772163 0.8635908715634547
Ni 1.9661374146856954 0.6617457949490562 3.032478729356986 -0.5160471439429564 0.677491339425788 0.40244680741628114
Ni 0.5813177457040583 5.669068010701677 11.302574874454004 0.5940482432087835 -0.8978472216431633 -0.7010904669019669
Ni 4.737018755852559 5.550021076769537 1.8266558205822545 0.2580130304485169 -0.26060907331046734 0.732966232564641
Ni 5.649603781391688 5.944412705993026 10.730171745773921 -0.4918625762769529 0.9006857195332231 0.23520066053969174
Ni 2.62578014600121 4.2265461704965475 10.10905521233931 0.4653411329476566 -0.5656614645359742 0.12317049671361369
Ni 7.9234335867458086 6.188911232168354 7.526385553655537 -1.6453538139158241 -2.1793889097957693 -0.6043545102307979
Ni 0.9864842161527194 6.293341456756755 6.952884086321534 0.004180099519618607 0.7260054849760916 -0.616321452784687
Ni 8.122024337791435 0.6296854286713176 10.598938350557603 0.4164174106637603 0.14753838403501685 -0.052651564757444806
Ni 4.005803272760028 8.413848747231908 10.086333041790054 0.9116597020462234 -2.036687027917447 -1.6899825083687927
P 8.745936305302186 7.67467146748353 10.86908424288706 0.2590306730797539 -0.14646160603107033 -0.0767512860191259
Ni 4.500834236196782 8.725378371678588 2.2566456714775875 0.6778014144670391 -0.2965626085869409 -1.9041068078541594
P 2.8864247138232058 0.39756337173295464 8.60923716912201 0.0905514251270118 4.641150509831342 2.036436859579854
Ni 7.618456919500159 8.862814367968356 1.7586913661720858 -1.2312863915414796 -1.071258359679884 0.19907049047603778
P 3.709622583426368 5.969827428263497 9.689931035739262 -0.06639616803704693 0.8900768336691252 1.6046295967235849
P 0.3111310711798565 2.5765263771663154 2.758968305961088 -0.08751340963163638 0.04076381218092334 1.1541628097845993
P 7.347190443683283 8.674252329357685 6.239833363515534 -0.05791487003891316 0.44210067436247724 0.6202891791831834
Ni 2.7873981300384822 0.9848158536404347 0.8461276585983915 -0.1930790487792933 -0.5491956056704671 0.10598447185263037
Ni 7.760712629714304 6.8858418656334335 5.056324803342611 0.26754359564677144 0.724178716179998 1.0342385879224252
Ni 2.309430807630152 2.7937935196689074 7.561507365143318 0.11053763844095157 -0.8008562115383949 -0.295525168461362
Ni 0.17086905416789122 0.7999455305222251 1.4087653053732347 1.6438402054847756 1.025951922433601 -1.0751168141940257
Ni 5.473128102314458 0.5965665790663408 5.512279936137469 2.302440107322699 1.253521548790596 1.465037464118838
Ni 8.099260458179373 1.4252079447998636 5.64887248249047 -0.6504561896848668 -0.02410949145369396 0.895409044515316
Ni 7.0138979571319116 6.376685432926002 2.806258041371799 -0.07631085604759762 1.2506722522672589 -0.5096798069640319
Ni 4.1632781565584605 2.0587315341174985 9.092485785749785 -0.3299206152220963 -0.7473422987806548 -0.2457126158146091
Ni 8.943600188285432 8.06692203148292 8.019510876356037 -0.05749269489983002 -0.33564029131469286 0.019103553598670327
Ni 3.3580893334073494 0.8810381441679496 6.349131499167557 -1.0269345980618445 0.2780054144100438 1.2549760218489354
Ni 5.532039836359356 1.782089223538817 2.587770213631052 0.9264191197435852 -1.3307741999261726 1.9452637417084433
Ni 9.192594024563306 3.8695629362707322 4.586451819723048 -2.4826245595275114 -1.0872693903961599 -0.02847702439377031
Ni 1.778641274346762 4.35600183276922 5.8094903758884335 0.3433898533531247 -0.8592811884445073 0.12914522623980984
Ni 7.729060085384012 5.438685685116401 9.897268640689573 0.7285729885929517 -0.26991775230590287 -0.8910373978101817
Ni 6.146905571581274 5.468354731793199 4.8312571392270245 -1.783412283484864 -1.396611667246272 0.8065730594175142
Ni 8.64037530167768 3.9138486922912676 13.039181755303751 0.7517008328596667 -0.003496957409664945 0.0020738518098932027
Ni 5.091582864435562 4.199704071410011 9.082759232303165 0.04187427163628272 1.197916557831782 -0.9662393370643166
Ni 5.711472224555581 2.60470316626268 7.153221983664747 0.8581218780290836 -2.035706923392365 1.442946802867386
Ni 1.6913766462736461 8.48071300925203 12.916887075681032 0.5214271773079471 -0.005337610162829517 -0.6890787871530712
Ni 1.101814409154714 2.3239548301676534 9.46290953374818 -0.08458389468966723 -1.6314225485467129 0.304986570984578
Ni 4.406710784462052 7.962111790988943 12.340658762507504 1.069968437223867 1.01085440467053 0.5478452622901597
Ni 2.292070568821767 5.772886502368907 2.501750369365713 0.09823516692451469 3.423434143664814 -0.9518995234028766
Ni 2.7138696866498444 0.4822818932387114 11.135961071560502 -1.102093857003502 1.935005554315545 0.627568486453416
Ni 4.50728523791095 2.9546978152981467 11.28350178346634 1.3825888706046188 0.2343750793146028 -0.5650017194647882
Ni 7.570936393941914 1.7454315916716718 12.811007229443067 -0.261907994627549 -0.2565385027855195 -1.431746306165876
P 0.20697056519760823 6.88459059374922 2.6679294711379593 -0.774229352979486 -0.41757389286570673 1.9935619145931989
Ni 6.136302200947643 7.185489041520397 0.37452699291055186 -0.4281619527941981 0.47088443136338903 0.10973596847526262
P 8.843767229286438 4.196923467222869 6.803404366429195 0.6011889680186226 0.29343486159123655 -0.6546391174179629
Ni 1.011444773072624 1.5829979637395046 12.700718271832361 -1.17500237223777 -0.06361294886495496 -0.3727852757961064
P 4.397766507660081 6.975247558930648 3.570736965487038 0.4209530937505847 -0.8433542328016056 0.7570986068364702
P 3.6191880665799117 2.0911441102589414 4.358060406735766 0.1311208619089419 0.9134101090784269 -0.34342070659106017
P 1.9070866504314392 8.170045372103365 5.652087787798868 0.3709189120113289 -0.49430795249365195 -0.8931580436976103
Ni 4.0100297911244835 4.629446448532689 3.924827444490164 1.1790181782653826 0.08293556045296684 0.3040154653205603
Ni 4.914940349107103 5.167623120273251 12.815307897252513 -0.7226177994507813 -0.5414588991478416 0.6087359271279452
Ni 3.484022897042976 7.082569611873676 0.7067906559126818 -0.5299462705225518 0.20764049153323597 -0.748614223514543
Ni 3.816694381992553 3.1402382640254576 1.9952901958517464 -0.563633635472668 -0.08478109830213786 -0.420015926648296
Ni 1.6009884728303083 6.657248395408552 9.34731703708453 -0.30734530102474167 0.020592736549687116 0.9809879561284007
Ni 8.172594259274911 0.9575103205227078 8.186219219791903 -0.7129645926317334 0.4105414114989574 -0.12425524513736019
Ni 6.149167129653482 3.0591836519702906 4.940786065026581 0.29413523009237086 -0.837708347369738 -0.6382758455685911
Ni 6.667962990209671 4.856139839229689 0.8378257013636501 1.8601543135326093 -0.07063668848095578 -1.6147962528439415
Ni 2.8837089904004314 6.467963399709224 11.955774945867912 -0.6582438040500858 -1.3540257142549452 -1.664857688276707
Ni 3.3523890948237103 6.14000040451654 5.655912972292311 -0.41686838215824984 1.4715703801413496 -0.23717089689218507
Ni 8.835814701311214 4.816877708107255 2.1501420430336418 0.3052061431945518 -0.940608780980406 0.08967185073553588
Ni 0.5699200491409664 6.0436524694320966 4.550814669592584 1.1733111005782761 0.5993514005892517 -0.048124880531684865
Ni 4.324896140595732 1.0146517365684602 12.645641917829591 1.3830730093298889 -0.6121248982048361 0.63065972378423
Ni 4.774417882169609 6.954522789055822 8.242109363953443 1.4409529123658087 -0.7327566876569961 -0.46439779519778085
Ni 0.7139748102641923 4.550291916005401 8.58274357242693 -1.5514057044024376 -0.703136293687402 0.6472618511172852
Ni 7.033547560054376 7.669861022239775 9.386887815271738 -0.4125869811740765 0.5292867825616819 -0.020941892358989737
Ni 3.7531483076357524 9.169107187862586 4.29203588718016 -1.0456717694600315 -1.741947074361542 0.2931085886000694
Ni 2.86406865615859 5.063813897286645 7.880964492127538 1.4827814183658206 0.5686172047301884 -0.8277535501498712
Ni 5.54240222129677 -0.02094536447367254 8.18525620387509 0.08942990992805888 0.7657778797780231 -0.7330454225420084
Ni 0.8208195261550942 0.3423229620831445 6.834361759712701 0.7942284218092321 0.7422705406847023 0.323199751558495
Ni 6.569511064623623 8.741552219367126 3.8394999706674233 -0.30683390860596194 -0.8241365222225743 0.19396196560487886
Ni 1.4693361332497947 7.998102077851175 1.5690578680813032 0.7848616358823515 1.42619529444066 -0.009367043037196772
Ni 9.267716681019238 8.534842104095047 4.475240628390273 1.0311956873310433 0.9665442698992451 -0.6156498806389591
Ni 5.417284301556038 7.342834163790095 6.0621638783739575 0.6479586200739937 1.2947368466866411 -0.618716949600057
Ni 6.5276166282040275 4.096803179124537 2.9253781978808675 -0.4113245695218851 -0.9638145296729078 0.08696550754796636
P 1.2612820592872638 3.3791385071040088 11.405714898699571 -0.9117705165924749 -0.3712739813579025 1.4998396593996879
Ni 2.9208300562987666 2.9037015345059762 12.940017068177735 0.47563248757133575 0.9262419707357725 -0.04694243018780948
P 6.181329451418082 4.671248198146046 7.015096397536569 -0.1484632098421314 0.9036005791871727 -0.30521308517308726
Ni 7.83533477741655 5.989977539939646 12.24009728521148 -1.7029503813833706 0.422147371169002 0.7691005163933529
P 6.2691409316480025 0.22162991047221683 0.24444384095964827 -0.8585641077728245 0.22982499805007517 -0.8769690926425735
P 2.910106192817025 4.7303638431646675 0.6592339825000053 0.9584576362363687 0.9773814697240653 -0.8132247604060768
P 6.490643861195674 3.7630194525001035 11.735278595035988 0.6789980058783016 0.5208059987841804 0.3131295118066865
Ni 6.685656901520512 8.157829251041191 11.72738353288063 -0.13776382114675628 0.021981389367097627 0.5105465258397014
