# total energy = -381171.3161788074 ev
CRYSTAL
PRIMVEC
9.25868804220451 0.00000000000000 0.00000000000000

0.00000000000000 9.25868804220451 0.00000000000000

0.00000000000000 0.00000000000000 13.55102583229293

PRIMCOORD
 96 1
Ni 1.7887044850504548 0.2083214097068395 5.075008262773745 0.8288809788860949 0.011477147401664105 -1.2448106512801593
Ni 6.804395110321754 8.663706351361041 10.041730612179672 -0.5070896776393524 0.45618980546569177 2.060291811820581
Ni 4.002243876807917 1.269125422293915 9.126223193053487 -0.6478182378413875 0.13450931876520061 0.1351721491601801
Ni 8.844547048708787 2.6472811564845657 12.92834237679198 0.8252688360548045 0.16188591100594057 0.25835035918327764
Ni 2.0210697820674706 3.6547653097660953 2.9341903113832775 0.5766786415820843 1.2099693752312581 0.4523485773427307
Ni 0.203481893400078 7.105793186338604 0.6813431589976239 -0.09388460326530283 -0.7714494762415036 -0.5024172118643476
Ni 3.1779336102931177 2.7769120495608393 7.188101072437416 0.9735011608330526 0.11617735322523219 -0.24574886836918325
Ni 0.6414465458017828 7.222461915976068 7.866492561646259 0.20243966405858682 -0.9682347702277905 0.6640390705756242
Ni 4.305354810136325 2.277526185704332 11.247784924786787 -0.5311189506744144 1.201981471929775 0.1429016565939539
Ni 6.725520345796593 4.303716022330132 1.1672622609100243 0.19935536870630827 -0.22294344043889344 -0.10146704359825105
Ni 1.5789766806105043 3.5500958399977023 8.819169910302048 -0.8708521811115583 -0.5267388193288476 0.2240150762365174
Ni 7.9039106240188355 0.2466329354878774 6.082554449266018 0.5884887468431349 0.3904592960371018 1.7415560095707103
Ni 5.2565553980289055 6.893371103641016 2.9128740336081544 0.7733346090793585 0.6731294629126665 2.091593964367972
Ni 2.9043671509170266 7.616854255978212 6.426655446863212 0.39275040606412365 -0.051978707060136284 0.3037475563711543
Ni 8.145201296432289 2.333430144878286 1.7184736318013467 0.5884697206797413 -1.1252970345928426 -1.3425346828962104
Ni 7.510092322683268 0.8997639457609307 13.139603419992977 0.31701496290402176 -0.19059279202232984 2.659190955363762
Ni 8.048642437501323 5.234186407408788 11.730066288116966 -0.6899377927192569 0.7862873125852845 0.6159530137016747
Ni 6.543013084578145 4.209203333484864 5.589581152836454 1.1833453448858267 1.2406434072763473 0.8595262145757778
Ni 6.155935108230757 1.6922104369366826 9.750220815128998 0.533511619276307 0.12434497663768909 0.13631063363999749
Ni 4.582096999554924 8.381066377577783 10.58316203075641 -1.0740022409736085 0.8183577107572679 -1.236819919765199
Ni 8.165079699934521 2.5755911339797746 5.783971014453024 0.5303021112000739 0.3683485801809915 0.298640317051576
Ni 4.626964602429549 6.350932339791316 0.8920533102524726 0.1959067480360755 -0.9033732936677151 -1.1109145406189256
Ni 3.346145456976193 6.149833632726346 12.374445060462373 -1.9085303908431517 -1.0911160178357595 0.219015566139397
Ni 6.41657643892072 8.113758791405004 0.8560370132689212 0.3031366622600328 1.3278613971547517 0.5563229607438677
P 2.2688693122648407 2.1571169460459547 4.401156308374937 0.41281066714910836 0.7681867463298317 0.14138393439784683
Ni 8.378399875384657 5.610913170381467 4.20196952041719 -0.6885558247700657 -0.32991521590545764 0.9403596410840773
P 6.260243489160498 0.9083939690047271 7.5037177158778245 -0.15041030626617322 0.24048350620518585 0.2366952428073472
Ni 1.1752793589969286 0.24515154538058484 0.29649282302407826 1.1086805090820842 0.5165371962054975 -1.1428432710067222
P 4.555857877279504 4.635491854234652 6.637360042905159 -0.641742721071269 -0.43034276249560083 -0.3281049021695962
P 6.21164463495313 4.983840737964508 3.604722100204117 0.18580745481854452 0.8580604286635287 -1.2002174380508168
P 6.669875629891415 0.5414443807401785 2.634468057925302 -1.1850690124451526 -0.6466453005792089 -0.8553034347436818
Ni 7.824961789988311 7.058379444217071 2.4668283981711685 -0.9476998834992325 -0.9548035844235491 -0.583736062649498
Ni 4.498157732600457 8.567277114064463 7.8420329592372235 0.9044091911313973 1.1011975704414778 0.16319820205946087
Ni 5.898682457411226 1.88477263350838 5.3669513664308015 1.4112864956496274 -0.6396745256883306 0.7383349530757221
Ni 6.517301707528447 3.0483860454103793 11.852255973510546 0.5143090782059272 0.03013127216774165 0.37544662467835344
Ni 6.496191898499528 2.8895810259086123 3.0515960325991194 -1.0738032375889248 -0.5850853775885407 1.2432975570697427
Ni 3.601935235064773 3.857900928228594 13.411721820539189 0.3079312554351987 0.5315331553936975 -0.3189957407794764
Ni 0.8359854722978988 4.5861615636618085 12.795190404604433 1.0641004084788641 1.7281572196663013 -0.02392900001177169
Ni 4.093386403159094 0.6167739935648245 5.809636098061868 -0.2958172457804841 -0.7401524659004349 0.6916272646065379
Ni 3.212135204395236 2.2657769104158674 1.6030594544109966 -0.059436706000078283 -1.138848290914716 -0.9907427215223197
Ni 2.452626496386318 0.42479509434787366 7.6271813967636755 -0.5812958286391214 -0.782809124228697 -0.5751814882112675
Ni 0.14710666699824088 3.4971454023501622 10.733794406210007 -1.8530441848503891 -0.6121434101475973 -0.848043924967791
Ni 6.6767455765139845 7.940093577389458 7.946375597313196 0.02304736873776676 -0.5594419659888236 -1.4386672016554254
Ni 0.8702592841677473 2.0507623950305165 7.0196753500576 -0.8171271807842766 -0.08937745942356864 -0.6353920962628928
Ni 9.076930863102143 8.120323201317944 4.0741570336976185 0.5554832384513917 -0.2436040541120385 0.267134790244127
Ni 5.299376830817832 5.280239122369245 12.270846820915315 2.329370613164956 -3.367783644180045 -0.4079613094766071
Ni 4.196935571658847 9.005824137952098 1.755196366692313 1.183722268609271 0.6832914910473328 0.49092978005003846
Ni 1.928584745931559 8.299858423633637 2.349273612075781 -0.13899023735468966 -1.0652687177553524 0.05710780075658552
Ni 5.749719423434784 7.4084689613229955 12.24637425634284 0.2093685299679362 1.3577221892699263 0.4586629495965327
Ni 8.487772758743704 0.060081479276519786 8.642153051168751 0.6915138789571251 0.7878651985953657 -1.241890649419887
Ni 6.759314557619206 4.197518869013593 9.708876143103279 0.34744216904562747 -0.49216596644998467 1.4680094022629684
Ni 4.78759358350092 6.224199416112435 8.076737000886128 -1.324546473848906 0.04514831440186418 1.1633863852653965
Ni 3.744926415171191 0.7842266278179123 12.855682043766912 -0.5945586071862986 -1.0111773352275877 1.621419414587414
Ni 4.468270687185829 4.303762315770985 2.1438399872093448 -0.014883859090367916 -0.5554174182104629 -0.03322096683665891
Ni 8.897330829969256 4.768928068149033 6.460682051758907 0.872958943041916 -0.9298829099224696 0.6229775246486239
Ni 7.991590400994218 2.4422567656352694 8.540276927621422 1.1101223837349332 0.6862081504734956 -0.7781459144250727
P 9.038423979000706 4.935584455219451 8.666694130033688 -0.3566480039146116 -0.15288113640416898 0.45855933413913286
Ni 3.9614963901691995 3.817458978299505 9.367025006731534 0.548903528351345 -0.18822146357667582 -0.19683543049793195
P 3.2951115677799625 7.8652093074658165 0.32611784756347917 -1.943293248245634 0.49599768149124907 -1.0471216145326805
Ni 2.3053763197214328 3.9697366226410145 11.142670112117388 2.3031006237248337 -0.4264969063869493 0.24686009915549095
P 0.6787627626044835 6.065968435277243 2.8332354273089213 0.3711140587412705 0.5176980492828182 -0.07050607644036244
P 0.4567533083062604 8.375548199428119 6.1583182945658645 -0.4233845860102127 -0.8464464985736841 0.7876821360502821
P 3.5301711430546168 5.72374880311631 10.156914248234573 0.02915245319424012 0.8917277390089868 0.04587233705208229
Ni 1.7998889803605138 1.1890840630592614 11.563171952760566 -0.6154236235607659 1.1089779857178448 -1.262307265403026
Ni 0.8782865668116391 8.58336871410493 10.064767154216886 -0.7768655050507525 -0.02762187548232662 1.1131254322273152
Ni 5.652845769106018 3.172359880014429 7.851965679906621 0.45471090692732014 -0.6863786146130889 -0.9920118180427302
Ni 0.2066752149501106 4.279921193731745 1.4120166085680914 -1.135929060385392 0.0026094125983890546 0.3678096769583859
Ni 5.65975275048127 6.659663296839266 6.056522721605619 -0.8842095762550708 -0.19612760579762997 -1.5112224473153328
Ni 1.0130949183129003 1.2789025970020462 2.5156531643698985 1.2019310783078139 1.2157803254860804 1.2899224560171332
Ni 6.990596588120264 5.411388440305495 7.805648166464484 0.00887313411991375 -0.18084625415852723 -0.7369403867210405
Ni 2.7150547538932024 7.746318492667415 9.17247311807198 1.3952705798373455 -1.3521248976878069 -0.5355476758697293
Ni 2.1081292269354224 5.555342523981654 1.312619961712843 1.918722243774489 0.866787009903249 -0.2581842659190586
Ni 1.5389698890254335 6.225736358348751 5.371599227892432 -1.7365917235868995 0.059075723116233735 -1.1784448222604156
Ni 3.4365935817145767 5.632087790227581 3.8596711894068085 -0.912748564235028 1.0437547549429766 0.30826704150806267
Ni 2.5749152497433223 8.108657254223015 11.696730381358796 -1.2017716699118142 1.4226695406755887 0.529598914485462
Ni 8.04875354175937 8.040355911588655 12.227022672197513 -0.03934687722873869 -0.762286578795313 0.22169234164061175
Ni 8.71836964632014 9.103142209313052 1.6983498730625934 -1.8458499810947953 0.15982902847691183 0.455390449492848
Ni 5.441784713569504 2.2195482803801676 0.5113990117578333 0.4386893346880832 -0.18206444283634451 0.2565888964074806
Ni 8.228816509300787 1.0903401537200388 3.931301956307308 0.2543173267644846 0.6756262611925914 -0.4649544390321992
Ni 4.645917137114723 3.673801172644805 4.533888861988355 -2.6000872072230705 -0.26021132365141636 0.02819188905318371
Ni 1.2722178241428883 5.897164032551251 10.10238520425395 -0.7823224144002656 0.422311407550692 0.3253723337297815
Ni 7.978406029039313 6.870807680569315 6.20571907452396 0.7412112461822525 1.309520689864035 -0.7436072572182548
Ni 9.100836795958578 3.501765487747281 3.648871228876705 -0.7689351944600822 -1.0150355326314133 0.7781099189808148
Ni 6.311888451775987 8.619412787152992 4.84867870457513 -1.3707826219983101 -0.11480027037204746 -2.023989892065753
Ni 4.222924709353662 1.2739306814544453 3.563485754829993 0.20949862778789724 0.27093590915777216 0.06202220733906739
Ni 5.769986691840181 6.343858702028995 10.135909988250798 -0.5985726134416981 -0.2619234212465167 0.4738705105749065
Ni 7.905641998706734 6.765416033123617 9.560140872855833 2.7990923916788115 -0.8724334095557491 0.3706337766707423
Ni 5.808002865468578 0.6392318675913804 11.87716277055822 -0.030741137837598666 -0.5488017126661582 -0.38154296738407834
P 3.930220541528984 8.026051238365111 4.4835734469941615 0.5721846103664726 -0.2558409624978626 -0.23788129269564834
Ni 1.7594377717432552 3.9715883602751303 5.697664300933339 0.3860423979163287 -0.9290958952448 -0.8803657770289484
P 6.966616585758465 6.095975843638089 0.1669721083370347 0.31102660653107084 1.0216208991584148 -1.0320037850546355
Ni 8.519178229018307 0.7575440143791212 11.120703874432689 0.14932170118768476 1.5625084991838187 -1.036991210966898
P 1.2287390244938503 1.3316771195743453 9.080338986217734 -0.9982783677777325 0.1558708151601122 1.4262819406171952
P 0.644024164588472 7.007169639945599 12.076687500634192 0.2889164048955927 -0.9012924998792865 -0.565631125518671
P 1.9014475309035925 2.5541757882412255 13.349983036080136 -0.808116235534918 -0.7123069044430764 -0.4642838953277359
Ni 2.5827480999356314 5.376316529515343 7.7519996237288815 -0.10671389381948718 0.3400559038838853 -0.837336565852616
