# total energy = -340870.05834292906 ev
CRYSTAL
PRIMVEC
9.22978441241061 0.00000000000000 0.00000000000000
0.00000000000000 9.22978441241061 0.00000000000000
0.00000000000000 0.00000000000000 13.50872244846854
PRIMCOORD
 96 1
Ni 5.891306845172383 5.733569827871557 2.645115948259433 0.33542149043566744 -0.32418551251053196 -0.11016071471750705
Ni 4.096750612824994 6.288372174855327 9.98559402851127 -2.109201135926774 -0.1439061865990683 -0.2908560451204668
Ni 3.981701348889664 3.943951530237799 10.70533816258551 0.3453320646811601 -0.02294118217720565 -0.9515094870533096
Ni 4.818787425371882 1.2376587242795165 11.206741591278238 0.410868455821073 1.1635470792129767 0.41693163129601746
Ni 6.02304355950443 7.818476621380407 3.8526744992901816 -1.0085553242237082 -0.4338831715486915 -0.6435486639317562
Ni 1.216891709128735 8.29678251433321 3.373276722829673 -0.40548122336723075 0.055595992097749417 0.40852900905461903
Ni 4.578914555703586 1.2436119352894075 0.8000229537980048 0.3431671958193574 -0.09501383177373958 -0.05113229989944098
Ni 9.14806399939405 1.9576280650958373 11.164364881650778 0.8414742421700735 -0.7473662100400548 0.3691366232999255
Ni 2.003093983599282 5.902594871629897 4.111569031858141 1.049580103375502 1.493345824145228 1.5696587370753547
Ni 6.854314871744429 1.9900615278691025 1.535049765066319 1.0988390975116302 0.41778600887651274 -0.2802075642676851
Ni 7.576923930931027 1.9410882912513037 9.51018167300281 2.0536426819351794 1.841772982811944 0.01754777907577623
Ni 4.13019935189452 6.50974855636266 5.696479938812262 -0.25524318101286364 -1.628213554691112 0.4665503227644094
Ni 6.996610459557585 6.578390463774377 12.862587084116722 -1.7997457305375648 -0.08155282117282729 1.146312203391929
Ni 9.249074761087453 7.72230226677101 0.9292916237516881 -0.7121184425813543 0.5512157214242894 0.1643012053156525
Ni 4.713447894742606 4.964941063110827 7.978656762641417 -1.2743037756432698 -0.6252457518575103 -1.1154479097129049
Ni 4.154898255247184 1.4001583103882551 5.6556972129699306 -0.013658471323699059 0.36098005563106217 0.6037402736855667
Ni 3.9766895758999428 4.280312567188881 3.946627244767671 1.451942578608093 0.8350817083801683 1.1616670885814444
Ni 3.9540489144933346 7.38773180801515 7.814972072201407 -0.6938607819227469 1.4271725707522647 0.15845888760226257
Ni 1.8659024666209627 8.141823662170333 9.093747640522569 -1.4788450594258917 -0.1697033501678303 -1.2796511559981123
Ni 1.8553897420624115 7.189734470675343 12.812753631582455 -1.3644767343849404 -1.1591540923516035 0.6563229328782891
Ni 7.170379612554814 4.409197278106888 0.685653002002718 0.006572511011195133 0.1036167429514022 -0.17470466003716364
Ni 5.470041020500394 9.117273438263824 7.179035304469661 0.191806866935089 0.5785902567825003 -1.1474285763845593
Ni -0.006211644976211573 2.994612814527223 0.17888245361657726 0.10331849498469303 0.12749586356184495 0.3059355651614086
Ni 4.787821498335939 7.899209546502135 1.7468530140783665 -3.529524544967689 -2.2793274325646355 0.4763626808691409
P 2.9856599235511085 8.231915588786679 11.193733132987788 -0.5863475321304159 -1.2369142792512182 -0.48657715950829744
P 0.713877683038758 4.339503175260865 4.767647035350793 -1.160434244615608 -0.5045777098507761 0.42529954364473854
P 8.988453335837399 1.6812421679002125 2.0374804687751715 -1.512476374327092 0.16892379168932842 -0.2929988024950825
P 6.072681340607054 0.7704304186973665 9.047831308534965 -2.192083217433986 -2.968690326617029 -0.17837645246179604
P 0.21962918329931314 7.533903905323118 5.383738843404452 -1.0600910302091548 -1.3486968458428645 -2.031838184465578
P 4.008366196343268 6.877333954316007 3.6776150224182502 0.0246548224342027 0.06144705156188772 -1.287272677099112
P 2.3292837980187366 7.900787839653595 1.5027104460950707 -0.11181162005736872 0.7726805204351274 -0.716484947080166
P 5.950349776692183 6.719606166799692 7.020523908248323 -0.09324748390193618 1.3090591768465842 -0.5153215786308415
Ni 7.7843171889035 8.829267242368275 10.808599145742805 -3.220997564930021 1.049921545875321 -0.23671272630884393
Ni 4.305823691578553 7.362396049531197 13.014384735084425 1.092230591056177 -0.18928410051323527 0.5694533274782387
Ni 8.372734411078003 5.625129089646432 6.388801460124508 1.0360219050750932 -0.21641078152669826 0.12292701324423991
Ni 7.510515631371082 0.35987760490782744 3.4393075242030986 1.358039720510345 0.00636528009639549 -0.5162111803246464
Ni 6.246395114897214 7.62776158402014 8.947326339032792 0.6375353678581408 0.34035672295375574 0.7450036233451492
Ni 2.2858115129697674 2.8426167231925246 4.923131985230823 1.3407752770029424 -1.175910485874336 -1.418149541318048
Ni 4.985495793217845 3.5313432434375582 1.7212809731109193 1.3709643989918132 1.7793617675645743 -0.7457579850126704
Ni 1.5927839131423942 3.668756275244152 11.354851020355163 0.4860421129404338 -0.4207749163015076 2.201342788359041
Ni 0.6271389371354245 5.906277555649969 2.3178942439315975 -0.7540893876965012 1.0694123076100808 -1.2765133817000789
Ni 6.165246849472472 5.304514065071897 5.417768135919749 -0.9819282085544829 -0.8614699685657098 -0.1495479582658779
Ni 8.500059288413572 7.797201968081495 7.738201493570448 -0.1461579587477225 0.36347531124909016 1.2315021070967112
Ni 0.41871932712527765 2.42498743361805 6.1234765366874155 -0.6088469987845126 0.7988839183033726 2.452115078084745
Ni 2.8190992322573285 0.12677662813558943 13.079915282137327 1.8775789367669597 -1.8643179579919957 0.2387755223751436
Ni 9.015902714974477 5.239517922542207 12.120863141206893 1.8903997426807122 2.26170791971066 4.03283341540837
Ni 2.05326709220357 4.093372511693801 2.636389187003849 -1.6641020410576048 -0.9551985058691226 -0.14715683232588206
Ni 7.914854031249058 2.641462799549798 4.5628953417055 -2.4785275066400025 -1.626154615279554 3.761256787342806
Ni 1.7941408920443729 1.2552414637738452 1.4821095670654951 -0.6823790065353925 -0.9165720517461763 0.21271507784266594
Ni 8.752050865145412 3.962023448311235 2.9839957934036923 0.4146706031759826 -0.7279284130304173 -2.4470016681175792
Ni 6.528531167843478 8.860390075740913 1.4191993558353941 3.4591907324391324 0.7970304100344016 -1.5649428196569242
Ni 3.260744421130618 5.866127993025125 1.6762433166088067 0.11677282071738598 0.4848879447313327 -0.20428803012123525
Ni 0.2930964220536205 1.467674184089574 4.07714839647956 3.958777416833221 -2.4126866968857934 -1.2739597620402898
Ni 7.288419326671857 8.068991432590414 5.681039432303042 0.7096877216526745 0.06192476252925464 0.9444690352667606
Ni 3.344107834838111 5.317288086835756 12.438278199491306 -0.26107392876202784 -0.6241818293693702 0.7286071842649968
Ni 2.907400580678452 3.227858698916291 0.42693198938357346 -1.8423627938771434 0.4848941153789197 -1.705596817867282
P 3.327171180259585 2.485156398848248 2.3665259785224717 0.10211650425679188 -1.9427283768810992 2.1825421107127703
P 5.74535626269269 9.233384127417972 12.852401093929876 0.2595598061103465 -0.25893502804215407 -0.10343830839200895
P 2.58787467067627 5.8509080783657295 8.403330223755036 -0.7460757733634054 -1.4874109467180319 1.1960411951859402
P 1.0667046555582822 4.90819634793438 0.3177694820096514 1.6240319125095966 -0.024240617714919543 0.7274026224339344
P 9.1290137241624 0.21133806787266995 9.234076361256331 0.10338534366688645 0.024729127315563863 -0.9903501140695913
P 6.211045040218329 3.589777009179602 10.99455992110122 -0.556767504480454 -2.275951059893235 -0.09386737687412221
P 4.144477828533747 3.5682716112679036 6.221712825156672 -0.343012415409048 0.533799582830371 -0.5338713166085709
P 8.670939518858715 7.549714526191247 12.335247037968344 1.6280639164871251 0.2241927394649623 -0.06398678726460592
Ni 8.28178411450209 6.427086606278038 10.32726957538405 -1.22217388771725 2.051063094133461 -0.3504629581498222
Ni 1.5248988480606167 1.577905500509923 8.42029733662245 -0.05257828831734816 -0.45469830852182985 0.1689165926004768
Ni 6.272783068815475 3.1721015706825706 6.586637276235365 0.08979577790790987 -0.4354929392379725 0.339899323701363
Ni 5.919402309225263 5.628617948191763 11.046176568003101 0.7060192716621518 0.3400142520126725 -0.07941494889421807
Ni 0.7666111338665251 -0.03990866524909543 6.434731636788879 -0.22880632697757367 1.8278813124315165 0.01727395658909928
Ni 1.4276907575859357 3.8702147817757573 9.187728075353592 0.6501497141880417 -0.20739340851943638 -1.1107764723791644
Ni 0.16076254066368195 5.660193041005463 8.44982710918841 1.1742660082923777 0.8324116177471729 0.6721709556541392
Ni 6.982802701928443 5.405866328792223 8.301015293510165 0.5712883238044484 -1.1323207742088435 1.2052807115063373
Ni 1.464859099813579 6.244503009072366 10.450050629804627 0.8367603816341718 -0.8367493258905784 0.45094244102382347
Ni 1.961624561789299 4.330541054500238 6.633255994824291 0.6360251018612014 1.1865260566066533 1.3963607275777306
Ni 3.7394379650329013 0.08840472200765184 9.487040757275679 0.9604638680331202 1.5145245151053723 -1.9593497874878643
Ni 8.020525834120745 5.87268114002826 4.197376492504269 1.063114390416511 0.566318895614315 -0.8940962392411634
Ni 4.931658460162509 3.270666439480436 12.756705765136623 0.8441042235937527 0.7561781519047299 0.5583227647827158
Ni 5.410831952859388 2.8599594882895554 8.925469286331206 -0.7949154205739277 0.044527392988413635 0.5009593963718985
Ni 6.981981251106923 1.9208104546796292 12.488341473659906 -0.567416756664184 0.35361898728030067 -0.4090974799635793
Ni 8.17060213027706 4.179680226660449 10.649438895670313 -0.6322730910179369 -3.048349787421886 -3.6450629790573417
Ni 3.128029349640356 8.535787784257428 5.141284403008303 -1.0588620428980602 -0.17515357464912415 0.06419633217225074
Ni 3.595324109670989 0.2533003601755649 2.999368922485978 -0.5514525200254438 0.8186945252713964 -0.05132127598179548
Ni 8.764474155097835 0.6155832469270783 13.246302453482294 0.5752439660180867 -0.7147638506240014 0.8002100933139638
Ni 0.7354578422049992 8.739369141226668 11.15975829620111 2.6728957065443644 0.5311888846804014 0.5769239248236709
Ni 5.125603922101785 8.040683683493771 10.91010370090757 1.761227776968025 1.014308938878034 1.4016425448019603
Ni 5.2195446688594105 2.142399121230725 3.4709444565730245 0.8217793348443073 -0.8390818306784968 0.9818094235884317
Ni 1.5657867934463778 6.861532563232389 6.851232123717602 0.7290764105919314 0.46025137712957503 -0.6706339501843225
Ni 7.841246499770175 1.0806324003860732 7.039274215483351 -0.5075247082942421 -0.04714734710976396 0.12341320885203907
P 5.121561276485767 5.299613049496313 0.5365559859830684 0.2746316128418045 1.0697149264521641 -1.7793774512938583
P 8.608416958578095 3.714822129740842 8.18566421562131 -0.30621452985440806 -1.2475347350795418 -0.3400862429011885
P 5.998409264643347 0.6081726529428284 4.84876668844355 0.09824982221253402 -0.21949276288613168 1.6835380382950293
P 6.684191483629226 3.913364024366826 3.7702036057449466 -3.0706008855106024 2.089884952096665 -1.8737798747358438
P 2.7393815834318613 0.3091553241251072 7.101684172392931 2.009976094285164 -0.6382280230497911 0.4319977816005205
P 3.219358067381238 2.2117794114033584 9.808751357271724 -0.673492245568724 0.5510902515900187 -0.5213441306758376
P 7.849304101648679 7.146123738858702 2.563739707157257 -0.6551913903770071 1.2317178226519434 -1.2359493442347875
P 1.5658514019379581 1.5819481461259417 12.701576262249683 -2.2282046457468914 2.956765550154985 -1.121976454860042
