# total energy = -381174.48169732414 ev
CRYSTAL
PRIMVEC
9.22031140761574 0.00000000000000 0.00000000000000

0.00000000000000 9.22031140761574 0.00000000000000

0.00000000000000 0.00000000000000 13.49485774840833

PRIMCOORD
 96 1
Ni 5.111030554826794 5.172576131960466 0.47271982206698404 0.3813791881127045 0.1382713569107941 -0.20356117925753975
Ni 1.8243860921544988 8.124080723823063 2.396996921495009 -0.698575413789597 -0.4110787720596662 -1.4580178382678954
Ni 0.2116623855038657 4.340313963511952 5.225923930423045 -1.0332451136609044 -0.795184100854282 -0.09799142634482479
Ni 6.353863959857376 7.028366603997705 7.003695817370503 0.25083605308410345 0.08083728316304142 0.0030835240213301736
Ni 5.877422820197711 7.996139685874472 10.964423400024389 -0.24474845212912688 0.9300644298056562 -0.7992011924334752
Ni 5.7074924851305076 0.09642601433167776 2.183062651316126 1.2467927147071947 -0.2504169632688139 -0.4709227408004921
Ni 7.948987014494457 6.799509260172254 12.063228168157643 -0.6816431568106325 -0.9967015102089156 0.1260645304319571
Ni 7.837596435115895 5.611527486357883 2.737013414888377 1.6039207435820182 0.3752126542906764 1.060890900402631
Ni 3.332211240529165 4.507044850599323 12.282695547076287 -0.6861436157841473 -0.5798902065408466 0.27435907590670816
Ni 4.626706049107309 0.3368050590090002 7.25688648443393 -0.7011028081971409 -0.47979176115534783 -0.997108258729031
Ni -0.24942970213266522 5.875836926674566 7.062600697381917 1.1512914017740754 0.34702205078907333 -0.835486914238387
Ni 7.654490275370936 4.893007076639104 8.520491406493237 -0.8822185139669709 0.1598179727333183 0.44998007711055404
Ni 5.797436620701889 3.2343284170308775 5.893109335610073 -0.8277913453663421 -0.5397365171400963 0.8013588622064264
Ni 1.4542459201014417 4.822619221082782 2.8786281743185014 0.10838922463938108 0.04027684524217579 2.445358218976885
Ni 5.662229977542611 5.742253058283158 11.25723466626401 -0.2662500736463286 -0.7099276055776226 0.359106235647117
Ni 6.2448061192076265 0.22493225735566824 8.869657214671586 0.8976402478386799 -0.3323035136319761 0.8653145391227807
Ni 2.1085653030663982 1.689714227043724 11.053637286950229 -0.5110854290623068 -0.6779718786066323 0.6454134850546369
Ni 9.370878862661508 8.104616646919814 0.32298289051745127 -0.4067348932686737 -0.8925618048745079 0.4829259359089554
Ni 5.275945040611493 4.911180309977002 7.6896934234602785 0.8207753190598251 -0.7691455106986754 0.5385417255010467
Ni 2.0501177504895662 3.3037204789796446 0.5781872735428235 0.596170945978741 -1.2004346962679453 0.6520659573741481
Ni 8.598419632533444 3.0188220837956217 3.2653907233688 -0.7662743597984674 -0.7768829885522491 0.5806656512542903
Ni 1.5238316085850114 7.405551093793103 7.611153890788766 0.6982134024644877 -0.08345003819554014 -0.472090021635716
Ni 0.7960650708138517 -0.0373699212168952 9.657594581179321 -0.5114327850993966 0.7021654451337005 -0.32910634685091705
Ni 6.938459349671048 6.902048340816983 0.8376689589250962 -0.0433408288794802 -0.04888644128805774 0.203113807307476
P 7.082148679116913 4.356394186211746 4.543124850281986 -0.003958213316799635 -0.722243189720182 -0.6607673418028878
Ni 0.8458741138451344 7.701661387373313 11.530047077551881 1.0959401786972804 -0.44088068591244717 0.1468256742387084
P 7.277766801134591 6.77279801868068 9.620969661105857 -0.3071717515613549 0.7389245070306047 0.7139642375408414
Ni 5.386690198207379 0.7547073650111417 4.697290297291789 0.44816539249931847 -0.3185481117190965 -0.10437393283240089
P 9.54053258839328 0.7395528615539275 11.849091973163892 -1.0863826169158324 0.5800100199481624 -0.2072363141162818
P 0.5484360954548503 8.764615741572312 6.33746840251519 0.6586644365272721 1.2019182227920073 -0.6314819625752092
P 2.495670847692632 7.9733562969460365 9.393796868133187 1.8481027816847138 -0.9690999464415633 1.402196360422901
Ni 6.033688654094562 3.7937431370090335 9.840584565003399 -1.6528465227484437 -1.509165050565672 -1.5164844670452204
Ni 2.530883216093156 4.807580893546448 5.152350457353661 0.5457235879614666 -0.20493851922104062 -0.22303060083606105
Ni 0.964444549540399 9.227134211348556 4.224457065397278 0.10072116657116204 -0.2472627339105484 -0.07686570010980309
Ni 4.827210936050957 7.3005686306853885 8.882530613142603 -0.563163637814785 0.4600279482648594 -0.05169588571239484
Ni 1.620469690073854 0.8018332974887318 13.50578826586819 0.3080536399456759 0.40116794070385753 0.12365874920394186
Ni 2.1192977452811688 0.7204114955420167 7.6176173289267 -1.4365658390417066 -0.016758964625893717 -0.9193573278007974
Ni 6.0652682198897425 7.400240194552804 3.918339968092248 0.5263243574992484 0.8448038207639387 -0.0979520884664571
Ni 7.959387525506709 8.94668000615381 10.933398896962307 -0.28504560908627685 0.4526182860643495 -1.2398484221788777
Ni 3.3627396908497027 6.172186948345484 3.3606512903671897 0.2142399991276246 -1.816861307171929 0.19552956720231485
Ni 7.248095839753893 9.076898460964127 13.212882030423405 -0.663179036568174 -0.4971168826973568 0.21074689837270152
Ni 3.76797236725793 1.5060732892502617 2.8993563558846747 -0.8373568775675901 -1.3466340497765648 -0.006587166299214462
Ni 3.8150789370820397 2.675540678213035 7.991398601865163 0.0136705555085571 0.3814095271300077 -1.2256047677756698
Ni 8.247614453027099 8.297754505229783 7.894248793105771 -0.34980681262306207 -1.648762068266425 0.6444248958891223
Ni 1.0539000086191843 2.4032925499694464 9.248822227308679 0.41083785969345377 0.300837838923527 0.5765858247579619
Ni 3.004604363954405 0.4116454028346643 5.46772474708449 -0.005053503263507426 1.1507738387077084 -0.5171429481102964
Ni 5.050785041569652 5.539590618523139 5.378618737799467 -0.06478742878903035 0.4783321458906859 -0.3956495819887896
Ni 2.600210735863656 7.29363495667722 5.54579219982353 0.7158282873327736 0.023935941990307165 -1.1125250796391548
Ni 7.839892292599982 4.432231245676085 10.893844684026618 1.782206436102221 0.8609837729579107 1.7705169155794345
Ni 5.827089141460225 2.813172263212935 3.4670038917164123 0.8170595607711346 -0.13363900034510534 -0.35898487957790437
Ni 1.74425236767978 2.907929401220838 6.36596930640701 0.353389644878314 -0.791410749854779 0.8760218982379557
Ni 3.8449804062422643 8.249015940326624 3.4950059767733355 0.6127054532986544 2.6671955708357933 0.662715209557878
Ni 7.0360840044562645 3.719685597602642 1.5161206623442787 -0.4244901603695657 -0.35685369216751445 -0.5648055442935822
Ni 8.567974165013535 1.1213373645975637 1.46732308744956 0.4209944885114814 0.3865792442564052 0.3623429974168599
Ni 0.6186939446235203 6.578323215249456 4.401388382744272 1.7705313137571377 0.977643208025884 -0.8686675147554137
Ni 8.302235576463787 8.190245676858455 2.733167623094751 -0.13421467034291726 -0.44421232138884137 -0.007335100208832529
P 4.153593441784011 7.29860470440382 1.548453527562953 0.35926692959469736 -0.8508754808793152 -0.4040069528145494
Ni 3.661118180980457 1.9853266238201555 12.707567486300203 -1.3667866134650395 0.22824634070904565 -0.6340399531103726
P 7.31533956919747 4.56492996419411 13.06441196963015 -0.36552062381389305 0.5519009204167721 -0.7938219303994329
Ni 1.3650670703580885 4.896925708891061 10.600210043998525 0.44887938784720754 -0.2000850477834812 -0.03309164034764624
P 0.27947316408507855 6.411260396959566 1.7472332942846214 1.1445237440329386 0.9755469876184877 -0.6583327642194662
P 5.960248875537303 2.3017769238658152 8.051126855665046 -0.5134032785622061 0.9788647391378109 1.1173867786068303
P 3.8121653187488205 2.516610174384853 4.895529753778247 -0.03641556251455664 0.34915272397883096 0.3730938081754607
Ni 3.157679970182605 6.549039506938363 11.369093637450568 -0.5507683494742256 1.1423547614060778 -0.35176599323196195
Ni 7.515429542137969 2.221440352545113 12.543335303542904 0.2762925454839951 0.1920560068314176 0.3895198149419679
Ni 4.764263871617761 7.539015098139157 12.882177129291803 1.5557534398481723 -0.25818735124285214 0.7594434529195631
Ni 8.000851264888002 2.148793520749426 10.111966906027083 -0.16778299321666587 -0.38962291617873546 0.022841166264231633
Ni 5.718031300810475 5.3494585816582 2.8939726161860455 -2.576570097937737 -0.8791565872121956 -0.17742977227781054
Ni 0.6903376065627059 3.16999830592052 12.120540700428084 -0.8727002900638907 -0.5728659527042134 -0.16064458239967172
Ni 1.9532307205988348 4.218808702767752 8.381130091115768 0.20769885557499715 1.672059862452101 -0.6603171416393466
Ni 5.336126011690367 3.38176119281626 12.16353593349655 1.8255693764688883 0.9478742042935675 -0.12739353365602576
Ni 2.7761250528873775 5.450199701622621 1.1419051127491868 0.6295016989203869 1.1890259402103716 -0.7139806926010737
Ni 5.667439453359919 1.3418964283600483 10.84295594255603 -0.2621651049436775 0.008891131842042752 0.7991513130321463
Ni 6.816861885815036 0.9943091374558995 6.66447595886318 0.8994263932048252 0.166267585013404 -0.5620629485514385
Ni 3.839236152376455 0.19040495807589833 0.7843857026407844 -0.6600926843333663 0.13599078840673354 0.9411906216258048
Ni 3.7689866014878484 5.346065507143566 9.595869207977616 0.004135362324612233 -1.2459334520306928 -0.48088859376395243
Ni 0.35273406860542456 6.582490795903301 9.302464153697935 -1.1431980832429796 -0.5180906567355466 1.6960935063625373
Ni 2.589505954582428 7.724813588748991 -0.15854140669634084 -2.1654149641141807 -0.9767350943893179 0.6528347172193725
Ni 1.0597180249744425 5.3406624047914555 12.932351296645855 -0.251102933592245 1.5511897317368897 -0.02822094251890624
Ni 9.288080468255458 4.270368682892321 1.358325178822487 -1.2930306626288117 -0.8744383558009198 -2.5738490994621475
Ni 3.7378957121852645 3.0048994139121996 10.246604655986488 -0.020855760403086662 0.6619410503960148 0.44490111992574993
Ni 8.795678969941353 1.2279426024731477 8.041153245060478 -0.23423084042725464 1.1212478042241334 -1.4754815422702976
Ni 3.667231247293509 3.76685670960502 2.9410155658630064 -0.20013029919911987 1.340834669485968 0.031216277701804306
Ni 7.8219680076639735 6.22793294974626 5.07519950354602 -1.841980985057692 -0.26170359192622666 0.8220433871389713
Ni 3.548326114302372 0.6925661557751716 9.293786918845425 1.3662410253742148 -0.03230308300807985 1.2521964022212693
Ni 3.2665995061646385 5.792586737020644 7.18391970784026 -0.045202564678567314 0.16500028826520613 0.5691584219456391
Ni 7.8598081647511036 8.54501559017266 5.439439598474308 -0.24990737062224705 0.29140934652077555 -1.3781048666913362
Ni 4.980470948502777 2.678915312105308 1.0666120516445319 -0.20370438970362337 -0.2668385991599469 0.27285498055735585
P 4.896907268268699 8.008061548231602 5.659054502371849 -0.8864312664967379 -0.37921663324374694 0.18573726370224142
Ni 1.6856665104352324 2.531500976942288 4.045839353135265 -0.015065893194186959 -0.3546057766736022 -0.6931205613226127
P 9.128596745756411 3.5548725352409347 7.719287856258173 0.7589305178388864 -0.2869880775246283 -0.9539484355121054
Ni 8.987811814332584 1.5975295558553404 5.424972930231201 -0.7468054524405784 0.6664366242735232 0.30811328953901773
P 7.333900055604973 0.8299773753378439 3.416452613635053 0.9192141173547136 0.8864222676356734 0.8624654997097598
P 5.431786740194016 0.97260452493565 13.133694309875864 1.756559167847762 0.3352551400611323 -0.5071053613686363
P 1.6487207235326664 1.3640528361281703 2.1060481581139645 -0.44009058591098404 0.0838120495206492 0.3200092696456553
Ni 3.2708592899302946 8.966245506480051 11.36569318668699 0.6334066904017479 -0.9662133689223875 0.8234667498490593
