# total energy = -340860.8913651296 ev
CRYSTAL
PRIMVEC
9.31855890144032 0.00000000000000 0.00000000000000

0.00000000000000 9.31855890144032 0.00000000000000

0.00000000000000 0.00000000000000 13.63865288662894

PRIMCOORD
 96 1
Ni 4.664684139452781 3.5894529194382003 3.0812988647772963 0.10395150058300162 -0.4301818114377043 0.8155436383472405
Ni 1.825971587210381 0.6160899888150205 5.448750468308905 -0.5956240723363355 -0.012512530644713932 1.4429635150379343
Ni 6.766755303889272 4.510005382749004 2.5893796031719574 -0.03217349940875104 1.3501356351719198 -0.16675480906246765
Ni 8.918876447376068 0.9568575682037435 11.147607326064566 -0.9721485034599 -1.3585002050865314 -0.3303615594142568
Ni 1.9369463033731182 0.3461360010850327 1.1232888912039722 3.528900281120129 -2.333609333836652 -1.8611344180576916
Ni 4.094099468585321 1.3477245150041488 11.596360227968786 -1.2563021968595265 -1.1728408458100767 0.011703404479857264
Ni 6.771442538940902 0.36965604337193747 3.6039870755217525 -0.5710003602503844 -1.9061462068816915 0.24392029980087668
Ni 6.42581719487541 -0.02001533234074599 9.719340644065895 0.06064049650019235 0.5208203969618836 1.496111045595191
Ni 8.649998753181793 4.7874561509939735 4.373084071600665 -1.2113909381691332 -2.340775255457472 -1.1077040041014279
Ni 5.9824028952795 5.642387323581963 6.945920437422408 -0.5235074568757436 0.22548291903129555 0.7335305897085431
Ni 7.752043794841568 0.9327411381567904 1.6077244182765804 -1.6355687095046025 1.5248302679067547 -0.26012082082013915
Ni 4.7662937040710105 7.26755328827233 9.128009133995754 0.0244380784377063 -1.116589993737148 -2.701271686583896
Ni 5.827649590105716 4.606545651406822 9.397550309573083 2.044289522855053 1.0061369445902026 0.991973508605627
Ni 5.861420047018452 1.5235564000721389 13.375603902323506 -0.9129681364450019 0.4132289856334496 -2.504143407435894
Ni 7.793241143078655 5.937944051479649 12.193541929222649 0.5344914666910731 -1.1043764823900915 0.03707659313732324
Ni 6.344307761482559 4.2421806856935635 13.464637140051718 0.16668924593185486 0.9783057813105475 1.104609424336504
Ni 5.7977556536332955 7.537474661046691 5.69297777903981 -0.8597918095323385 1.186163788171228 -1.0774865999777832
Ni 2.824660165646262 2.714663898152354 2.0119607013166934 -0.682861859709082 1.985090643897394 -3.061488124576057
Ni 9.116895820829605 0.6665360066122311 4.02123393028967 -1.024528559723513 0.5945339245959502 0.5655233962962131
Ni 6.090209301466981 1.0734700124106875 5.865739198999426 -0.6760988299536356 -0.9143483046219802 -0.23655306080252814
Ni 5.409432673371847 2.2836898744887004 8.976415752094352 -0.30311660765537474 -0.4838610461287151 -0.4362290460730487
Ni 7.814450182795372 3.1700059529492304 9.068708621673576 -0.3051961158922228 -0.7634960257223818 -0.1109857817219637
Ni 8.84866110718913 6.99899242507558 8.226439506716114 1.6012491102871262 0.8449640004908868 -0.93243113026562
Ni 5.914144452430222 6.662834736700855 10.974396751573163 -0.8097422011741151 0.08813870192046111 1.3233966765151788
P 1.1718274000249034 8.413726696056406 10.834736716007978 -2.533437014193688 -0.5732199936095224 0.5433735996720512
P 3.4267415650912727 1.5791602401378921 13.6653840556516 -0.4640496678297428 0.7736621676221063 0.5678443311199058
P 1.4465664676734038 1.4109509361280193 7.6650727541649 0.728713627935874 -1.9936853275449409 1.4549479410933202
P 8.240625148702387 7.313875843822332 3.2896161775062924 -1.1800160234022776 0.7717073578885806 0.18956435075781547
P 3.631330522464092 6.132757840722927 7.060866723324717 0.8288457547727853 -1.1066231123324233 -0.11039905598055826
P 6.371462041682259 2.655742651171332 1.4359321284270425 1.9530395289991203 2.7304704196350396 1.0518722418437885
P 3.6389437849634585 2.744846709946048 5.129592626663183 2.4028879656278166 -0.5471094125653997 0.7015373246313983
P 3.1940664716436795 2.1042423886254173 9.790588480562414 0.6760679767157002 0.7439073049571768 -1.486681010530543
Ni 9.255733027657097 8.505132438842558 1.6334063661936604 0.08317672992949547 -1.5987032039368207 0.43432977216780677
Ni 3.012280027533957 7.704211632773945 4.61219642543328 1.3811945613602534 -1.143640827207353 -0.9617959565809823
Ni 9.312240767921676 7.754438664440512 12.762410121568221 1.4503204696236376 -0.0588011292986084 1.205028229175899
Ni 1.7752599904887738 2.9044829399052268 4.311983213727841 0.7237884227201148 2.069065444248153 0.9545264195027625
Ni 1.7905424268400116 0.3782626642341345 12.355842335128669 0.8144051538674233 -0.18124143271441687 0.9331474396063542
Ni 6.865000868798479 2.5869157762382575 4.108248768192467 1.037365563587181 1.196498851548649 0.133408372391538
Ni 2.176321440562505 6.087916936014294 9.07957872045633 0.009188094257171273 0.13274425644497784 -0.29382541216143593
Ni 2.3077224375068965 4.0465095890452165 6.43643476071602 0.7020194064741393 -0.18983457370006662 0.510665567916069
Ni 5.9346825559168845 7.177871478855067 3.176278274844364 0.6284819994066209 -0.021273307556479493 -0.03484538981395935
Ni 7.971225615218069 2.4164793366869546 12.831244451348295 -0.6233421070768942 0.4255851932059574 0.4223754280194081
Ni 5.293938456214993 3.4357619299620037 6.403061274406068 0.8789254450379961 -0.43288789751495765 -0.33201734985012493
Ni 8.422737742368385 6.386222638743454 5.827468810065952 -0.22205898095141113 2.0580014731245075 0.4312665598614508
Ni 3.20654402181094 7.947640343019908 10.39734500093268 -0.05376922330165578 -0.06507153568835244 3.6040153170874123
Ni 0.5693518255447353 1.6071345535076578 1.9308240102738725 -1.2343151510654742 3.5592138445020054 1.539559089476497
Ni 3.8015899093991314 8.42154496684829 2.1775878326967324 0.10366585102178276 -0.7202860659938111 -0.2768671870405426
Ni 4.0223931589982636 7.906163438020299 13.01072921144658 0.179898031312645 0.3310033067633138 1.6504291715562027
Ni 3.0137709969340776 8.182952588593967 6.803286849759855 -0.04571627109019224 0.26535687240809785 1.9602275621071272
Ni 3.8590481426562846 4.3741780703980035 8.505609549050599 -1.537230184233004 -0.4274024489203542 -0.3885237695772857
Ni 6.578231541802754 8.103017991629994 7.942687529043884 1.2783995429791983 -0.537742626638519 -2.388281014347919
Ni 9.169433855066359 5.0249582578744585 9.500522247480674 -0.42174833595837036 1.1475453044680817 0.7953555934351398
Ni 7.886706287348724 8.65491895220219 5.950966737333828 1.1839912059999416 1.0421717267265729 -0.21171054783755153
Ni 4.9043201962871885 1.3014112780128981 1.6807325305211183 -2.5110753586690366 -1.6286778959220405 3.1116284928758735
Ni 8.846788076880229 0.6917799822680255 8.584985964345401 -0.7905589433774449 -0.20610502872531597 -0.5488096830859581
Ni 8.228604207913914 7.933243169749994 10.777522628990095 0.4001186735037367 -1.1435878624822304 -2.5658971916049227
P 5.772325306802486 6.494709299719739 13.204343702178637 0.6393562231169634 -0.4147071128408729 1.734580863804458
P 8.272065965927434 3.7253361431417056 11.086969600561655 0.8742174980393654 0.7519628282718017 1.2118102850947388
P 3.9739552906118405 5.450704570078938 10.612249602842583 -0.028924653454150184 0.5900769172658612 -1.0439457879078602
P 4.717091713867025 9.234701040556645 3.974425877828754 0.22630490071195863 -0.8552471275844497 0.33627972467090467
P 0.5639740852896749 5.172377857311398 6.948320898156602 -0.7944788472571414 -0.3241531166106998 1.1729706865197218
P 5.057060692770809 8.736922269208831 11.423462757051407 0.8263980645632413 -0.25672053688933855 -1.2155923778449904
P 9.292373600665066 2.8545075093249292 3.7036984497224528 -5.158109881175924 -0.6794967998915911 -1.8907689530946723
P 7.135434762304131 6.4471846500908905 9.258599416328831 -0.02671221918386367 -0.6543796931089891 -0.4804623048598113
Ni 3.7855060769953286 4.960203593115464 4.963487453219231 1.832489243517173 1.5151513500560936 -0.7647792633101796
Ni 2.998898577167873 1.2776209975222212 3.492613525044483 2.373798247350712 -3.202551699520007 1.205794417917962
Ni 1.5923366822114593 8.802329233080378 3.3128557311747997 -0.6653194799499444 -1.0300785430074646 -0.7527200181528004
Ni 4.637986468631869 5.585003638794816 1.6157029682789767 -0.7846040113455907 0.5668958511637076 -0.7627285514287381
Ni 3.824960854746024 3.8886904780424354 13.497806549925029 1.2689502246408402 -1.3108882596355231 1.476455990368425
Ni 7.292759989693122 9.253981138611957 12.408623583748819 -1.379509974568979 -0.5153560314132027 0.3790402555668827
Ni 7.752509722779106 6.683242380365009 0.9228513517546144 -2.055589778359221 0.10966037804232082 1.0884274152600029
Ni 1.7562221749609819 8.587927833343015 8.884190907994007 -1.6031327004630842 1.117623834318301 -2.5280027305519943
Ni 0.19395554998233297 2.3690292355281115 6.478727971462196 -1.7625017585844422 0.7566363224880711 -1.944542804382019
Ni 3.0840981598260235 5.809124295309216 12.642321854947244 -0.45506906159768723 0.10897517904983814 -0.8849605954884823
Ni 2.923474162639265 3.677271017105313 11.25107035201832 -1.1631369882587517 -0.17768816814551977 -0.42777345910652786
Ni 0.891409602673693 2.550480211522807 12.244018698263737 0.5137274946708442 0.023557989825598136 0.4565726427264072
Ni 6.151329728313181 8.732030025864685 0.9229510603332475 -0.7745761947959434 -2.042626276220018 -0.04403939760840157
Ni 1.4919851230245822 5.698913700964041 4.935910110452246 -0.2848553474523417 0.8279355842536903 0.0011276858465399933
Ni 1.3319668321566227 3.669173189550907 8.453005353046711 0.37810308846459395 -0.08565450204602668 -0.008213389048727789
Ni 1.0668351985801503 1.9971535114617445 9.939686352430366 1.0789917237683997 -0.045693902492689044 -0.5858690498321006
Ni 5.173160616246461 3.355435953530498 11.700259362472073 1.3796855809148947 1.3701071931978404 -1.5027678887900764
Ni 2.1202330354417125 7.03578209502356 0.8234577404073148 -0.6792803130054108 -0.21711937755794866 0.8254588405784236
Ni 8.511590200056833 3.88998575770879 1.2461475653415472 0.7929760374593697 -0.7877538698284821 -0.04709926748064791
Ni 0.5440687119421878 5.914321505046486 2.8121807517672517 -0.29684080194899204 0.923653641183306 -1.8363150450211663
Ni 3.465124708585632 2.0544999220138886 7.339886736863313 0.585803743811804 -0.8833942794426269 0.316495600065442
Ni 1.637401232330109 3.958793995524363 0.3013976005226594 -1.1214594060143075 0.6425595605456095 0.8324833515253728
Ni 0.840007500748655 4.755595998625144 11.834245327613925 -0.7636286946455042 1.6646692264149847 -0.1845743537423918
Ni 7.94481681971843 4.218129485557865 6.6179239428015935 -1.1165712246840707 -1.0551830513845764 0.716722774122585
P 0.9994061074596893 7.7268091377445245 5.929267541426821 -0.38735828851427484 1.162955982596197 -0.30574196109336377
P 6.236790230616352 1.6564483664166516 10.97805149031521 1.4713160980386983 0.5013090664018334 0.6680312224541527
P 4.804033867011567 9.352012376669895 7.4214725824379215 0.40357423615250493 -0.03373055948322578 0.42197330748498296
P 2.6596657644053994 5.701634720119261 2.82130548449599 1.7907684667396193 0.3491051585703472 0.3963414658494916
P 0.2090301824734288 5.68273668297273 0.6342900659111196 1.8121075945370275 -0.17889221575594996 -2.113508505052876
P 9.076760788290104 0.5901424619735441 13.580224542796078 1.362019016873067 0.09768006575199306 -1.0297604975464136
P 6.227797821421873 5.142353461016466 4.60830965457834 -0.20721754506320444 0.036888902606549374 0.9198188408182483
P 7.3038211189302675 2.068645494197534 7.295452121316215 0.3784843830634127 0.18227707306778285 -0.3813565624048852
