# total energy = -340887.6373107914 ev
CRYSTAL
PRIMVEC
9.14393825050960 0.00000000000000 0.00000000000000

0.00000000000000 9.14393825050960 0.00000000000000

0.00000000000000 0.00000000000000 13.38307791306897

PRIMCOORD
 96 1
Ni 6.245410380515453 2.384071577589017 11.043033592481418 -0.26207023123702605 -0.33305273309317485 1.1306212750192335
Ni 4.408603504774355 0.8223975730320848 6.001427249236302 0.47479816459549845 -0.07411513394785944 0.21704378712500685
Ni 3.1887198521623388 2.1931644356478164 4.470603977804928 -0.6858479389205995 0.4967150192732478 1.075722823209141
Ni 3.804582378459099 4.6949916495007855 5.047909259853032 0.16926009198282463 -0.36020949601362484 0.6278698197439188
Ni 4.013146465083146 2.8975219959376295 2.47668595574552 -0.19936076802294697 -0.5988649478711364 -0.9346343085645258
Ni 5.330632514145032 4.774077571076101 2.5305931290667267 0.4492336858628328 0.49759999298136237 -0.03291140601604009
Ni 5.28575406541204 2.9620050481921245 0.19419073015228847 1.1052557996712513 1.4965041672685517 1.035031773247682
Ni 6.129190925870723 8.051969108659007 12.64801237400546 -1.2083194983326608 0.19345263006862812 -0.43843582391638036
Ni 2.1380630639964284 6.47018666958522 0.4713736722830581 1.2037293078588172 -1.1532058451879688 0.23487567310010515
Ni 1.3999552277747747 8.245527992681009 12.787745465756322 -0.8795569079744078 2.5066918848893605 -0.5912832788691366
Ni 8.459761320995042 0.5134924804643762 6.626697973556977 0.3887844794378401 -1.2131125488459302 0.8085330113573623
Ni 8.779945461344361 2.8777802333429814 1.1341043682672323 -0.2041982986209064 -1.9703332830825617 1.5795932225802474
Ni 7.223464299296693 0.9731070482098164 4.580813121864451 -0.12594985923096372 -0.9727753384106214 -0.13367216757588593
Ni 0.9738202753901696 7.673245475891468 2.369474194631122 -0.2954246383277558 -0.8648797655782071 0.8562915096885639
Ni 7.884662471236928 4.061591049717904 3.4258139403943337 0.44002373722879057 0.202606014433122 0.6976292478262437
Ni 7.451248944037437 3.799534924567369 12.545671588775347 1.4185583467206926 -0.5390482328238201 0.46717664349449867
Ni 8.228117934329823 7.7313369153374145 8.581564064310587 0.43552996312349507 0.3570575806482044 0.5568304965079055
Ni 7.018192030428121 1.0061806727141427 0.2598039731694971 0.9352071503488603 0.16673424023717737 -0.6829469632237206
Ni 2.5257934759004783 6.514525625963842 9.812365579144934 0.6091010237768477 -0.5512134074314443 -1.8212856614918698
Ni 0.2519145832822058 5.193683751579012 1.213804762490237 0.26752354104211346 -0.32158072789783326 0.6192779643098496
Ni 6.722321621778278 2.0656979370052095 6.8013334774540954 -1.1000215478555055 0.90883740210608 1.1821726647339639
Ni 3.857187454979251 4.732801833997713 0.3408466975216795 -0.7751950593268649 -0.7373221955404915 1.370919918907123
Ni 6.353948927064071 5.728878454990187 4.6979954332026574 -0.9001241906027981 0.7800271906081857 -0.26885640092092405
Ni 5.635674292819162 3.3711048436921405 8.950040085526565 1.4372795772792795 -1.1539005572621481 -0.336992177356897
P 0.47626567922522406 5.952804357806456 12.302474836182228 0.9066733045752255 -0.6851064327688846 -0.11567933054289109
P 4.124135587071952 6.426460357066643 12.467702142055431 0.12294989606237536 1.3947748711478494 0.6600602884335343
P 2.5733419545906897 8.50079017174177 1.3320541714175103 1.2091823605535885 1.9006669289346751 -0.2999850040049285
P 6.752405178488047 8.218653958282829 5.841405587385856 -0.6969144811474062 0.3494915953754884 -0.22125165455876733
P 5.107447270323745 1.221621000871851 12.58832348855429 0.21486194898233962 -1.1244321154893862 -1.1771099054990761
P 4.4058054596822 6.5884086466978635 8.476171946899912 0.13618362114382998 -0.7744669229115888 -0.4886726085847455
P 5.2564568873883015 1.1820368923622497 3.7434880697051027 -1.259401918830773 0.17957767185874876 -0.4495190783137355
P 0.4350210315367491 5.787765417060372 3.4905210191349654 0.1762601774497416 -0.610797180532348 0.23296817166474715
Ni 0.7878307434181216 0.16200223886665693 4.586314115091381 0.007035823800858851 0.36166088374817074 -0.6582494604770406
Ni 2.148560305061114 6.818214101782942 4.660897561492262 -0.1593906553879126 0.1410931426303054 0.1872408448309614
Ni 6.4868835007560515 6.100405808386725 9.21362050517665 -0.3984862801066363 0.21148609053157127 -0.40191895993726906
Ni 8.638653328128756 2.659807034301198 10.576927743000942 0.671722812373127 0.5612473946286786 -0.34167389910328255
Ni 2.762301437693234 5.664029645207306 7.274479244962185 -0.20921066423383325 0.35274352665388287 -0.26740989828238465
Ni 1.0084209375755084 0.4146903993213996 8.682686876971175 -1.3843055961854096 -0.8217857626022105 0.28866572233736737
Ni 1.4031921819009932 1.3207138592498948 11.495835926260664 0.36718489889019346 -0.24058377922847599 -0.04672182953657115
Ni 4.391266597928847 7.258513014454305 1.712993380413248 0.14687349675750833 -0.45481992170135865 -0.8815903934646688
Ni 5.8614929908448286 8.488647021799347 8.1425855363167 0.1869683078958651 -0.6371964964614832 -0.7501144622091532
Ni 5.773674608279292 3.143073312619735 4.588040490625364 -1.0051740664563011 -0.04646703321328772 -0.12762776115401891
Ni 0.5626630937929811 7.61895791474074 6.620514842539609 0.9754274313214879 -0.34744319748689195 0.24266585856848533
Ni 5.402604451793236 4.908182568858919 7.162409309476998 0.21265491402869185 0.6742638336274258 -0.5676291297853063
Ni 0.5420078517711888 7.409131964643761 10.59887593788558 -1.2547060560170002 0.437409182424079 -0.02136972392502771
Ni 4.941813973594034 0.6066820123342659 10.202455127107074 0.23454760033672511 0.48401274121523097 -0.4167549965088371
Ni 8.371083408237796 7.3979672160897705 4.480239859890264 0.20116465400090516 0.15529385961071965 -0.08204698720042643
Ni 7.612374279229789 6.482183516516288 6.683080410951539 -0.9815829093999225 -0.8419023308464275 0.47443101106406677
Ni 2.787648434410401 5.153194393186655 2.8292231782682444 -1.4575529828163347 -0.41295362048487594 -1.5018895999501813
Ni 2.607942616776029 5.050745709485667 11.689756910235769 -1.0063580594620734 0.0325409100504988 -0.2711678226629201
Ni 1.0725656641162462 3.4039590136794344 3.6595092267937996 0.5404541120324111 0.9092811745117179 -0.40184336950432725
Ni 1.7771792546759295 1.4153901954726746 2.420516572111244 -0.12617483075757627 -0.7314631656565532 -0.32636760776351537
Ni 1.2896336132752735 3.646812868589692 8.025176455310893 0.18749461271298032 0.11192886236152336 0.320790370786054
Ni 3.698640710362023 3.2051606530633 7.160013597666067 0.14665675276101195 -0.6381354633359849 -0.7368185164311957
Ni 4.441274795997456 7.560080096608765 5.714935778008103 0.22310876237216412 -0.9306215878607069 0.41125360707463365
Ni 8.526429774481645 7.236759585453533 0.1737512850722441 -0.8860435441400158 1.1155954910343626 0.9497328547688612
P 0.6888951607772842 5.97768501367493 8.240817950109214 -0.24319113494433603 0.3943586310915079 -0.09276591627982733
P 8.800629049574603 2.167890590436327 8.057790139723274 -0.3795714454800044 -0.10837122691725207 -0.0894515071946137
P 1.8828191728120869 3.2606917898105423 10.362357003366974 -0.5441577861362434 0.11771692979821018 0.49379013231696894
P 4.249526411740967 6.379606817680365 3.7400078868225077 0.7837971991735792 1.0400575085970476 0.8243697212793029
P 7.067477857378169 4.335781180872654 10.489268464960253 1.9478204466920264 -0.15162772361304208 -1.7741624827518219
P 6.817610601861105 8.305475651583514 10.340836744790547 -1.1085149300384973 -2.0147493473040914 -0.9554116503211934
P 2.3524426953218165 8.686082935622242 5.9865180579854576 1.362002561812835 -0.8722945699850397 -0.5133816812956513
P 7.122624948720604 4.3705464339457665 1.3068745087695803 0.5091141642685489 -1.3114446463596254 0.616777566485499
Ni 3.2173220908821434 1.6567901642075966 0.4027273849617065 -0.7669528739227307 -0.3160122326711203 -0.18922522225084187
Ni 1.9170997971600878 1.4769288996236603 6.667275113756148 -0.4330275084166156 0.9233754478212549 0.24049173373530192
Ni 7.435932847536263 0.9831836681168574 9.409588816916894 -0.3203342570852419 0.3677564551229473 -1.6693383497558796
Ni 2.8323897240702482 1.7400000019154673 9.169803667669798 0.8676087344735962 0.7549229393413901 0.027566339654042846
Ni 6.710333918785419 2.285234749480844 2.300591079310141 -0.22030857391920772 -0.12193611008588033 0.5167482837750391
Ni 4.729766046512108 7.3944193680644235 10.605005119667513 0.26914950668131066 -0.42643905656582043 -0.3560023999108127
Ni 7.460081988347964 6.323271014370674 11.498352338055962 0.9099391198106909 0.041950890510489044 -0.7350984484162952
Ni 8.009047462702881 4.469090656031231 8.004285299683291 -0.18036777186021194 -0.9417408377023201 0.7377718814834004
Ni 3.573377900827943 9.051886183699535 12.06064235916999 -0.7093743041773138 -0.964268843601507 0.44201942750258066
Ni 0.5203385470019457 4.976506075161469 10.249604015697525 -0.743097664571688 -0.2924850960834575 0.0063079444958988136
Ni 8.716824855883104 2.614453100781304 5.510241406034383 1.1512752038241592 0.863687545042319 -0.035171919915442655
Ni 3.700231755610503 2.8973208292970165 11.522428327361986 0.7100826430982481 -0.6080841524765592 0.07324352997618354
Ni 0.828827590381115 3.5123969769077465 12.798410955284066 1.3885219482596023 0.6708928602726639 -2.294875407601564
Ni 3.3802396379635864 8.679444436482031 8.410153627420016 0.06454805908471464 -0.8178946550779205 -1.2206677354853688
Ni 5.965679022805651 7.96945421025507 3.511894060306216 -0.22505045947956723 0.6327783127891297 0.5803738310454843
Ni 3.420728996355944 -0.12698004112985292 3.8346000988137585 -0.07874029142469666 -0.7147119143401433 -0.7104281993631248
Ni 3.648239322950398 4.250349366179836 9.31420748305815 -1.4216976636806224 1.1153970018703112 0.37409422441551704
Ni 5.240985343937564 5.039041468577308 11.145667898128062 -1.8577534174006005 -0.8410021876296613 -0.2712567828323006
Ni 8.217465246315573 8.983105480486502 2.2991591385865084 -0.31157090907031504 0.2917744431696781 -0.06671112817430445
Ni 5.124299548444141 0.5912561885745758 1.607053541103814 -1.0231800161154185 -0.932157307778943 0.2742225503288438
Ni 6.087869469101286 5.504157029549677 -0.08099609026731315 -0.7814626375031316 2.109754694437399 0.906186337636478
Ni 8.254982824789792 0.09527800735697509 11.467785067014903 1.1443478805767064 0.5604837769897767 1.155737096250255
Ni 0.3572984711484929 5.135409433368873 6.05847902290781 0.285057950381451 -0.4312179660117025 -0.9969290528386896
Ni 7.466848502623111 6.227497405562736 2.4381963766396137 0.34277690235947417 0.4111186241586661 -0.12622188194542777
P 8.810870260369418 1.7186489061959205 3.184731266315287 0.0530562563950312 0.9923869419939618 0.7500859229640631
P 2.1302175650125434 3.531937572861782 1.207872175379812 -0.15801357253472786 -0.2275997082639822 0.7472775069809904
P 4.879452315004179 1.326721426653639 8.069754982870608 -0.04454590493117489 1.3782133672447425 0.4690098400484955
P 0.02314147882099777 0.936686742320756 13.258508322966973 0.7029362618614539 0.35570980837105837 0.05708183261465653
P 6.649023813089674 7.8519728921374075 1.3113788127316568 -0.9944384252063517 0.6377564827300113 0.058182521878003025
P 1.9152527216417372 3.5773372260727245 5.711094409566226 0.6163106541514095 0.026019563992213255 0.5744134996969914
P 7.165656321935247 4.15824247659397 5.8437345484478564 0.7433881992289132 0.4132433838111529 1.1572923565525164
P 2.310572602259801 8.620868368310973 10.31254448557605 -0.04670228915254537 1.1571779424618394 0.5810880835036896
