# total energy = -340891.47280228685 ev
CRYSTAL
PRIMVEC
9.11354383166584 0.00000000000000 0.00000000000000
0.00000000000000 9.11354383166584 0.00000000000000
0.00000000000000 0.00000000000000 13.33859260877552
PRIMCOORD
 96 1
Ni 6.481689095209241 1.660004673165045 11.496119501731009 -0.06447812507872767 0.4817743388030155 0.9059297415409817
Ni 4.737967408161484 0.6525042223343364 6.0612029405468375 -0.08499758518831814 -1.9818839640346384 0.49967744433568145
Ni 2.9028733303900127 1.5414101269364673 4.985819346932897 -0.803623746981203 1.0081120660387024 0.14173900374442042
Ni 3.5454419672099866 4.489832949530463 5.200623752965199 -1.2087822969016924 -0.38158616191718797 -1.0393483983451648
Ni 5.37064784989516 4.570269087624171 2.5027204034299517 -0.17859602467176985 -0.5612119134050528 -0.11946862238199425
Ni 7.400115591077306 6.147395192941472 2.5970638094514866 0.3190823869560118 0.14093064891051213 -0.9312872464691639
Ni 5.042396227205471 4.773801862612477 11.334788814287519 0.13266506646761023 -0.33656254601864616 0.7807013338570749
Ni 5.602277680598728 8.014869692041627 12.623870429709356 -0.09527608429619075 -0.2947358397908472 -0.6115613123918823
Ni 1.8777910307477945 6.566381258284793 0.3299403623666383 0.29410129153064185 0.009317163635867824 0.1426514882563608
Ni 2.5295278926892584 1.3514018510339378 0.49360776245540783 1.023855187805572 0.5295091829851332 0.028476510173138056
Ni 0.753508717561932 9.552816672311925 5.058794226669783 -0.33398501509945705 -0.910649001393522 -1.097237043131833
Ni 8.571534064452889 2.256805092728436 1.2408773478919202 0.9960294238425556 -0.6864498341706564 0.011545281635438182
Ni 6.824413025545971 0.6803397193408639 4.702667918734976 -0.3301535571685088 -0.25846734437711616 0.09026320446263164
Ni 0.5927521833815163 7.226930917137272 2.269481120881001 -0.14447234351518345 0.6289046887663363 0.7591176941490282
Ni 8.030945983407738 3.8721898551630485 3.45358838137055 -0.43696052492243453 1.0679195251146383 0.755314518352854
Ni 7.967205857662509 3.7532945619871456 12.5804808473998 -0.06740275492469036 -0.13823664701811678 -1.3195508204065274
Ni 7.979554709590559 9.118009494830527 7.00883014229141 0.01469539722864566 -1.4414200818102143 -0.88070104888118
Ni 6.692986609564852 0.7131785519256203 0.5359383509686252 0.971553035967746 0.5245847491003224 -1.7652356125758373
Ni 1.9259925642145543 6.254798307312009 9.374175719663903 -0.020752659166319097 0.9416860732049847 0.413999545250887
Ni 0.1846950798331172 4.724051026689799 1.1077230039952588 0.4677356013217622 1.0204790722444876 0.605606380360028
Ni 6.374067255786104 1.9484939040007956 7.194956959864672 0.4722969954401995 0.7435370661019517 -1.179315654901143
Ni 3.5843112317658066 4.2648742329312 0.5894348534170807 -0.16425158302463969 0.1312213920425482 0.138726956390974
Ni 6.255937500294302 5.638248838207595 4.620835585722171 -0.6680026832090625 0.173915588476965 0.5010825522133242
Ni 5.397013332277337 2.8450114404334124 9.45117969714056 -0.41939886188958736 -0.7426328091201275 -0.5326225318031343
P 0.04591585666708828 5.778351347941856 12.441892097300409 0.3552948323208268 -0.6361050631695173 0.295433122968188
P 3.991932707917777 6.079125635898649 12.799126612168392 0.18795278329632148 1.3076941781782574 -0.27780332570156674
P 2.3360473565767017 8.461497135907292 1.5366191369301379 0.5962277673586054 -0.1260233927813765 0.08092650044273805
P 6.4495365124770165 7.788224969828571 5.594045416431489 -0.08177136494153658 -0.22523943556192175 0.7629211270555184
P 4.655079726769882 1.411697057200715 12.910516901976951 -0.06285858719743367 -1.3499885680710944 -0.40787800573418137
P 4.098141948042871 6.211545428160328 8.274422509772762 -0.47281147318277283 0.09910985621998415 -0.3824598227713929
P 4.650568522560004 1.0211725893269903 3.8242407668611644 0.6255866801366968 -1.347448318147744 -1.0443944454095044
P 0.20613924853179108 5.652547988521331 3.8442358820863625 0.01783754240205315 0.31032572380930423 -0.3482896046475873
Ni 1.1228979658737805 0.9644316652649658 2.538760823972143 -0.010580603729323713 0.61116896204947 1.1317808425449734
Ni 1.8318861103333361 6.580771544037113 5.003586200684731 -0.32851987821982775 -0.4294495612573701 -0.46637060265343555
Ni 6.1788369192527455 5.772299954819918 9.211778747588987 -0.5900213814375773 0.0747342555890971 -0.7562827958033943
Ni 8.492392049587064 2.1479711519721403 10.317214252075802 0.7533946756223219 0.6761412531557968 0.33023326136650866
Ni 2.1989158621402605 5.389622248208223 7.192476253226432 1.3100449377986212 -0.9953799631840147 -0.17835742629840248
Ni 0.5628378870209013 0.026277081006751548 9.216807601090018 0.7367987189368537 0.386848695867708 0.0019116152004160626
Ni 1.3512469207883462 0.9263643925686799 11.56808095539085 0.9025142881015297 1.064020190060232 -0.8299634133169964
Ni 4.100329198568872 6.881773670590364 1.7129151747434093 -0.3046842092528107 0.18269410600054342 -1.1603532548660274
Ni 5.613013435263851 8.041554148458845 7.777960385380922 0.028514305389608956 -0.5757237338679826 0.06233896724853779
Ni 5.230135230687274 2.8023327145448063 4.768239866795732 1.0357048880553066 1.4083495245084907 0.5631222430538882
Ni 0.7419317827986829 7.335855993332151 7.251245852151323 -0.39866728576919086 1.5091822769568526 -0.4027499404789967
Ni 5.092575399689491 4.869120417826855 6.842564470848627 1.17465835863479 0.32039622067142887 1.1225235856127636
Ni 8.445347936190313 7.208731170052167 9.527130148947194 -0.6063342596649881 -0.23988341072734168 -0.5860312864415778
Ni 4.429510402732111 0.6451222518090809 10.616239650966179 1.0271896514954437 -2.2908973967904225 0.3881234488150735
Ni 8.396408205671028 7.706294210542095 4.43677571989598 -0.08690251552051485 -0.7814482393254284 0.6256807825123999
Ni 7.440834905036369 6.241009515454341 6.830093497432875 0.05912097453187237 -0.19430777898007182 0.6702601117846715
Ni 2.160347344531766 5.305877893693937 2.5140849926213016 0.21941691534287372 0.30580829555492495 1.0913502453337527
Ni 2.3636340538358964 5.315319525131178 11.5892626540264 -0.2799383697666985 -0.9674148454296564 -0.38004889933705516
Ni 1.3688634010665173 3.2707688688634793 4.142860285046973 -0.6807808088103372 0.13117948306101923 -0.7223167232705947
Ni 3.60065181590381 2.6313444046746324 2.776801121425667 0.37348127342186643 0.3912082583879843 -0.04440320870572353
Ni 0.844832806503199 3.429709073752928 8.393016144646953 0.6051556659758545 -0.17056518394749332 -0.7167040050695077
Ni 3.9728307199906965 2.871932848990949 7.047591867029701 -1.0707911902354785 -0.799820571185029 0.6575102683181709
Ni 4.15518361905222 6.930312405179882 5.755095406724144 0.07500036476629018 0.6329675459818002 0.5152986958127062
Ni 1.047519844621451 7.446558210579406 11.513806156296889 -0.5456868211862602 0.4239273458875602 -0.5318817969823678
P 0.050964759964608614 5.62823305350728 8.292056305784264 -0.21602897270724733 -1.3063050111402148 -0.8974530715285381
P 8.5412770988432 1.6457784312021764 8.19431081384041 0.19401698721253038 0.2839366922928142 -0.002770877876917809
P 1.712954362982 3.3190250835933894 10.470195110636281 1.436664826513416 -0.8241707178946194 0.6397043504850014
P 4.041346342717696 5.90190366202937 3.6388084013299076 -0.009043084038874749 0.25320018244090586 1.1597264199153061
P 6.849776018103732 3.908990345263025 10.525069580916119 1.2748246811437465 0.3945051839717012 0.8889180374743336
P 6.224878542825079 7.79838657123062 10.249761268562684 0.3880113487172414 0.6232516042456169 -0.09180278103560964
P 2.3484326626801857 8.438822638787743 6.1143977846935815 0.14219100368017448 0.35809476366346715 -1.091398324962869
P 7.316507939720895 3.9633890885534564 1.3423694177159373 -2.026143448073646 1.5205792059398844 0.7844857406001715
Ni 5.637483300523495 3.200995577084029 0.2297424157705057 0.14471068477823465 -0.18465482927134005 -0.5054279736662134
Ni 1.6451587102198093 1.2595099883102963 7.153821156951283 0.4528980220882975 -0.4603909880312329 1.0671926742509426
Ni 6.801246397058072 0.6152690161923169 9.170575504451046 -0.11034660547606802 -0.8145074837732424 1.2249673913019872
Ni 2.9335677461049015 1.8156093210023412 9.298519635323892 -1.3740970310835237 -0.058368155526247856 -0.7291136915877701
Ni 6.348786285123069 2.1495113408842 2.498184592651656 -0.21093330335189478 -0.15407618515353463 0.671954468767959
Ni 4.157735411332555 6.891907931360837 10.443037661292815 0.03984027192538945 0.8312186258803362 0.028747504446337585
Ni 8.083485563751067 7.3577284985921665 0.3693245421504544 -0.49278148854679654 -0.6813341102106459 -0.5365444925653599
Ni 7.4517984982979515 3.6975470142056803 8.406994498216875 0.8460101823672139 0.9389884717681635 -0.6632140035711674
Ni 3.1515454881086757 8.332467581960914 12.379214610769065 0.47477399622578237 0.1371552410284799 1.0538918433769786
Ni 0.08909400475913125 4.660219765505986 10.313693690083324 -1.2177657313472254 1.2025232033658582 1.2737980396514448
Ni 8.847364582869405 2.212358339331312 6.073034143183734 -1.6452980209772246 1.3004927753338118 -0.5639869050470286
Ni 3.7143341619927424 2.693562568595519 11.414194210570848 -0.749911859280044 1.1631354455968548 1.4374824373187052
Ni 1.4713816559289834 3.306986092156522 12.850587148918894 -0.5599829260939582 -0.15915462811770656 -0.8887105494492179
Ni 3.0500297230706277 8.383858855778094 8.160644471473317 0.4604442098666715 -0.2514865421839088 0.5258006237852945
Ni 5.30718113046568 7.775229056286578 3.6704205509113312 0.5691427382163553 0.9779016038935933 -0.2622954598739547
Ni 2.810644266543612 8.545250603965435 3.777289611611769 0.5333085021265654 -0.22018773207062725 -0.5991467407776133
Ni 3.6193710349888404 4.304955598820179 9.461983803384623 -1.2494697473187255 0.8936419253125641 -0.8652206938573938
Ni 7.236691522609553 6.180942147884022 11.345980246145562 0.23567451485231672 -1.0078012196665032 1.4142463496089
Ni 0.5972752351984104 -0.05656138724801516 0.2875423336288693 -0.08764427878254583 -1.4286082747575266 0.8450853565600995
Ni 4.637973604947779 0.4072988566993852 1.5626957199720062 -1.3510463199116474 -0.7263713529559427 1.0171793184472933
Ni 6.0353897389224755 5.691070938410533 0.30968368843270616 0.03849378519982403 0.21093716000663673 0.014976161693858079
Ni 8.003568897657285 8.620911245077375 11.441791844082672 -0.48286808608782644 0.48682449963241314 0.09598288055522824
Ni 0.1555663709530911 4.694541371676495 6.018853213591517 -1.0480837213356338 0.42325963039657427 -0.3741795850404717
Ni 7.848356132205898 8.929878608962815 2.364679377316448 0.7451805152426457 0.3337073359580382 1.0700062324403379
P 8.288512959932142 1.8197195292824524 3.6381276196036896 1.613354892411725 -1.9132496506956922 -0.19875115946340607
P 1.919840922110175 3.335228964573518 1.720118519809041 -1.151529228816494 -1.2548875759001872 -0.7658339298269391
P 4.736919350617775 0.971731613895496 8.342569033973499 0.06799282310020549 0.2310735257451956 -0.6818894684934838
P 8.620956812796665 1.320999068722516 12.52259070545724 -2.127073902442137 1.8406879772778817 -0.31154314115617315
P 6.1788004650773125 7.830712311296151 1.4788365348051054 0.35424839333418345 -0.6045604555940168 -0.03294174503334327
P 1.8103690332837956 3.2746694656348487 6.334243803188317 1.2891678372392958 0.04237537964241734 -0.571941641117731
P 6.9099618617442085 4.011089377108008 5.904808148457023 0.8675951076268414 -0.48265931251113003 0.6338059827226956
P 2.5043289439209486 8.628931163672714 10.316920795963561 -0.2929247547240375 -0.28883207271190253 -0.575414687267996
