# total energy = -381158.4196805734 ev
CRYSTAL
PRIMVEC
9.31606995587622 0.00000000000000 0.00000000000000

0.00000000000000 9.31606995587622 0.00000000000000

0.00000000000000 0.00000000000000 13.63501006321272

PRIMCOORD
 96 1
Ni 1.4411587694140646 0.7576368480737339 12.765205218028138 -0.8593809472471651 -1.0747177789833944 -1.260345513690965
Ni 3.4875453444194444 6.947403328708707 12.503904359389042 0.27182216841746737 2.1713773523452025 1.230046091376475
Ni 6.651524944544987 7.672976126952004 10.50468411534029 0.8213476466235274 0.44528729962057506 -0.5781436561633849
Ni 6.842439167676824 5.298468249407884 1.735532608267883 -0.7560256854872657 -0.30817756711804994 0.6080674403060109
Ni 7.529313011014072 0.5603019894769854 1.0817075233632794 -0.8962086575984759 1.4518520757768156 -0.1552851178599713
Ni 0.47562543415018144 6.567903899952622 9.778770348933884 -0.3264162016132637 0.5249922689513862 0.8725735346780392
Ni 2.848966008119498 3.155828038848993 7.349420630335136 1.0603085455365997 1.0308053938711603 -0.07886961791370933
Ni 8.430149034738227 8.850881389448613 11.449099783059388 -0.2867499933718932 0.06368108309872904 2.8324545120790248
Ni 5.160525200468585 3.7502771514152 2.679838346360625 1.9540119202147184 0.8211519856729534 -0.693352989048393
Ni 8.298522281279498 6.37656113759939 12.613134348887819 -1.0160012389787922 -0.1327278013847456 -0.145391255785027
Ni 9.194355575397358 4.304182727209351 11.115683226315403 -0.2141415258765473 0.4500163296651282 1.4128885500294248
Ni 2.900176445076298 6.903627115636121 4.507407205279284 0.4392390365439661 0.9755133061670748 -3.4043367607137305
Ni 0.7299895470446826 0.07558500258419139 5.757246502515192 0.9445934766597668 0.44242746157427676 -0.7143208495493117
Ni 8.406989284642792 0.3993426579207173 3.2487726063277265 0.15461971636183047 -0.892366143923934 1.465395361678889
Ni 3.350794752444028 5.427169756877084 8.312215972617102 0.28375980039531773 -0.2016264241286721 0.20092579851722173
Ni 2.5172859668291676 5.2167942634518605 6.100726278105956 -1.1998628829248754 -0.7977469764854519 -0.341926895654353
Ni 4.473250766120031 0.21352525670248293 0.02335352435206584 -0.6400036268929752 -0.21102123508001078 0.9951709324970024
Ni 4.783326841009995 8.509074780035299 6.949314986278933 -0.3457843217272303 1.1210644845687336 -0.03449494845307608
Ni 0.3787718436867152 8.058149042356568 7.381408288391325 0.4069935462466991 -0.33921798136362225 1.8919303203926257
Ni 9.190200608163824 5.817317453677852 1.2009569461796923 0.5035870638027328 0.535543047884039 -0.23587788911237442
Ni 7.998526194162368 6.75862248561382 2.9910165123351775 1.2851057513547801 1.2007080045339902 1.5280148362823234
Ni 4.984004305533629 4.542208316484635 6.922044986086111 -0.9614102911067893 -1.510674802341979 1.8552098250431404
Ni 5.836312920469723 6.670371354216373 12.37253100303514 0.6349619507040096 0.039489573454190054 0.27490517821816524
Ni 4.033849007068835 7.416607195786972 1.0660220562531895 1.6362289687964209 0.6624616987861752 1.3163153441883655
P 4.290674425665353 2.82625342938552 5.572860049653619 0.2457640378778348 -0.11040316974561631 0.3286656597690727
Ni 6.863987237657008 4.195464189955239 13.331576627129893 0.6159656121071649 -0.4003922388800975 -1.0948934826003207
P 0.8231735375231963 7.701939788676343 2.688142691185673 -0.8072294620545903 0.6088757951399192 0.2760752872668665
Ni 1.1524164948935889 5.422381296881487 3.87992423999248 0.5268542618607893 -0.5611872308147045 -1.319394240224005
P 0.12776710564515611 4.199675053608955 5.320667512683191 1.1430242766692766 -0.964492529576539 1.546223131760234
P 3.2910973756895845 1.4384850573153558 1.4320849172045096 -0.6411061159285346 0.33470595242588164 -0.6563501865717987
P 1.6451061745183508 5.463539694275546 13.241926222013888 -0.7251369663282092 -0.7366804481914345 1.2599572771136107
Ni 2.9091850847956406 7.3226918938110765 9.446239750449783 -1.582827413246829 2.476086758408994 -0.05771972330897156
Ni 1.6800041728520188 0.5345737988741849 3.6870024037691054 -0.537384471968152 -1.507287631037301 -1.926721974150514
Ni 4.852396184214962 5.551753561392872 0.420631741154059 1.7742853814829311 -0.9762208737570607 -0.28538036671787625
Ni 6.803283725339289 3.4218391024954293 6.731972935685019 1.6418188041793726 -0.2092795697985557 -1.3449666893764707
Ni 6.2988185331961715 8.263279588354708 2.0596778121176715 -0.5691283400386521 -1.5605282355289962 -0.9197288522076031
Ni 7.336395832825712 9.215195624055237 7.487024574325332 -0.23716626890649475 -0.7292962399122214 1.5127669089843172
Ni 2.932344834891075 0.9207025430638626 7.125615090354168 0.693574875251212 -1.783382458688193 -0.009715684625867138
Ni 0.5532003492928543 7.031937348164046 5.31937164734197 0.6199163692247969 0.8002118930861767 -0.45992690391062085
Ni 1.5806017056282506 3.1507507806824555 2.5623179861418435 0.18385495907786398 -0.08421519849633884 0.29948543866069066
Ni 2.1364729721988045 2.2584110128259742 5.013934043720115 -0.46861234749976066 1.51836265790454 1.7584844098949326
Ni 2.1313025533319636 3.141602399912658 11.306927238326312 -2.1287767440658563 0.7895014486472081 0.7434936144585259
Ni 5.155652895842714 7.025201829532108 8.666562012291257 0.4582875685349849 0.657854539031467 0.45229664105887263
Ni 0.9709115024924005 7.428857827876874 12.281367668146208 -0.23604398237659346 0.9061094616519555 0.4198130666088705
Ni 2.123206888475595 2.705079306500838 13.498973363077127 0.764559948210522 0.9240074249782989 2.377148651880183
Ni 2.1507638236253515 5.835055251015627 11.186108057709786 -1.7888607081939447 -2.0048122906960377 -2.3405361428634723
Ni 4.68866625343167 3.194014609903372 0.3299714740467653 0.7871139222516379 -2.215794445007997 -0.6927040426104845
Ni 0.5415450140778911 1.2325626453646366 1.5994825847587484 0.6724954288730935 0.5089866375517492 -0.9797635968029964
Ni 1.9958003147406131 8.359822022079161 0.6269994612522288 0.5093226807349294 0.6443868435623354 1.2108646333520179
Ni 6.171095213080157 7.348348350674644 4.782016069956725 1.0761185159856628 0.761096929362586 -0.5899859002139517
Ni 0.7306314242697732 5.8281147788430205 7.583929403173965 -0.16877903858134805 -0.5743893313272753 -1.0037139369710069
Ni 8.03110449105848 5.740431927717425 5.605516601537986 -1.4133698605412175 0.006472237987904981 0.791432861341966
Ni 5.9622382390698805 0.3428378983656731 3.8026949510479326 0.3352163164033969 -0.7704410895816474 0.3903186566941794
Ni 3.3369138080988154 4.444138047275207 1.4428291407705052 -2.5658012894570064 -0.9204207360683051 0.8802217952519162
Ni 6.031223737644576 0.7109409786536386 12.060547928609965 1.7880492680362432 0.3801468583675002 0.8871290638947108
Ni 2.183826556163042 6.262141165486708 1.7878358202392421 -0.7193650968414385 0.44211327276796764 0.06076185256940503
P 7.2033250885122815 0.7210032658934129 9.706599686015812 -1.7897955613033885 -1.2358429005639104 1.0159259056561665
Ni 7.6997039318690605 2.205914958204987 8.310498089303506 1.4843716456710758 -0.2786700445772362 0.41233964104996085
P 5.061840070637152 6.587653968416951 2.974777670665285 0.2479371342697536 -0.4141743802658544 -0.0755176707223409
Ni 8.338860864510888 1.6841591400855522 12.784580780477247 0.5211775231909863 0.3672430058216385 0.4405181603667059
P 4.474992871215705 3.8763142628557214 9.520809301400664 0.9741166829298643 1.061526991324733 -0.25596026168454633
P 6.982347907392526 8.288432977436637 13.29323540931301 -0.1919045688552179 -0.21664038103900107 -0.5291834242145983
P 0.453445734621939 2.6286595840419285 9.890577163403055 -0.46987321649005526 -0.6991598255381571 -1.1115349478117438
Ni 3.817269011003402 2.0399584866844425 3.4664966157928854 0.2292297876682375 0.36686273966408434 -1.6325214380378468
Ni 8.541531968021017 4.195780936336271 3.4531485506534088 -1.0539918592899524 -0.1275956223645028 -1.671832062712011
Ni 5.232361416472565 1.7084554507246887 8.275905658066833 0.16016224344661448 0.14847889357141528 0.12212868571266063
Ni 5.986553181849078 4.732386570084074 4.805577342670467 -0.05761276541746207 -0.17463395470022827 -1.4868527602217168
Ni 9.055266649844325 8.951299308305689 9.394890504049531 -0.14349223899010127 -0.07216803752381763 -1.5561943840403327
Ni 3.3801869533897624 4.292705328931968 3.9167245798263437 -0.5255967353046045 1.3327292667700144 1.1207497815417924
Ni 1.7232214217227837 0.7543082162518919 9.63163513369564 -0.9454270283046555 -1.7226794843811815 0.3902016715003409
Ni 3.792916803944084 8.979182305906507 2.7671299225449464 0.09216324969882192 -0.07611956597239794 -1.3622696994312926
Ni 7.126728360722795 5.423555121705311 10.462320218484304 -0.6043568242236431 -0.49383461240165916 0.8261113865607579
Ni 6.061566177733407 1.2092911024288377 5.906113575172074 -1.4597183658987698 1.669512156329583 1.1747581174374477
Ni 9.072883338271705 2.0087403360127607 5.357808820680165 -1.3714508517099282 1.7197813368977801 -0.4325780795840228
Ni 4.408653136529627 6.0666061716198225 10.549788799999202 1.5388126982287755 -1.7551301487107192 0.04795750171588515
Ni 8.487647818965508 4.446085105911548 8.84583580592018 -0.38662655255457284 -0.4131505669870304 -0.7966704555918215
Ni 4.519896328761962 6.400512753647404 5.950195355341655 -0.274920604837133 1.1831350286472335 0.5611466073847562
Ni 5.282155810784753 3.1590513990794915 11.727308377196556 -0.05558210814067847 -0.07520219636445112 -1.1894303747376418
Ni 3.6420057855225445 4.533199676765293 12.227481655876694 0.016358386753365376 0.05552014455449148 1.863668754443771
Ni 3.636248454243792 1.3812191748388325 11.714982284939408 -0.128967563011365 -0.9628616788413353 0.9543297301109243
Ni 5.703950197478599 1.5870670582293092 1.8174376327606596 -2.012857015377385 -0.08684775102317946 0.6513907856839943
Ni 9.047506363509049 8.583724449188443 0.533194088902691 1.2066133142748316 -2.864760166190266 -0.9716111428991913
Ni -0.10428129309865938 3.5758057918869217 0.6663207296363038 0.5269105690200216 -0.0939103142969157 -0.29280545553735376
Ni 0.9249888668848238 1.9185980423991538 7.550372918924666 -1.5595787271315333 0.3145328199121164 0.9085242417410354
Ni 1.5388377636822193 4.412398196681825 9.26055836385399 0.2076196655976295 -0.7365732331896089 -0.028254623970319078
Ni 7.852347739316243 6.907176538317683 8.563072585145177 -0.11502678456055673 -0.1131722478503212 -0.31625108815480374
Ni 4.958459641510427 9.121364166709615 10.401767626501076 -1.8960404859062574 -0.07054901386315592 -2.0577299646306755
Ni 7.202477326139521 2.517388443599502 10.907080581016954 1.794717424085038 0.5079350563587833 -1.0085836063584823
P 2.449157546697264 8.607676065236458 11.31235478072599 0.9327903133772517 1.2127600506025178 -0.8418894753306211
Ni 3.907187718936281 0.3651806291194466 4.846441352251567 -0.625501062401426 -1.3436991355179568 3.5105230641645218
P 2.5644439133227683 7.794765110458688 6.341138644523014 0.03217607051191233 1.0471313847246935 1.2834147368056024
Ni 3.180776474390253 2.3000911101417327 9.693442600311958 2.1644240609558207 0.20392061947948753 -2.8147524668135717
P 7.411539253690465 2.661126088097676 1.233929312838088 0.1541774866180893 1.5810299550267741 0.05757651286288794
P 7.769527876746486 9.377649253244373 5.473788302915928 1.0641353754818577 -0.37154600407236654 -2.3064605413360018
P 6.405310529713032 6.305563367898141 7.22285995575891 0.42454363931532046 -0.9490360858121526 -2.6893566803138653
Ni 7.014376556156848 2.4407637675999236 3.8438868862941007 -0.24534520517286135 0.4580679963250111 -0.2682146535718671
