# total energy = -381174.81368709187 ev
CRYSTAL
PRIMVEC
9.17650355047861 0.00000000000000 0.00000000000000

0.00000000000000 9.17650355047861 0.00000000000000

0.00000000000000 0.00000000000000 13.43074052131940

PRIMCOORD
 96 1
Ni 3.724705961490119 8.94966926214608 6.769576185911092 0.3193793493711403 -0.720377854376669 -0.6763199448255062
Ni 2.5125632947352043 1.8539197742620948 12.734302378083425 -2.140128935853882 2.163535744813597 -1.3482906115433813
Ni 7.458625132239103 6.70245373526877 0.06033092059004471 -0.6628838739252584 -0.5758718294100728 0.3839767736365516
Ni 6.548251774724986 1.3567735344132454 11.024394975160886 0.3967705829671102 -0.4488053400761625 1.1321299983542759
Ni 2.5342565484084676 5.986952600684181 0.1890176138586571 -0.9230406901896555 0.01498130390018065 2.0905351840861544
Ni 8.972876638854911 4.757025870638749 9.641847396080937 -0.37532526860914067 1.0108772874886653 1.124877944777553
Ni 0.8535056492490684 0.24053542073135767 11.838283824596838 0.40370613374467895 -1.263340848873863 0.40647186941527413
Ni 3.1665543280626522 4.98440126806519 6.880071379145069 -0.7259694895318335 0.8970751193638292 -0.9063691430712456
Ni 4.7766177050687055 2.3905525075779708 12.797588132718642 -0.5911038158684787 -0.01966431119814678 -0.43459999511005803
Ni 8.34736947160268 3.668178701495492 0.8460910346263965 -0.8240843288284001 0.5567744464589895 -0.5134230760565481
Ni 4.690826576222964 9.194764487340315 2.345571123967311 0.3406827388346068 -0.608171827094359 0.6275795421970095
Ni 6.757852285364153 3.24344424875989 4.137634842799896 -0.0032627299116718004 -0.39862229146386835 -0.5992058761503228
Ni 3.041129881697951 2.0238686143758113 8.082794365318087 -0.336200277583221 -0.27635836572492406 0.4277225512639343
Ni 4.326923163504307 9.05894306279803 8.983902207504839 -0.03798033589851523 -0.10590425343399826 0.3909388067766815
Ni 6.8621065387406075 7.82293231110058 7.793777642638091 0.9131990215088853 0.3382095947037659 0.04441400733900093
Ni 3.86715282137593 6.547398359923118 2.1426868960538035 -0.467053230542757 -0.14728358771173344 0.8762964920555812
Ni 8.942484060104555 4.083571473926788 3.280055743759981 0.9884495546127686 -0.9749183528955533 0.42091581275474604
Ni 0.3732166458629021 6.773553282417857 12.239634711761287 0.5764053333160395 -0.6892083707524002 -0.6913405866040545
Ni 6.77713211868375 3.564511744326774 10.121956540003485 1.0538139389511916 -0.5341237989390091 0.8176647984553015
Ni 4.7508867899672556 2.1639754659339228 9.735957025119069 -0.948908816205669 1.0384636817473665 0.41954798587294195
Ni 9.354802703948481 1.0579957652306053 4.079493435884318 -3.171345706230848 -0.5244803623119741 -0.30696863441161326
Ni 4.672124862607859 6.506250919368588 6.309318571460358 0.9079192611671848 2.0846751257609513 0.25151816675279265
Ni 3.8744664944628973 7.841046728507948 4.312328852742057 0.14492305789935686 -0.011266574052754792 0.06214587740112523
Ni 5.941115966971005 4.3761092209022285 12.716332031777016 1.7798957856911735 -0.7986723165131987 0.11543790395604636
P 8.013702637079199 4.694882590657643 11.88388186922562 0.46371825263225297 -0.1739425850601585 0.639095513256409
Ni 8.195067047230792 3.027227479280441 8.279393606158491 -0.7912318010747534 -1.0216612654780468 -2.096300882925338
P 0.0965092846369306 2.819398033767728 6.325113168847168 1.0026772681763765 -0.1305009689367559 -0.08571209475683947
Ni 4.925396352194174 6.431811125038001 13.12610419597021 -0.5984908523611693 -0.7535049759479411 0.5628926435415854
P 3.2762043653476844 1.9670110002643324 2.074901901877129 0.450783803958772 -0.17336794350361112 0.5452625891646481
P 3.59216972510986 5.675327726957308 4.533788158525877 -0.38121438040006606 -1.0477314802025375 0.29558661782691675
P 2.388643794902827 7.916404173163123 12.702901301626342 -0.1928972717857904 1.3243968356449192 -0.47460995984409227
Ni 3.8364298885087207 1.0276674220029687 4.459220810800173 -0.39167105695701576 -4.370875374186021e-06 -0.02959262605545226
Ni 6.869282564278887 5.082920206912968 8.153090050782835 -0.10134620174967061 0.933278822977896 -0.5965676671965274
Ni 6.9979371397861385 6.657039220704904 5.748168974422462 -0.44175486098728434 -1.9995803528731368 0.6503541168893638
Ni 4.175455800927795 3.3076981244875485 3.5705893424265214 -0.3933978098401354 0.5632675103825009 1.3131102069875062
Ni 2.5581888688737253 3.8411833171900867 10.386165503808565 -1.4085279590678839 -0.7988895747303274 0.0423039029745336
Ni 0.2195964756249064 1.4770866684699913 0.2987456514212793 -0.4276503032651022 -2.1598863209864674 2.719085574836866
Ni 1.7318172220724022 0.8354637262173417 6.296639396925525 -1.319081851189909 1.1015513542364705 -1.0153741469177546
Ni 1.3683818110192847 4.0840670051020656 7.838502084157866 -0.742506053734276 -1.5324656729648254 0.6704097499886583
Ni 5.603549118568027 5.210730544121598 3.766946323581234 -0.0828280883408251 0.7902583814178905 0.674346108928587
Ni 9.188065639970823 6.279141640536278 4.6388297558808285 0.38550529446593607 0.342358583875133 -0.017657565180763137
Ni 7.542259782822063 1.6908991940990188 5.889312770847358 -1.1815779685727585 1.9206765392873828 -1.9768394596321954
Ni 4.323481974787101 0.4026328446678982 11.356899146723114 -0.439840674683707 1.3263189923682965 1.0280422293037264
Ni 7.152478630950021 0.03260870428423818 1.692662918022877 0.3773371568328469 -0.48661958271045874 0.4809168758987266
Ni 1.9058037236143062 5.9852090650674645 9.421879272074571 0.19095943133312918 -0.9105721254089997 -0.42322183518010337
Ni 7.210942133129528 6.273911033686127 10.533433698499762 -0.4523110392365759 -0.204599390714067 -0.0657276812151126
Ni 1.84751457499647 2.2922996873243227 4.055411538416153 2.0215596853577056 1.4956377055031984 -0.5730685556333228
Ni 9.19825155857375 7.0924000641992375 9.87358163254917 0.19981276795870104 1.9162210746191901 -0.2588553238441542
Ni 7.736902593170445 8.518492904131868 11.888045248748277 1.0987362533851788 -0.013029579490448528 -0.1979389479747559
Ni 8.748667135048303 8.026916801753268 3.062369816110867 -0.07330112268699635 -0.025535168156626993 -1.1376712398874793
Ni 5.169665692096282 7.4439794330586775 11.120853789029965 -0.2174489929832255 0.128851606258791 -0.959314070699393
Ni 1.3361447551165049 4.280636881132082 5.318143349915285 -0.3297882034092901 0.5766562729845811 0.10351904103127335
Ni 8.749924315992986 0.25158209533874926 9.784575974616395 0.051625437485775603 1.2228302903543262 0.043094002975996755
Ni 0.20292552217811435 8.294714695977815 0.636524477049238 0.30616285068086624 -0.025837272778078083 0.29098640005074405
Ni 6.71724625850113 1.7342031129163313 0.258834285853969 2.4063892939128557 0.3187031492397221 -1.9826992608470824
Ni 7.8470206321210165 8.583747018713328 5.104984191317364 0.29403495706908067 1.159290617929468 0.37160333967286324
P 5.669757589487058 8.51258323604152 5.74168210427795 -0.2996250495623485 0.9233533363340678 -0.26499203286951134
Ni 2.1339866533263834 7.0592361814686235 6.143610193496564 0.4853836534208286 -1.3324978674854986 1.8643688658345892
P 0.2743673528982718 8.179999228901055 6.468633679612747 0.7438592253280608 -0.9290956381344838 0.078147137925388
Ni 3.2878218184569703 2.962037600221702 6.002721503861903 -0.9018414304042209 -0.19595688454772056 -1.2956380183446718
P 8.004012249651549 2.200323595290857 2.4790057400153422 -0.385731037323497 -0.6486240215721345 0.06794294369887653
P 1.5583629577187592 7.226661483189723 2.4497538006184474 0.1165473349701412 -0.604674869684694 -0.4801589146867795
P 6.6929377014027915 8.52064938239465 9.981134838842518 -0.005289530533713471 -0.22377699208378232 -0.5052603377400975
Ni 3.6428607290401067 4.1697847219218405 1.1786053003421932 0.6346799006872166 -1.16004626514857 -0.721475458316222
Ni 9.18907505532787 6.149881415814799 7.487167727935091 -0.33948743297492506 0.40993951624890046 -0.32772900688741624
Ni 5.066641090154774 1.7421316117207724 6.432089173086352 1.7968133873821184 -0.5858459099036492 0.17290437360363126
Ni 7.779077802088514 5.793025557588978 2.5058130589475343 -1.257902194356795 1.2961625233895742 0.9527114777812107
Ni 2.1991673558818765 4.743692411422485 3.0523233803572767 -0.28686877833794466 0.84833754494881 0.025770166985568523
Ni 6.358747806194297 0.9284051863922738 8.486951427175127 0.6610905294702614 0.9938380726181916 -0.1850312387741523
Ni 4.016472882192906 4.377816050505962 8.805703690973074 1.327106264156282 -0.25619114674842974 -0.818177476425662
Ni 3.0642454933743255 6.08172752620764 11.511608567896396 0.39789569771048894 -0.1911679477995095 -2.058557088517661
Ni 1.5597394332056416 8.21643912329045 4.40312025820648 -0.40340814288828586 1.6209841268222083 -0.9578793951353956
Ni 5.462065791523033 4.345817583687575 6.0302280723414325 0.35000992977280365 -1.183158168575685 0.45715782580591585
Ni 8.876238883172539 2.3856339018381783 11.987029436310623 -1.6741535117563362 1.8179859076946756 -3.6998822408900667
Ni 2.72005320962782 8.213768760845896 10.448740079442228 -1.0287202292073572 -1.1368171194173002 0.8649640977618974
Ni 8.010288977871733 4.640273219841406 5.735665071099625 0.20461533155366698 -1.8335127996856808 0.347051361365112
Ni 1.7676147612345838 0.2677373293031228 2.2505089738922557 0.04931118753030217 0.4290207012500676 0.079704712220495
Ni 6.326308867220107 0.853575390673737 3.8612036943216252 0.19593811549464318 0.39689476724980033 0.8427376822635292
Ni 5.821096481018128 8.77130556855589 13.052866523564832 -0.686285026458018 0.2896643388052108 0.8786205122030675
Ni 5.993871684131576 4.795034947083189 1.5453809585768115 -0.4390333482910632 0.38166483767392334 -0.35165055070002016
Ni 1.1246538848086851 4.246665466115831 12.62532589613664 -0.3557247207693938 -0.10171361239141838 0.1777727574395261
Ni 5.151789863773304 6.733158315129488 8.799794022882727 -0.6450149640646375 -0.9338953735159723 0.5109483892638104
Ni 2.1927162741000217 1.3841378670924624 10.311517402854298 -0.041951918951753556 0.6324078168235883 -0.9154896173152749
Ni 6.167179124433285 7.507627659572107 3.707596371188174 0.34821555687654226 0.4371888388831567 -1.4502716186635733
Ni 5.223540942652848 4.999258026820271 10.680997376595476 -2.094337331441064 0.9265682437269396 0.1940946345280012
Ni 3.616202987110822 0.46646001299462364 0.45297972972642436 0.035019196387662266 -1.8949017443161236 -0.677545332592175
Ni 8.410604755470045 0.572591778935185 7.417488703488467 2.12246931379059 -1.2171424959409298 1.6284943191563246
Ni 1.3948468463804056 2.865418197545821 1.5240933063470166 0.6100561886012655 1.0467660309654747 0.7626187653237512
P 5.716080577872266 7.365969978965443 1.3932914290802287 1.3034238329376777 0.5866933455056089 0.8248037234929279
Ni 5.558143780507408 2.4534115548122553 1.96149225121226 -0.2233447896423702 -0.22700064122740263 0.3660908944950663
P 3.1072465875845237 7.1648026748092395 8.279124734613386 0.9098211061755879 0.8653327939552259 -1.1082310802494915
Ni 1.6998004022475235 8.916716438990122 8.469344470397253 -0.3630099415768974 -0.10405228782692404 -0.7899138535942783
P 5.9242220244953385 3.11200001626589 8.03870126722163 -0.9382803899575454 -0.0015508894268876515 -0.2923097468478579
P 3.3698046984556713 4.085324186046751 12.32146801475708 0.6352797390547447 -0.4443997548092991 1.1589404336789009
P 0.4861931655745661 2.7811870742518794 9.668293160785241 2.3860819498140713 -1.9396523090589368 1.8638811275648932
Ni 0.34708563521993124 5.896206160085664 1.1310214604110018 1.1560985933547314 -0.42721810082369005 0.12535490595944218
