# total energy = -340867.5357767591 ev
CRYSTAL
PRIMVEC
9.25485147755368 0.00000000000000 0.00000000000000
0.00000000000000 9.25485147755368 0.00000000000000
0.00000000000000 0.00000000000000 13.54541063212666
PRIMCOORD
 96 1
Ni 0.7320152665905322 2.6557352060078507 4.780365017646493 0.21940688804054473 -0.620808284911447 1.0791336486629028
Ni 2.5122572410977613 4.172873779815895 4.526063906338134 -1.109422015233799 2.057391350344334 -1.0155052731789802
Ni 3.430606914068367 4.665694629423214 10.132698376089824 -2.173888291692514 -0.5521590591741652 -0.007362868122974416
Ni 0.44779969833971855 0.19789834349902802 0.21374542595503954 1.1498281869649876 -0.4290366420896676 0.8363050392643081
Ni -0.21743996272805816 7.681711954761833 5.931034603805225 0.3044839203165466 -0.4648346256248833 -0.03139111271677174
Ni 9.175704144628694 0.060572078471266624 4.223838396804019 1.33471133019705 1.128956228611985 0.3096407819271377
Ni 6.82802593017069 9.217462035209508 4.5203610667601435 -0.5298601385666487 -1.577441466344567 0.6320666314340857
Ni 4.219268351066252 8.284212051105236 6.5665032581309015 -1.00889059607594 0.5019006772392454 -1.3124928851184816
Ni 6.047406959244331 2.1488007076559086 4.481052009922169 -0.37108680504776087 1.237781769457836 -1.4112759541266662
Ni -0.0033224917372587383 4.67728170367126 2.506551625064279 0.9929752103972641 1.1379931420032723 -0.1721996342271228
Ni 7.2206722656719124 0.4376212125106457 8.051771824845842 1.793221299155486 -1.2325158930732063 -1.9742112779807288
Ni 6.157585967968747 3.403610511846685 6.582297587932589 0.6882696609882146 0.7482851223098984 -0.8136556772959085
Ni 5.339466338214052 4.216510405278778 2.1080451175072557 0.9318857992851112 0.26204323465383256 0.6687966398652675
Ni 5.876118165168608 3.8880927401301326 13.283076711992086 1.528634215033877 1.130480121455679 1.408688653015464
Ni 7.765801536724878 5.522740165158161 7.129491616385505 1.1412800402846603 0.4420055435455097 0.2892676175874244
Ni 6.1607141078216525 8.822640809573866 2.137452408580068 1.0398721320591189 1.6190650554226245 1.214391929778986
Ni 1.3996759968462391 7.36298411927589 3.940766728215392 -0.8821007574421841 0.1929288963546742 0.9509289319594912
Ni 7.7345016284925405 6.256076099077124 11.268224248516866 -0.27992397158899535 -0.051107103088460365 -0.36532804818711273
Ni 4.435461685278965 2.491054376000102 10.306269416578939 -0.5705391043432496 -1.6466758751613577 0.3589185451163432
Ni 3.4164562459172005 2.442253543324432 5.557302408592124 0.5710736366904811 -1.0999999505889506 -1.0914415194959783
Ni -0.15670407338283754 8.220723768883522 11.6085658645131 -0.37101507126956107 0.3178354019227881 -0.5979470640425573
Ni 3.9517938839394695 9.08617270990379 10.123230662866382 1.467402879027221 -0.4826868233149559 0.7540022272993336
Ni 7.708837924906416 1.2842587420959501 0.9902172978633882 -0.6755583840691334 -0.0658850327285833 -0.20204757082649075
Ni 0.8332679709122014 1.9225010754568814 8.14169936722076 -1.736178804419197 -0.7433992549725068 -2.0633496248102983
P 6.105619976033627 5.9396342119452274 13.331461076344144 0.7473520689726677 1.8935747979745843 0.49909226125617273
P 9.15019777352038 6.589334051631302 1.1910429509348255 -0.5114731514190288 -0.10772845112693061 0.9767435790297502
P 5.560888663601003 1.3666639410612755 8.713193859613844 -2.1521334165139256 1.15778292303569 0.8178509463241785
P 7.080868476861243 7.844541814442418 6.707253818263917 -1.351784997849885 -0.03678760114199471 0.38438403637729934
P 6.976048027233966 4.415878419217574 10.125167703313757 0.7987885303760889 -0.865895094216599 -0.16427780827688482
P 2.7580753553967288 -0.10824104279187549 7.993580094215307 0.21204659102073162 0.7332482825814339 -0.4683380107924515
P 8.151793633899947 3.0118341323992284 13.3882164540008 -0.4546121765659267 -0.10445543680261365 -0.9792365206549329
P 4.211087062220188 2.954676168696415 12.404738539098615 -1.8040788106952799 0.46879283894168294 -0.7345983688514252
Ni 7.482399469932852 2.6780023790436296 8.367339128498154 0.11911895235205937 0.6702863370369165 0.9781337745090573
Ni 6.253651327948539 6.181639327370237 9.12027406172629 0.1152242452833435 0.8504080543245934 0.010708387556439622
Ni 1.5228210527124362 1.750656990283009 12.30160339795422 0.30721160366035477 1.1680339113397367 -1.0264496880056257
Ni 8.666270836335082 3.3345970831983887 11.108225447951677 0.02936302654314943 0.2283594692481422 0.047459479033544076
Ni 6.817530928415671 8.46067430724538 10.203433207142382 0.7217811624820988 -0.059234617291601205 1.4110779791832473
Ni 8.584578260945714 4.993686571396612 4.924420485298658 0.5072825103764489 -0.8519000654890877 0.2962255369624963
Ni 8.554611051348935 0.9524723109518671 9.814381456016509 0.9442155244950577 0.1528680237780464 0.6761687639596226
Ni 3.5939087711823787 2.241265930349368 7.71402989667411 0.1866286651682592 -0.9989779649479184 2.7324738232183132
Ni 7.043312288923093 6.426615250170347 1.9875043768913778 -0.9834225337118224 -1.4535055522198388 -0.35868123229455645
Ni 5.336569569652041 5.414754556271434 11.331372877683544 0.9200574391916153 -0.832835592658469 -0.5723368196736208
Ni 1.8647137818428325 3.8375427404952935 8.163115093906043 1.9255698628239415 2.0632166987768596 -0.29595248580676775
Ni 3.2771707287981364 6.7304150099677145 5.111238920419284 0.6790527703756369 -1.035041543439695 0.12587118347422838
Ni 1.8943015425225433 8.00330879425488 9.577594225943775 -0.5648759925202013 -2.031212120845805 0.3128402627010418
Ni 8.221084708097319 7.174814475816433 3.7903448481229476 0.6323723355999625 -0.6986304353972483 0.34413161661515573
Ni 3.4403985470990626 6.192624836261954 7.857245949282906 -0.3145014524535487 -0.4202537536907149 -0.34932575922158554
Ni 0.1305443097490338 8.764612889817286 7.963523112557661 1.0415837154335867 0.4937068285745433 0.027029236203650223
Ni 8.663660968173781 5.061894827952592 13.116820706235922 -0.14350252340274638 0.148112511370932 0.6181153114603162
Ni 9.039306141220006 4.392815328941115 8.864414433402459 -0.9441111377067095 0.20373035784555235 0.9137847188090263
Ni 4.896381061297619 4.286726964639731 4.506409377919147 0.664772606307539 0.8991888232727223 0.8025163728496373
Ni 6.430974285290817 2.3093261092791755 11.795519420467608 -0.2918796012889747 -1.170229890549791 -1.2226526271258813
Ni 1.05933808279066 6.8743649723112314 12.982043227348663 0.9052273161573184 -0.22470593165595493 -0.3168537547358092
Ni 4.936547117397071 7.617011286975828 12.289941359407925 1.7229137118791749 1.2235797669258413 0.08173305550443344
Ni 3.2908123801093323 6.263109786320345 12.013533183997088 -2.6730157770619964 -0.8136641619363406 -0.49487488074071545
Ni 3.522683432993122 4.441070125370271 0.5572633070326856 0.19281628203620987 -0.5512002948053217 0.22951543722945636
P 4.92302577915714 6.384524184930645 3.677375501630333 -0.8467128648611933 0.10301021971565485 -1.482520708505266
P 1.8849078681121878 -0.25811873760813353 11.51177029673924 0.23474146151508601 -0.037097419072929655 1.4249549942756556
P 2.311778644962667 3.6925562347685656 2.3257201534668637 0.33445655541923686 1.1823235884895316 0.6875451241173642
P 4.157297864512812 4.2127066612564565 6.755231894629161 -1.4805484152702437 -0.2018377688085298 0.09800839562568928
P 1.2506081015481152 0.687401328794907 2.3634845755668197 -0.17507412756144042 -0.30910727802117083 -0.3893645203110262
P 4.570064247470305 0.5164142428825113 4.6176980433546975 -0.7001162759141555 -0.7052230010131016 -0.5356101536765486
P 8.910321273971608 3.573242687479597 6.810023392768695 0.012740330384803865 -0.2710400388358042 -0.5182480082490172
P 8.942380080038083 7.45319115817021 9.607502204490084 -1.017198344610687 -1.1279982355740894 0.2060142687837226
Ni 0.8517489841437668 3.1367931391860457 0.9271750994905217 -2.0220548798265687 -0.4770890175122041 -0.8571127200382787
Ni 5.449386211092665 8.351467057942726 8.377010448457582 -0.8177496448596239 -1.5698754810718512 -0.011508514860231793
Ni 8.153107822832235 2.0538274201691418 3.4095826676072787 -0.3016819320913772 0.9866672659013652 -1.5732940198350969
Ni 0.9075205710715346 5.522999301003963 10.70705169215321 0.07319930700180942 0.8909425241035301 -0.34913806869081165
Ni 3.883048845988612 2.4297780033193495 3.1259964292677007 0.20348404616270116 -0.38203456230851623 -0.317813290435601
Ni 2.6667669891577463 1.814533976273426 0.808988793130796 -0.05364812434275922 0.399689299275802 0.8821457517475065
Ni 1.8125812025782686 7.744894826879564 1.7698839445564214 -1.8956869592215804 1.8049373020408335 -0.19891622428636063
Ni 4.960045185700412 1.7939234216804592 0.46064450692507064 0.7297436118622852 -1.5739434804936376 0.5461637608226787
Ni 2.9049776154120717 5.9399026026426665 2.7280859341560237 1.1631986947346225 -1.4948877147110513 0.08114890086618927
Ni 5.231739865173129 3.9822238361180395 8.821164660737953 0.6568299544216946 0.6467892823562409 -1.1571062086836394
Ni 8.444867020651403 1.1781333583880227 12.107456971308352 -1.0170682467907257 -0.6293512893854515 0.589500733047417
Ni 1.014998088603455 6.359091852635416 8.076248130967091 -0.9028210207086709 -0.5747621412856617 -0.9737837250704777
Ni 2.4191719433447014 0.43893725241325904 4.32729838324083 0.07390816014337594 -0.11689366256596641 -0.37180877081545
Ni 6.493953550672559 6.368772427446482 5.00145324288939 0.9960949869731685 0.4375058559029433 -0.8952241821980195
Ni 3.7885845753418153 9.417644476092255 2.05424296300759 -0.12279408721080143 0.4090707404907019 1.5260127182506298
Ni 8.54198743371768 8.547864264506424 2.093050406886903 1.0329838895797177 0.3807613520230475 -0.3503318318885967
Ni 1.7985786120532758 4.373546727835341 12.570872380813189 -0.42922973193708014 -0.80333372654461 -1.0058808627153384
Ni 1.9995847347316114 1.0384498826486184 9.850845571461633 0.06612105999878937 2.3440557259809567 0.08930032632873007
Ni 7.962448624282742 1.7359787955886012 5.841716030667944 0.6196001235359587 0.08242365381355483 1.2194642020955708
Ni 4.731265253262987 7.517206966935164 1.1611340469033518 0.6488181398608116 -1.6277229882079387 -0.26959405041789697
Ni 7.395718529511778 7.918626901787143 13.710664739844342 -0.40862362565095434 0.20899032069291107 -2.146755440031464
Ni 2.8181578522164608 8.899854036771497 -0.10183020706374421 1.0130303292759264 -0.7946739939870829 -1.0895347893915688
Ni 5.44134374502114 1.1750885121998385 6.425658298511202 0.6899311078510376 -0.8158038339871628 1.9575692985486741
Ni 5.56662667161521 5.815656219431807 6.846473625936366 -1.7211949294158548 0.7594977031962663 1.25977601434074
P 6.0793639619428115 0.09489554673302562 12.240595415970905 1.378839687974832 1.2948990832961185 -0.2253296812828829
P 1.523533676288394 3.1948395686458975 10.390142435013706 0.14453430710137044 0.8665962340486818 -0.2733743433959356
P 3.8218372572693102 6.786962153462564 9.869781923393681 1.3514378989231113 0.5564345466210675 0.6953857032077057
P 1.083576539224868 0.5739923768495906 6.073531554441918 -0.9578909650996215 0.4746701236580664 0.17036360945964854
P 1.2052778382358773 6.056856162764501 5.6777487497213155 0.7332346557346792 -0.7574601039409471 0.5572704122588015
P 3.009548184045181 6.579366576419526 0.5758998017717327 -0.41240083330519944 -1.217587039677516 -1.0097521727452867
P 7.349962543024294 4.2726780998565586 3.220136780107243 -1.48329615321871 -0.1805811734225987 0.4581824104156883
P 6.067638064920229 1.8249919586219008 2.2940778157240014 -0.0297062688151811 -0.06971083423257672 0.8069839217026876
