# total energy = -381168.91264162515 ev
CRYSTAL
PRIMVEC
9.24104505265130 0.00000000000000 0.00000000000000

0.00000000000000 9.24104505265130 0.00000000000000

0.00000000000000 0.00000000000000 13.52520353370118

PRIMCOORD
 96 1
Ni 9.020285552297391 0.18659517808117002 4.240150864504168 1.6347122750415781 1.527032417764396 0.997703726221185
Ni 2.7350812921880925 3.052973235828755 8.700073182289051 0.5377043172014159 1.9986982073785 -0.43919069980453396
Ni 3.5804335951055486 7.52726537839158 0.2722864630865623 -2.2730847940890335 2.6288018015489434 0.3919669909308798
Ni 1.2891534829564906 1.2429390175452422 7.87667298146806 0.28226316124513323 0.556777531782783 -0.2148915166686944
Ni 8.259867692810207 0.7104016282150709 12.116201923652255 0.460073456790814 -0.22107090600652896 0.7948557709805859
Ni 4.229284319837683 3.063997802362572 1.652725759614726 -0.18531560278379053 -0.3713858243454185 0.20151560958242065
Ni 7.720144466986578 8.220787314041127 10.766048303487276 -1.924872836756917 -1.553845424192182 -0.7080944090236256
Ni 2.3548122956528243 4.046616585827656 6.605871289525406 -0.6321666473470596 0.7602435802233551 -0.3723888116886361
Ni 7.1412392109002605 1.1498170083572492 0.8414719881751678 -0.7255267455674602 -1.014628784111298 0.5684814504832726
Ni 8.127351109327444 5.2885668115714575 0.4106821993177042 1.864038479078364 -0.2776444315261993 1.1987362255196
Ni 5.743632825311014 8.081450839441885 1.2451568683148282 -0.5027409137523534 0.03129855300296545 0.7414624429611102
Ni 5.509862113151776 3.0555422463035256 3.5851797957524627 -0.37808380519088436 1.4457999560454649 0.13366239738387303
Ni 9.047398777955582 8.11997675551857 2.42778790291259 0.8446487832433132 -1.0955599125397262 -1.7399971497240228
Ni 6.600407059691839 5.916042999511707 1.9529044684422945 0.27579323725007343 -0.9173739788221813 -0.19589903472659165
Ni 2.497105904611513 3.382259387798165 12.03937834530726 -1.1342120776942852 0.6733852876772144 1.3857428428525684
Ni 1.3513549559985052 8.802982382102329 6.28651464027233 -0.11428759240168704 -0.5955225137614647 0.11032166577540355
Ni 0.2814711375861104 3.2303088869469034 4.1125680748792455 -0.6723172514240163 0.2129688457246848 0.23241332760254166
Ni 4.7649507269619455 5.187414334388588 7.166153067878611 0.3519709101539164 0.9702687699386837 -0.5870604990370406
Ni 1.4531450652776299 3.258660412618111 0.749884916540626 -0.026716847169553987 -1.1547233102737597 0.11716517105979823
Ni 8.39212552703652 2.5621905836539898 8.285255615390556 -0.18094575585086903 -1.068257110959715 2.2634431572342115
Ni 4.975683514252111 6.110326726927442 13.152963064925371 1.2920559574203685 0.042358410361552856 -2.004307068924845
Ni 7.098582547765224 5.826737541856377 6.289922737621594 -0.06309230047479457 0.9093961028230274 -0.681412528857065
Ni 3.4027283021924695 3.3240130819619123 4.651195312780904 1.7006854966085936 0.8816400157556816 0.6625609433682009
Ni 0.36100511439243954 6.721797425147179 12.438195967112165 -1.0305104883385607 -0.1544525946563469 0.01914263436672187
P 4.715658993607897 0.7143078178830042 0.7948583096253937 -0.11268656646315432 0.4326580408923388 -1.307685179317193
Ni 2.2261307457924686 2.2565799886499103 3.0917394190721432 -0.35399231145931936 -2.7795057277961353 -0.6599936968616569
P 1.78508339712567 9.052767825026955 3.126404426600773 0.08856859036902812 1.4060620140258944 -1.341793948075444
Ni 6.842513194326772 4.821542885765883 8.81909506794337 -0.5924914402446247 -1.0423645594636695 -0.45885269700983555
P 3.1697800430269516 7.359891573646823 6.776058992434076 0.18471782129879155 0.35115509912084036 -0.08163535358430457
P 6.438688774409524 8.8150604277517 8.820961759007773 1.3383201305942307 0.11697053855048888 -0.9709966492436439
P 8.380916139605237 7.956354814992361 6.069502562990774 0.05687717280301817 0.1307022863142846 -0.6650659691782417
Ni 7.6435824102114935 6.948147578273178 3.7429373692020906 -1.0593991463484531 0.4322718611975136 2.378627807528871
Ni 4.428918612235045 2.936526829380616 6.95241416869117 0.1992520103592246 -1.3016875669728614 -0.5915730421954134
Ni 4.840080421781672 0.19802265417146195 9.83908463687598 -2.354203870158552 -0.1756261434101685 1.783568092336438
Ni 2.065872545600133 8.074233583395857 8.882285332786825 1.242338535590583 0.7564347480002264 -1.1802659346295543
Ni 6.278338163768456 3.917149547153072 11.267982124510624 0.5368198577139335 -0.48442566038293344 -0.10846198685884546
Ni 7.373790105136227 2.228755202536479 4.355102069891811 0.6790396577495145 -1.3844999715844026 0.9856537370351863
Ni 5.095003885655838 7.915185960081921 3.8671804452098115 0.7611936028414503 0.2917068231565363 0.34005641810451753
Ni 0.31560755734798845 6.905971449471551 7.443947193709645 0.38218265785060634 -0.15515476292969407 1.2537928001741119
Ni 4.716536892870858 7.23751241639004 8.529791220722673 -0.07422620560442701 0.39536598931009975 0.29157801088815594
Ni 1.1909026938638303 7.384768466445679 4.257707001554416 -0.8697453212006246 -0.9996109705462268 1.7116679637620262
Ni 3.8508820143668165 0.3800000821294564 12.157723786476856 0.7930937939841567 0.4413686812924592 0.5776332921858697
Ni 0.7726299002872179 8.516057179832012 0.32119376897388324 2.9073371203205287 1.5075910212103327 -0.08240077099541937
Ni 1.700721898477542 1.9458590958309097 5.428475306848354 0.11839775791531867 -1.3585768239607379 0.7150620985907106
Ni 5.828770571728497 6.194882287517909 10.593804468094302 -0.18021324856021867 1.102177932076876 -2.0529713668997673
Ni 0.998319318704778 1.5952261302042339 12.488320318609295 1.110209544132101 -0.21939660362789956 1.0290727274507696
Ni 4.026646687856508 4.798449514627568 10.684626381213336 -0.4055745544119854 0.7476991678994414 -0.6428799199995058
Ni 5.472528291863744 7.726511546904264 6.283498363225693 -0.7999247008630611 -0.1796172668474326 0.38208521304079357
Ni 4.460578431970886 6.398139069505594 2.4702569728367 -0.7845325346777069 -1.4986685219097222 -0.6084921865482553
Ni 6.016373023700854 8.482715489929234 12.520253673273386 -0.3924470158910919 -0.8240889568140903 -0.6541169263659057
Ni 3.980690971701711 2.570636898668163 10.750967842358579 1.5344855316083312 -2.802609917913767 -3.242887680134892
Ni 8.514255176081722 1.395296124370928 6.3530316812701635 1.3816007956597367 -0.8123148469972978 -2.138975538975729
Ni 2.583944003285679 5.820564523881029 12.250290408867965 -0.8856144270223972 0.3593309500634134 0.085767116364491
Ni 7.318399282165817 6.998252523576076 8.3152816183928 0.2365656592080184 0.24214495306800876 0.2983451544086604
Ni 2.0020261665706753 8.548086641362783 11.780736284976088 -1.1591700331912036 -0.5238674113183236 0.8560655097206871
Ni 7.979586801803775 7.944600205913555 0.37324949884952896 -2.113587695030244 -0.8183746800381324 -0.681175987366227
P 1.284264970218528 6.87439479913957 10.45752493113914 0.059844997182090486 -0.8239251775427164 0.025046401445666545
Ni 1.5856801308501407 4.6245053269779115 10.20268278845986 -0.008586970338062631 1.0257709167710463 0.5052847632201297
P 5.030131750645446 5.399828991845689 4.398720725798157 1.9902791300768692 -0.7876278857735791 -0.1904927761093558
Ni 2.0701234262418393 4.399837044018849 3.042697193929673 0.3477990381644139 2.0252931842582083 -0.6729631125381312
P 0.33450549411383595 3.2257807749589986 6.582825047715946 0.3244765613883896 1.0851052928653053 -0.6740620020292649
P 8.169758264250902 2.4518987130914516 10.723971053865792 -0.7554798402861247 0.24661790123769783 0.5137596334603604
P 2.9024181327533576 1.082412827051581 9.280872852574388 0.21449350989932733 -1.5405600199371856 0.5750768443126032
Ni 0.25024102643687735 1.2117412500530653 1.7736817959610234 -0.2501806788882917 0.6456507978764235 0.3194940205721336
Ni 2.570673862847656 5.766384277789018 8.22832800665772 -0.14338939486364982 0.11615524173804513 0.30289189323907834
Ni 7.789443062491267 3.240862160192183 2.2661749655418317 0.00917780984452613 0.27461618622283673 -0.9634018676155216
Ni 3.085714257814768 6.02454210736883 4.8345977098583575 -0.5230911952739314 0.070519189066485 0.8740999986248945
Ni 3.6930172447966587 0.5505056769817672 7.005662917459955 0.05553222873934952 -0.17959978334593582 0.8859795236713001
Ni 7.67686865384503 3.109334368510859 13.184043471147657 -0.3860817357946964 -0.24047836399886327 -0.3676523254449152
Ni 0.10440624908274895 4.5549757053513895 8.477922159953467 0.7544881657968168 1.4770573713978496 -1.6430405924016156
Ni 0.24499026473988245 5.364324897442566 5.744329600094459 0.1738428262575006 -0.9306367573693586 -0.880899023824599
Ni 2.215614436726682 6.725188888615671 2.32176354687253 -0.798179178926864 0.6081427736286364 -1.1113819671736473
Ni 1.0666660865875204 2.217037557637166 10.119205657806106 -0.7655099708286172 0.2359254545208582 0.7428963471941593
Ni 6.169229146949697 1.3153148809927322 11.624263216763843 -0.5452839293208867 1.3085979209394496 -0.3071452691987936
Ni 6.9009258389707435 9.057794953438016 4.876376473730434 -1.3342930117127088 0.9231731020024617 1.2434996457782197
Ni 2.5698144456744414 1.0667862201708729 1.0975117702700252 0.3987248784800036 -1.0529346216700317 -0.694586861455494
Ni 4.517641884063359 2.5789538390541105 12.867729897971351 1.2651035972012405 0.016540935077816673 2.0140289241982994
Ni 9.175886265873597 5.489208377860005 2.974665545677109 0.9078444420651913 -0.23885676923504023 -1.235072598056789
Ni 6.286849166096742 1.948566721978779 9.25111761218693 0.3804008833598352 1.0579112489490168 0.6734693627505886
Ni 8.314611642639488 5.622889332996802 10.311033115494523 1.1319795888193407 0.9090106944591506 1.2149305758912754
Ni 6.858389309419058 3.577153024175536 6.812590691027107 0.2206343326897426 0.48967713858985984 -1.1062611010073142
Ni 4.494613200239157 0.97685237146416 2.9769517801787577 -0.09830818625429522 -0.2572985208799956 0.1389221031209156
Ni 3.7061949747859493 7.266464609978012 10.815956414534373 0.6018530839651829 0.4525786910756657 -0.23639648062000576
Ni 6.40083745460859 1.391026761639475 7.00271502414538 -1.32013574637572 -2.3304443058451088 0.06044200733614106
Ni 8.594033116472707 9.238050774736118 8.245288096313642 -1.6918295888798607 -1.0316194051320233 -0.8017270441791224
Ni 3.236583556415857 9.039220453242732 4.7878269335457375 0.22379524691622749 -0.15527071968226808 -0.27086134716609483
Ni 0.3547535475356689 4.359472160012382 12.254144848684607 -0.4980144548109616 -0.6976834981029468 -0.08847860175838311
Ni 6.994408248908794 6.225128227388138 12.342924490886649 2.378707254616555 0.6889335198244587 0.4794845143275742
P 4.980784571022158 3.7597560708714513 8.939821002272323 -0.6615263314560994 0.1845057052879855 0.2769139811180779
Ni 0.4346617866593657 9.067350193836981 10.189049474958317 0.6653014822278156 0.6685410722110358 0.8301151084035122
P 1.1699070399117493 5.277985815191558 0.9837018339242315 -0.7604942627815806 1.3903592585786573 -0.1749059774146923
Ni 3.4384172174930576 5.03386513277425 0.7344311171990481 -1.9571612644769776 -0.9155235558770038 1.3395920553281189
P 7.049817553968952 8.915168666863888 2.7188632584354946 0.40579001285690114 0.43995714565691324 -0.2702527670478185
P 5.635854518954007 4.266072919478192 0.29606367154549906 1.4586212761798492 -1.1702993103351458 0.6575776312209966
P 5.117256321710685 1.4490420413538958 5.260194955601528 -0.7416619605664259 -0.11903847682311113 -0.538630428560111
Ni 7.510529846126079 4.546695729144935 4.293034592000459 -1.5427467431758592 0.5637012554858098 0.46002383449980133
