# total energy = -340869.38009564875 ev
CRYSTAL
PRIMVEC
9.24198059831376 0.00000000000000 0.00000000000000
0.00000000000000 9.24198059831376 0.00000000000000
0.00000000000000 0.00000000000000 13.52657279934277
PRIMCOORD
 96 1
Ni 0.3366714851353607 8.044737342053216 7.007251099734006 -0.31212755290473343 1.22166583773258 1.729916368449253
Ni 3.3455414741230016 3.764129253052981 10.868046847393499 -0.7726627798233144 0.5273530558740789 -1.0012238235593014
Ni 6.0552346926957386 4.189149450382132 0.5170555355278681 0.5243803463990001 -0.3768018531546672 -0.6100780429781364
Ni 0.9582177759259737 3.938063325283446 7.41256184953719 2.010083566397306 -0.6546599433535693 0.09604741524457652
Ni 7.084070441305718 1.9170732485035895 6.63115887115062 0.33277171151764623 0.6723699590388227 -0.45385421535397963
Ni 2.9602340668243667 7.971226629485674 13.148045274921136 0.5835139193363628 2.3718290394394828 -0.15507068785632003
Ni 1.3173888624877461 3.328462294235547 4.655656897989846 3.917062039372305 1.7702994002519896 -0.5271828488448017
Ni 4.431557355830212 9.039812136048004 2.324230546002398 -0.07361222616951194 -0.48643677727569123 0.2306130411690093
Ni 3.6605358940927646 1.4355106147288497 10.761281640739895 0.5410917456164102 1.134250901352021 2.2309953211181512
Ni 6.447621457025645 7.68389345702844 3.162471704209231 -0.10558312264915365 -0.008214674600308433 -0.4258626152370601
Ni 5.274416731672197 4.793214535135341 11.659945942986877 0.2181475617121469 0.5137074400661862 -0.023246372122450287
Ni 8.50337062231022 3.4168803212827763 3.707795685365756 -0.2486074208639009 2.420767931232031 1.3258345965327103
Ni 6.414692280651726 1.2635450843360623 8.805109269708241 -0.288397042057013 0.5708772044089587 1.1647339004322264
Ni 6.322753059049779 5.056407654634767 2.9063329883938396 0.38556263006643277 1.072359820274179 0.22380835954235007
Ni 6.502842290265658 3.9915374242167867 8.655748699319092 -1.5553533761962761 0.18622063109656314 -0.3617806971554866
Ni 2.627393382589087 1.9488102093983513 8.721744757575763 -0.2807886335821358 -1.9210925437788788 -1.4307150366878845
Ni 1.8649762046585772 4.055713736521162 0.4017119226126134 0.10762843521395657 -1.1920930091714697 0.2612953007442145
Ni 3.0388001427027502 1.236059434452247 3.792012308096515 -0.11466065947038964 0.01633730370744283 1.0322608953707642
Ni 5.887409569548394 2.634278658030729 11.598995081862544 -0.5811901562991926 -0.7643617161567868 -1.1673600252011638
Ni 6.064837110392203 3.7010434944427177 4.921995063439326 -0.8103710930073657 1.2307444029950805 1.066712906401047
Ni 7.605318139169598 2.4028594673479 2.0281470664469805 0.7197091104444187 0.8822573376247064 -2.2961882128757165
Ni 0.3263038314569263 1.1131688202945165 4.33952756281977 -0.11721016536512073 -0.4566024675230781 0.42611972555318867
Ni 1.0658406383661312 1.9865359736302723 10.915754874718731 -0.4440426285801965 0.5293004094084367 0.6051057865745256
Ni 5.308408735798852 0.16041120642347143 6.744998813845264 -1.3685352207250303 2.5444940433387986 1.4896598906532086
P 2.574067155343084 3.4554840736582624 2.7164195319504914 1.3603418862809602 -0.6293433189656515 -0.13337237694727996
P 7.511937168616111 -0.1716143351353614 7.617394635034824 0.07687778429466115 -0.5990176713989167 -1.4621588570194624
P 7.361237435258515 7.727792864206692 12.497200057680732 -0.44922957209777475 0.3445962149564001 0.4755005899791617
P 7.826515699465238 4.5232470439597785 10.22335678913851 0.606434275577962 0.8844474032974896 -2.0064372278939704
P 5.294499555208691 5.862983015196369 9.21017603122732 1.156299396511628 -0.7497516795530959 -0.8307026054758662
P 8.354593220888008 8.797847845661936 2.934792743017989 -0.33580149948290555 0.5164019561792139 0.7488515363363296
P 2.617023880514561 5.1994642701531175 12.404746057767241 1.2946139479555316 1.5018116955243943 -0.3295046107306003
P 2.174850567454287 8.499618378244037 4.550514583104771 -1.272224781627054 1.381453471448595 -1.4734282592856949
Ni 4.390901883792921 8.38462965737839 4.857297503437086 1.559877489318875 0.9232222100728423 -1.0584092716313578
Ni 6.200056526481678 8.579552267230289 0.8148959155684615 -0.18622345931004056 -0.5070287424944301 -1.2564335802310682
Ni 3.082422290467245 1.5206662226742005 1.4977294755720982 0.8885256871319215 1.1894704839469579 -2.0414008884533485
Ni 0.7903196411330071 5.9157547236148575 6.221573705385342 -1.2444951769222696 -0.6718760501215396 -2.0450891359382135
Ni 1.9962770210336152 8.598636956877256 2.107588357874792 -0.5140080020257406 0.9983264474068482 0.9918755495751821
Ni 2.525500548033249 1.7090085424395907 6.197037171465861 -1.2214537217217738 -1.081469238774615 -0.6336653433797732
Ni 4.6683923470617685 7.493000350656481 7.617786495006267 -0.963138843762122 -2.330562319480212 -0.4470834722890494
Ni 5.584263368526531 5.272438947854061 6.747459953241384 -0.5648320266561433 0.3708744319266387 -0.2275547139586597
Ni 3.3582491972535484 4.9238129609955275 8.6009252712388 0.00423974911296044 -1.2804867645255302 -1.1274027680819358
Ni 8.055199263932327 4.351022738114151 6.632064585235561 -1.9118160035729592 1.419584988212994 0.23369759363160394
Ni 7.084246038934431 1.4205848162882442 13.221453401505586 -0.7140701669910864 0.5606493560333634 -1.0941311505129994
Ni 6.961965395486967 1.860438392253415 4.130839023074817 0.9580290333393823 -3.0480638807503504 0.14668966288147642
Ni 5.325829868963274 2.948117830443169 2.6493551007528096 -1.7301513672781943 -0.7343104052973611 0.5156365387680991
Ni 0.3768047852767419 1.2496913556286517 7.187398555426773 -0.030351101488031603 0.0029079176754143467 -0.242903171390272
Ni 7.054237328385423 6.534459105414458 0.8704429907186615 0.2777616738303539 -1.5838975063825562 -0.26204169199193583
Ni 8.482169519138239 2.7971593216327326 8.765178368938903 0.866368948529224 -0.29217450682157425 0.8247330181559925
Ni 9.144634678409211 8.041964747915642 4.747244924334368 1.0187430633899874 -1.6642311104363015 -0.6620104701813695
Ni 2.257464630773528 6.855543990506424 7.660260788797806 0.3985361595079652 0.883507922202356 2.2486965950526563
Ni 3.831595710400611 3.3084811324840984 13.090529657933258 1.4576856517394574 -1.2005923048917322 0.028536673987112147
Ni 8.843059614065305 0.2060758318693124 9.213529945935738 0.1474705069115589 -0.1984703949981937 1.4562106098558276
Ni 8.283309825610985 6.258456600999442 8.452958391502806 0.32375870938575857 -1.185293726861449 -0.08067478944324816
Ni 4.366410635577685 2.6107300918222687 6.958150305953665 2.0967348851389636 1.5343338365218155 -0.02260411055276107
Ni 1.945233562960881 9.192415717380067 10.243984889522059 -0.43872147347759927 -2.306736677815524 -0.47920709229647146
Ni 4.410698205935198 9.067149914244482 9.352745594375502 0.3607715391646819 0.9018715123112081 -1.7179252575256478
P 0.6519902986192195 7.435413570419073 9.344589546620806 0.7520949829742918 0.41962486185746445 0.21905618956934533
P 4.649279931473425 2.572819487981176 9.140717002892819 1.208753757656602 0.4438942759277904 0.8295054998439714
P 3.1253143217755124 9.167055723001726 7.48943294619947 -0.42861652383311344 -0.460417213283478 -0.02921853054548516
P 8.18645387040507 4.547553452565842 1.015896975967968 -1.5045517201633767 -0.7987157681566244 0.2441686683662569
P 4.375791245743144 6.835969475895153 2.022547350487127 1.1011993702136906 1.3819936602227811 0.7530925710008707
P 1.6130028494358675 3.533236855256291 9.45699513394828 -1.8540168331763036 2.4271954320249294 0.509773909339735
P 9.097463610148623 5.629835574167786 3.8786096649934048 -0.46486830707629617 0.09748671879426436 2.0135761529315968
P 9.015588905266068 2.7658197658976897 5.797340000593217 -1.525789032275598 -1.973838982242975 0.8300647147815511
Ni 0.9354362940955755 1.8235444062627655 2.142717125597852 -0.43981444943146186 0.5815282563649017 0.45580388288118273
Ni 4.69349356598727 0.7588858171972868 12.888835448999357 -0.5894917341863525 0.05577648353967168 0.6997912884745691
Ni 8.97940655177073 -0.08575818507125023 11.833181321494672 0.05065073227733212 -0.6784593597660122 0.48980826485108553
Ni 3.7902932997312195 4.979431199395259 4.364524347366089 1.033416349131446 -0.7968666307630276 -1.18423571791058
Ni 8.241878027215172 6.595936759424928 10.787576923540648 0.5201056302830462 0.38566753107541324 0.9443787895457993
Ni 4.1062581276491334 4.77780815371089 1.639758382863455 -1.086276173244955 -1.069132828696449 0.8287727354430049
Ni -0.022758376879251842 6.851394341280523 2.072419849635759 -1.0504463080305393 1.5881642520787098 -0.17054770044599663
Ni 2.307879634175079 6.4397195637335605 1.2553797946009073 0.3047271466756042 -1.2686630324177248 -2.3590588842580082
Ni 0.7380128043315852 4.561176131761789 2.221685227626184 -0.8338681476880413 -1.1610217416879618 0.3223332897931416
Ni 6.422067381057674 7.80438115626694 9.178956621238237 1.5010704464829956 0.16102947654291624 -0.9413027217236369
Ni 4.544873278232854 6.440061517010527 13.453880892256445 1.0224799047246003 -1.363484031454368 -0.8444513225205263
Ni 3.710562734315055 6.895866751247206 10.082341727103461 -2.7029143643936417 -0.9344124223617069 -0.43420301678195544
Ni 5.720296078896362 6.97196521834315 11.235955302280813 0.8238251616297425 1.1181786783805066 1.0076911764512
Ni 7.557897537436626 7.028701736378368 6.385272284257931 -0.34259846780008096 -1.5384799974797052 0.3340274383016183
Ni 0.798394359459668 4.5605014671883115 11.35494857327916 0.0595331223686265 -0.8647476108757173 -0.9086813361441898
Ni 1.892360192757348 6.194243320773231 3.3550902883328058 0.8390872299951355 0.9320647480651367 3.0677191930874326
Ni 2.931482265617726 6.847448015624709 5.466872656939701 -0.07075958721206523 -1.984516773671795 1.1955894523605022
Ni 0.13913247061563816 5.812678915560322 13.364916664164113 0.1422416544124518 0.9221472318411086 -0.6862809126929601
Ni 8.498315258999376 0.44395054590245897 1.0533085128642974 2.144292580313268 -2.005266604624637 0.11118787043044076
Ni 6.351920749377055 0.2433339518900295 11.063072967426534 0.29099925556655043 -0.48728678398081243 0.7431981947052942
Ni 9.169135168604907 2.7000076230521457 0.1675820590612832 0.14789782425696463 -0.08371923269652679 -1.299787007516039
Ni 6.92993269121753 8.94010040888039 5.423479710290579 1.2877609295894403 0.6580987938317892 -2.4097605243779334
Ni 7.767607316022253 4.105454075349237 12.176349918892415 -0.2776896829418379 -0.16337329418474444 1.9626945355903809
Ni 1.4560555372882718 6.912345202404853 11.534541510144413 0.07687932695655793 0.8391929023350644 -0.40105661193697384
P 5.968119784893169 1.2609018779249086 1.5205765754637524 -2.1585061528094887 0.0963639180437308 -0.002489599191073132
P 2.276595530322788 1.6068661744113708 12.864284127911143 0.6509796662885047 0.7877487276221594 0.27888807412531325
P 5.053810658125906 1.6361262845432334 4.929461659451811 -1.2556694483715343 -0.2854194474859278 0.7171583189981069
P 3.9639223866065514 8.538739681525202 11.35057988911639 0.5463712488477944 0.4120102827350001 1.1460311818164004
P 0.9465913645090808 7.992030327497936 0.18128699188331066 -1.6931030562756453 0.08247661853867731 -0.21387361692714135
P 3.003144582093551 4.307871931353043 6.1926814260757315 -0.5684071456019113 0.06820082534595351 1.1260380265239252
P 6.01677881200759 6.520753248394384 4.929339665309758 -0.9927060158962773 -0.7651037365291339 0.20841927868078947
P 8.16096448830031 1.9668690392144155 11.442452568459034 -0.20763612065786174 0.069355507775687 -0.6206499049567118
