# total energy = -340868.1205132072 ev
CRYSTAL
PRIMVEC
9.23785095992450 0.00000000000000 0.00000000000000
0.00000000000000 9.23785095992450 0.00000000000000
0.00000000000000 0.00000000000000 13.52052865613715
PRIMCOORD
 96 1
Ni 4.486574691989278 0.9236058616598065 10.863325427396203 0.6367468105185744 0.10578469713699847 -0.546900124768071
Ni 5.0756631970811075 2.855844610941348 0.07620210713123923 1.4972904106152731 -0.13827881310996185 -0.13999579580106858
Ni 7.791535893312308 2.3566681072931472 0.6522088917623352 -1.8624418240152052 1.6737904719899626 -0.9232798027836552
Ni 2.2860262625341385 4.662546511109764 12.888213353301458 -0.6152004518063663 -1.4860325783132664 -0.7032406804757502
Ni 5.005095255128176 3.0767678118582684 7.187688997846869 0.6211728673397172 0.315663848192766 -0.028417117690112348
Ni 5.290203043123113 4.948134667344203 1.1957067557851628 0.23627332477858015 -0.523696432958098 -0.07124861103334182
Ni 8.105909192513803 4.57119340494763 13.345410291742603 0.9358733231779495 -0.06936604929864829 0.31050647236154266
Ni 4.657391790385881 6.168944358783626 3.181475155078546 -0.4690538059125534 1.5810754635527287 0.9595853220829088
Ni 3.1291833770684967 6.608444346524517 13.146050082068845 2.021724493070344 1.7855617257276992 0.12004814903454808
Ni 2.012890729123702 1.2948325895764623 10.66806220453435 -0.570823725463204 -1.2679595785927968 5.334885821919818
Ni 7.429938701027507 2.155791042524657 6.9839749891100915 0.38706004054756565 1.7753912129526006 -0.3298704787104512
Ni 9.116225216543944 3.4839260840896413 2.6481306128256445 2.0123978163527796 0.9808899970979559 -1.4197410541748838
Ni 8.054528266588655 8.429880618654568 3.20820487625158 0.11557211554106546 2.375098197109058 -0.5915758704088909
Ni 0.4707507130756958 1.6311365464813543 4.054941657955301 -0.7035960069326398 -0.08311168101951492 0.38499827292253047
Ni 5.1217231209687 7.0144848388139724 11.133749651608685 -1.350093726190391 2.2932031621054634 0.8555608021701266
Ni 5.187884608109281 8.817814923455119 12.810159980877986 -0.4194739381018969 0.26534555955418815 0.44040220361413185
Ni 1.3846891639155334 9.218386608094864 12.561287662487757 -1.6690740403508997 0.019154718551579915 1.9825352244653922
Ni 6.709266249715288 1.362010240300604 11.946657423830583 -1.3263210492508255 0.6254077313566714 -0.13472940519580667
Ni 2.0873200926941653 2.530007138947134 9.119812273993915 -0.21981055123686657 4.193954680334145 -3.100565550193492
Ni 8.908632234273192 9.081195286463368 8.590024304283478 -0.5407107081279074 0.22074103347093596 0.1509414961792949
Ni 0.8571894098382596 5.338119775013394 1.3874900802658579 0.6747885957826444 -1.6349675855854937 -0.8981364707488081
Ni 4.713881247781114 4.785779440243434 11.94617058909555 -0.1376254957966791 -0.9801428345192862 0.22646405199764222
Ni 8.70365356376742 6.674227081783952 4.4153988994563615 0.7651510448273016 -1.9674760161394247 0.9853824856516707
Ni 7.943055121472012 3.1011834514160115 4.568519047152713 -0.6655089702529313 1.6796047646788945 2.6069772494746846
P 6.514255220179172 4.5468516681959645 6.219673092445143 0.4061759354414101 -0.4288080710186292 0.4091370749522631
P 8.431053825701042 0.4647692047088254 10.754146964408259 0.8857985180087455 -0.9815731392079095 -2.004179027987413
P 7.271186235723 1.0267224469792728 4.807399706161308 1.1539913172037415 -1.4334308929571506 0.5016834190221167
P 1.6077832597609707 0.13747122850951163 3.0648602222290857 -1.7492590346419228 0.8690441813685421 -0.7845147940658941
P 3.1629015323412024 8.57209733109931 11.56962470671149 0.9896605442017343 -1.0641754846911735 -0.7213720999691383
P 4.6267775529684165 0.9726163550800294 1.1771368281881236 0.023681916997972115 -0.610159289838033 0.3999127281405177
P 3.2013125157998084 3.522318591846728 10.968798588444455 0.28188906573516614 -0.707241316994711 -0.0579359530848357
P 3.4983833205284864 5.555421738432534 8.338352917113076 -0.8718207156724147 -0.5955387117113807 -0.837558452055435
Ni 2.708796502549312 3.942178908872613 7.034798872634433 1.373333670554938 -0.9334361744913666 -0.056462968083735014
Ni 3.2907441490039355 8.349788452568442 2.7398670897943034 2.119657041152775 -1.053530860493134 0.6079072605790627
Ni 3.05354385504852 8.732965264227774 0.38843776766695115 0.8789557840552991 0.5891778024903596 1.9029834928829938
Ni 0.6821265952325228 6.58231970457624 12.624306432799907 -0.6436972736944786 1.0102301408229697 1.7360638761078873
Ni 1.3108140713906489 4.84136358826422 8.842074443335022 -0.5928074288231469 -0.21229624513769246 0.5871376321318791
Ni 1.377770013696559 7.275758971849025 8.560428078019724 1.6648114084198038 -0.021956706776749282 -0.6259857153473284
Ni 0.6512315271519648 2.936056869087349 6.526439945331145 -0.5472647071963412 -0.3455670635101016 -0.09160686297471965
Ni 1.0667962435746146 3.363741645706654 11.362151816500614 0.9188176532472434 -0.2166699487253559 -0.02645999396374153
Ni 3.0326940258840005 0.420278791665297 8.955375759116999 0.5732665305767417 -1.1890092280398232 -1.6159056838580366
Ni 6.743631054541169 0.01741427246700761 6.776962143867045 -0.20530515853183998 -1.1040211559332018 0.17186384815425884
Ni 2.5470879250017187 6.160519438890829 10.892786781038865 -0.20450220301457037 0.08967313628711653 -0.9389483625588474
Ni 4.976550296280871 2.7757062556014236 2.595319667602903 1.1381664343563431 -0.6839342668376543 -0.15388849462276077
Ni 7.33657174339977 6.511751762623309 10.8482363219654 1.2105306470513668 -1.3792569780179085 -0.37706230590490547
Ni 3.7664749874241563 7.480903923668471 9.101586918230211 0.15074326412555974 0.5423767829764207 0.866356864344366
Ni 7.074604771557745 0.09052447094899353 0.9389185230789947 -0.5029334893791337 0.09864757187158495 0.23299413980667616
Ni 5.374156630826771 7.49057595341382 1.4042826453767414 -0.2098812079382966 0.7922769545098162 -0.13009602018885336
Ni 2.7068011267852286 3.2084533744370143 1.0445718222170597 -0.0013336312097589936 0.47992005920309605 -0.24473971037837855
Ni 8.241733312232869 4.076552686022415 10.965161646600382 -0.7399724886791449 0.201484242123853 -2.458948298956494
Ni 4.213845624012266 5.551283181292213 5.397218925248226 -0.1323040835837657 -0.4790859933375749 0.9895834111068958
Ni 7.296664228118102 1.931680783095659 9.40808402587403 -0.2730778952014394 -0.5245824351074772 0.6520852406478576
Ni 8.964927696802471 1.5649196322362158 12.393538454328432 1.1225986618250732 0.4551248545362872 0.2128667729291818
Ni 5.17019412390456 3.1025598911791987 9.709997311970914 -0.7482964351638081 0.5357538783432644 1.4981959531486777
Ni 2.730607068192835 2.0656942840658354 2.9135654738428407 -0.2740790827724441 -2.1786502318575316 0.6589099768791749
Ni 6.315826185861988 7.119593104757218 5.323654224508866 0.006067032129686326 -0.19587306658466266 0.5437641502422506
P 0.30130543551689937 5.832141557937713 10.77165638673809 -0.08377553985575895 0.0730157302360936 -2.0205281587693973
P 5.679061132999628 6.3614149793608386 13.111897747810437 1.1308462465458462 1.1118828180694655 -0.60674589328111
P 7.052008988599653 3.8341330063878 2.3533969843391565 -0.6876682799587899 -0.3243217809780802 -0.7323910767874612
P 6.536851003137265 7.028239998595084 8.773944370197562 -0.6522004260694831 0.43245569507354553 0.25121863323450283
P 0.10388886964297259 7.280627319199358 6.730694368337361 0.462474610033139 0.7295752046052209 -0.7559117856172206
P 0.7869253931753205 4.537743147346954 4.430582230964915 -0.31723967732031816 0.3832494085522239 0.6804792184095183
P 8.9386644870928 8.467654190410759 0.3168342626438634 0.7585003722800034 -0.3811591016820984 0.6186858392518054
P 4.366584248472243 8.248282948421457 4.926785994238662 -0.32345120544766875 -0.161344950900806 0.5196837122542792
Ni 6.044482795498923 4.58214949594857 4.12837148607357 0.08319524187225671 0.07887321745813514 -0.15772200943623804
Ni 5.324420042336841 1.9335191153968283 5.0461454925488125 0.6226095997862439 -0.3196421161142237 -0.248115825939463
Ni 3.1975157591375942 4.271480574901694 3.056274563733071 0.1858766174935831 0.0195241860758567 1.585123151259541
Ni 7.434566864258089 8.318860128225149 12.245461249361771 0.8258360214121843 -0.2800584402843305 0.4058650890692107
Ni 8.531783350384215 6.4525556149555 8.645282356172448 -0.30305721517234907 -1.2017711556911819 0.14848454999837007
Ni 0.0483435205953765 0.5368152027833002 6.305555543387415 -0.15364989624939343 -0.7037546439976912 -0.41091987788429885
Ni 8.799754925220011 5.066914952411723 6.36956183994577 -0.9725267127349251 0.09249980710263424 -0.06016612796693509
Ni 5.096411409887271 7.219158660244676 7.226871341843905 -1.0073875291678522 0.04564376598104398 0.08270081873434143
Ni 0.7249634329900748 7.418105014204401 2.0695464678326077 -0.40564963062429493 2.3394627072936354 -0.4296940731680083
Ni 4.301706822587254 0.49531046310528914 6.793808288512335 0.363311017757084 0.4968399748868863 -0.19018295817842085
Ni 5.298757292926545 5.402969487346105 9.622356898029082 -0.8163177975091038 0.008577200146049744 -1.368026913630044
Ni 0.3923814061562438 1.1926989115778224 1.476617788179993 1.0609194396477213 -1.270955427996327 -0.27533558088736454
Ni 3.273109091903773 1.674997861888151 12.943039997559953 -0.8349886344457297 -0.27352835247529667 -1.3730706467015383
Ni 2.4963351729282266 0.9901959850756348 5.0167783649839 1.2891549817234895 0.35556685503529084 1.6141257091394783
Ni 1.2257796551481126 8.19012144003873 4.737403587170399 -0.6967550727514065 -0.7573042950893731 0.14316930843304376
Ni 1.963726887380869 5.935864146267011 6.300403594018761 -1.1169617752542698 0.6805337257965376 -0.43193350402148845
Ni 5.679476836283813 0.12010314529630224 3.0563558568197564 -0.6042375250369594 0.037602383733806206 0.5211839509488896
Ni 2.069352472966655 6.225526194686455 3.541459418620713 -0.3573301175833007 -0.43141928338923113 1.0563068805763742
Ni 7.056590962576436 4.318704467985001 8.47507310835583 -2.3151493273592516 1.7601875086289687 -1.0734831352453449
Ni 6.60864757924123 8.87558844210594 10.016196960820274 -1.2129294863008466 -0.4001693242360141 -0.8538625885320972
Ni 7.598363196077362 6.657081630774051 0.7489818449651529 0.3418898717688305 0.6575899725161707 0.43449355143918067
Ni 7.574039935027216 1.6863419426209953 2.7594042203658775 -1.0895885254476396 -1.0886210193280477 0.6907245502866104
Ni 1.1179924124845697 8.457852830754774 10.492552277951846 -0.6616803405354604 -1.4696726488980043 -0.7521214653368531
Ni 2.5674296723744576 8.232486223622464 6.61800090313537 0.34983612319910073 0.04987065957819798 0.4700742767572679
P 6.768490110935375 6.811640111833678 3.364529634376452 -0.39368165962914137 -0.6665016731835038 -2.497319699645841
P 3.605939616923038 3.1076684226492826 5.0924668476129025 -1.0565339089855157 0.993958657356456 -0.4498551214969156
P 8.715561153396603 3.3217556140040654 8.651447697769436 3.9074772238973483 -1.005884205149448 -0.6131407410638602
P 3.1929614987130885 5.853795080118322 1.5760336904851453 -0.9129434538546536 0.24503692990382314 0.5176296579387278
P 6.607354280134879 3.5268728522712327 12.08716328631464 -1.641868169360069 -0.33287609830599446 0.9015385544518215
P 5.118101883470919 1.3104537952110227 8.644160881090226 0.7441680148177312 -1.2442748333813474 -0.21018665499385736
P 1.911643884797988 1.3316454248536493 7.374069103418248 -0.24929467673891256 -1.005451488487404 -1.6798505621411135
P 0.7343934310455207 2.984389304261814 0.16593212291490325 0.18484483379495908 1.6622153655578533 0.23271029001767018
