# total energy = -340869.89090965147 ev
CRYSTAL
PRIMVEC
9.31449651769216 0.00000000000000 0.00000000000000

0.00000000000000 9.31449651769216 0.00000000000000

0.00000000000000 0.00000000000000 13.63270717737923

PRIMCOORD
 96 1
Ni 7.781553721280447 3.9556243835837277 13.134785667539061 -0.11360470740204952 0.5450491876022613 1.2691196603391692
Ni 1.7511532398660892 7.524538826052045 13.081086665165952 1.587220400108202 0.162258720964327 -0.4329999976127898
Ni 1.7848530873250954 0.4743938145330012 1.9435609261544242 -0.7572664998729023 -2.018625799540362 0.462814509871061
Ni 0.812651609017052 5.318474903474404 4.476586022155231 -1.4209042212450498 0.3954971155713253 0.06800670705727643
Ni 7.112782204500685 9.102069855681576 10.423785697200648 -0.06881326211897182 -0.7352036065355919 -0.5362778691675344
Ni 5.310194316301642 4.223956391764779 9.119939716751256 -0.19289264380010004 -0.29496826751662747 -0.4558920717196149
Ni 2.8680824295708405 8.698519305332919 5.502405466718947 -0.7694525004161329 -0.11143855298866615 0.28229530003464925
Ni 2.9151485791591094 1.1805658281348035 3.859514616851759 3.1484675160810935 1.0654759486701522 1.631587099149035
Ni 5.846103858466902 6.751901361506841 8.500224857409954 -2.0212652940457385 0.9240200233837892 2.0828861521813287
Ni 3.661705454183801 6.056490385431127 9.953716603279924 1.2556136554329342 1.5084011758164537 0.070913082070794
Ni 3.7457408394173974 1.1087138040057896 0.018079437235470067 0.8311160388642009 -1.1313674091566386 -0.46602684616077156
Ni 0.3734460984449775 3.3389488443711923 11.905879466727987 1.4141864429052418 1.5333164510008948 2.1476954353472304
Ni 9.288853449129736 9.080637199793468 6.893569260883018 0.2682971859833444 -0.3830509193881726 0.15722347253326469
Ni 2.069634495896585 0.05210622351310825 8.252749869248307 0.2572188166819957 0.859538555870952 -0.4132171585589077
Ni 8.034246690245448 5.283452397546857 8.795768234957158 -0.837360477112016 1.7738038138608225 1.1523008168751963
Ni 3.9223902609375876 3.73702247092054 6.16034795014994 0.5422384576263436 -0.001116630102946464 -0.9918799204505562
Ni 4.542158212907556 6.12559463316423 1.2579944411730788 -0.10667481305143563 0.6431912805923373 -1.2616421210152013
Ni 9.236962390480173 6.631511497380901 6.617807079037496 -1.0384094314706631 1.036477247444957 -0.709114622758024
Ni 6.738153165031027 6.679145831240866 0.18354773744836628 0.6035726377594508 -0.8446660096344937 -0.21728778481501285
Ni 6.982649377289582 3.2431119923795637 3.6841571159624595 0.8904696982321696 1.0394820957095516 -0.6844135204669181
Ni 8.17298611199832 4.389847570107758 6.181327921519941 0.0810591693658604 -0.1601445028348016 -0.5696703285850512
Ni 3.567973678346328 2.505115139415355 8.076628579665908 -0.3633339005752194 -0.09429777954332147 -0.1913471536898511
Ni 8.854769980049566 1.232326483836765 2.5299988161668017 -1.1230234080673176 1.1825513882296215 -0.6848657775129883
Ni 3.992761280161687 6.486261242744156 3.4030102238305786 1.9005005785601397 -0.6268560337674237 0.1247139299413336
P 0.8665704335018358 7.848292086964188 1.454514477559023 -1.3649989254369974 -1.214178271106283 0.26339846313014637
P 3.6894253950456033 8.030781697637721 0.6014314346377955 -0.9041736780818234 0.10415744594622062 -1.3634796605789938
P 6.293562944172592 5.7230221049225936 2.9068614718389663 -0.2504922965914396 -1.2791976134004615 -0.575940477864479
P 7.461237509487257 8.523322945228871 12.824505825463142 -0.29336364203366894 -0.6725591922314933 0.45766150491521174
P 0.7343725824704831 8.04294642974979 5.132155171939857 -0.13057424537685255 -0.3273448840751201 -0.7798484989384762
P 4.779864157394519 8.19054393744338 10.213869552297417 2.1633259427956353 -0.4850602086431388 -0.758125762549404
P 7.20800429973933 2.360069803696272 0.9711163394940647 -0.15539001886895173 -0.4534366682005868 0.37741146171420803
P 6.0647244001226035 4.029236847505376 7.04550546093327 0.27972111154956986 0.006813680487723749 -0.1912831332211351
Ni 6.593163716289489 4.0645108448318705 11.206698914016934 -1.1360753561552692 -1.6784030310613094 -1.3153586367020507
Ni 8.252746143449803 2.0657876089423093 5.842119116968017 0.5724679459348464 -1.2992370485498397 0.4747968790439178
Ni 0.2271023219476234 0.04630794959292271 13.617056751556884 -0.37212038851859786 0.2980641328331318 -0.3807461825143959
Ni 3.8620043817013427 8.789531248263254 2.5893554435666126 0.8411649384597707 -0.08932320914686552 0.17668980878799248
Ni 2.7835626905318627 4.974881765534157 7.947063936726501 -0.3176250856841949 -0.46811458192773575 -0.6457163610070363
Ni 3.081114273472147 3.1743803244967537 11.915122241364132 0.3020357158863702 -2.638391502119908 -0.35881441543831105
Ni 3.3576337238633887 3.998983363661581 1.1412139443468519 0.06758864568325133 -1.863622217476552 -0.6970152683913287
Ni 5.818719239470362 2.3124913568138497 5.466047262028099 -0.5497201107153694 -0.32043632988074494 1.1592330252186553
Ni 4.656801032842726 1.4805764380870219 9.797771444040515 0.6590259336317489 -1.0259460088963297 1.1271523426340266
Ni 5.572769965795665 2.6154826055684124 12.81918911099946 -0.5683348976030792 0.4461864143960767 0.6071009626276835
Ni 1.989613658549896 7.474054256337338 3.3747761227753714 -1.693944064119702 1.5111833665472811 0.5393616502991808
Ni 4.589950893203897 3.0964459343117055 3.530953212971585 -1.3031124723448462 0.7539243228735467 -0.3706507459516068
Ni 8.58564623968664 6.136893117124367 2.2366639056822093 0.5870957231503502 1.3930185505783752 -1.5013563531545306
Ni 5.68663036804522 8.620473141192784 0.999067279863049 -0.7133685129383713 0.7986987988757599 -1.4357613408625403
Ni 0.9405964610573099 0.9523234118452835 4.5098900035233 -2.093303490859911 -0.2420102272623574 1.4945796965523293
Ni 2.953468416761749 5.182641604553816 12.568305948657258 0.3421043017724818 2.404876713923071 1.935895927340298
Ni 8.657610037770743 3.93551438616416 1.8367618435175481 0.2538864098746531 -1.1016058616234898 0.04709026861958342
Ni 9.148763425419551 6.178147021048064 13.485500669317661 0.33211016667424736 -0.9724999732620477 -0.32269530111825073
Ni 9.095894344662968 7.742637755917338 11.412892986215738 -1.3146024752623164 -1.2415134685861264 1.859919571813984
Ni 6.652785806832633 6.322158447682584 10.960096694154599 0.132398700180101 1.1999685552648043 -0.5743813609074754
Ni 1.680297866836609 2.0500274812749137 0.4000613400506613 -1.2181040885232506 2.5692992753079364 -1.321037432254383
Ni 7.753014104747998 2.9968460258321175 8.55733203396362 -0.09385606402021256 -0.8051316989852972 -0.7631149882338794
Ni 6.116596829779653 1.0921526296602637 2.7217833626555215 0.11197797043190393 0.46899955563585033 -1.2285965034141422
Ni 2.05463815692229 5.421390772621601 2.336973578776606 -0.8104862784289912 -0.07875443249208372 0.42572968920362164
P 3.0215573844028034 1.2796348103277246 6.407590075905154 0.03789163283945087 0.8491137609932022 0.08441574454291914
P 6.726929197040949 1.953398897101412 10.194347299591687 0.1747583960932345 0.47303593048875303 0.43963781464428153
P 1.3523437681124126 1.2324662012806247 12.00883352530984 0.5393346537159873 0.06975994230295729 0.05164086410474332
P 7.808379470501546 7.791026563974146 8.431556528101694 0.5894480254326105 0.19794743261518813 -0.2843339277312329
P 9.11807216025166 3.1615542631504154 4.125925044454925 -0.5581695270343032 0.05601148236861321 0.5064301896784826
P 0.15202096196619444 1.633520466632317 7.8280367834030065 0.05016273689732006 0.8758570905253173 0.9348667362903061
P 1.1927957617206728 4.421181535517404 0.6050687454262813 -0.274348791494063 -0.37210881855437206 -0.8666792806807914
P 0.4141830478263935 4.883227122362067 7.646271840538292 2.110471517998765 -1.0872711901683727 0.05566824009658154
Ni 6.215824158408949 1.116295803959253 7.9802999222718904 0.7607824834459608 0.6006390090524236 -0.07724956581178309
Ni 5.0549584898583895 7.761695215259826 5.526194690160158 0.02990192976575495 -0.5622915196224767 0.08181635924685908
Ni 4.401416174459357 8.99259658116922 7.802461971029266 -0.15239391235510527 -0.6284269777989693 0.06339234821371663
Ni 1.4162691559264418 3.3730864731542924 6.12941450807936 -1.3378172228158831 -1.330723034973263 1.5055935311643298
Ni 1.4759937059284172 5.7432625052897635 10.881135846481993 -1.9826074724642242 -1.8716417453469185 0.4542920742223467
Ni 7.076967966391266 8.566411804915262 6.415661086912127 -0.7679738589880774 0.7719197310097029 0.4937993882883495
Ni 0.08604265917705035 8.913004210650369 9.542104356420552 0.1805616330385729 -0.15930375210106112 -2.2529903373320037
Ni 7.900974877795624 6.292696696020661 4.30574046325298 -0.953553256956216 0.7177900390448347 2.0352132715853983
Ni 0.7642814299527573 3.6736000659044064 9.611249587937186 -0.5708869746009716 1.641509757579386 -2.0737919031895444
Ni 4.860369348546589 7.2449642208884 12.260643480029646 -1.4671395980635054 -0.5621171988281416 0.5101752585432117
Ni 1.4308742860579293 6.822123348790822 8.494785191595676 0.2254906323407794 0.9868657550654167 0.4997995717358425
Ni 7.793522848971111 8.667734895202456 1.7207479297332995 1.6676339654702634 -0.8810185801215987 -0.08378402449619118
Ni 9.152377449967393 1.717872544738663 10.510803584135841 -1.6610871654906814 -1.4589076970720163 -1.3491205636438444
Ni 3.2267929949367278 9.232165424907649 11.093097454763333 -1.2911840963383763 0.9438648260238583 1.0908506799895148
Ni 5.609673999967192 5.242487243007137 5.070903044551681 -0.9187240650921726 -1.0707857909188399 -1.9779447768812324
Ni 2.2463398043943195 1.9098070546171255 9.965399775935486 -0.2389804392970981 -0.7788426833817812 0.4745140576961763
Ni 7.650265896533433 1.3283216822647685 12.517483262728408 0.3627805991749107 1.315393346594728 0.047032161688138355
Ni 5.4784606911902385 0.2879632404929925 12.111991571359727 -0.027363736724933516 -0.25035165724851727 -0.22253643480846189
Ni 1.366492487927291 2.744181000355888 2.7424233549121304 1.2260130589576823 1.4445465432543378 0.15171745511337098
Ni 8.178919446114238 9.115519988277153 4.333196803870701 -0.6236892060036677 -0.6681325239187074 -0.208644250207402
Ni 5.715291073029013 4.126722365334552 1.2830690650978007 1.9647344488385454 -0.35329605672324316 0.3258886112445678
Ni 6.763367506399609 6.254600406328197 6.58551092616447 1.2420192045779512 -0.014618778354439338 0.24087225700317225
Ni 3.1286461478732823 6.324067919415336 5.416042388870644 -1.3310073989829012 -1.9123880740263448 0.5334105749220684
Ni 6.08755423044931 7.842749961691079 3.2487696174062632 0.39532510876983534 0.3089085317468035 0.31151125947697317
P 3.513521133225999 1.8848162611587196 1.967949071704981 0.7354524893216043 0.9196974847490356 -0.07494354338642577
P 8.454852083241267 5.093296956453544 11.154948504260856 1.7469679246149012 0.6265385025270048 -0.019458880055560037
P 3.6862212083330834 6.934092908300141 7.311506982150739 0.320414475503874 0.81761774726745 1.4016525721042892
P 5.1392360519946765 4.95947558872454 12.793122493223335 0.38626479833977995 -0.022846051360238075 0.4940387579926653
P 2.944871136716237 4.050650874400969 9.907051908480344 0.5009969344780533 -1.0804171433610168 0.5468646435444453
P 5.789667325643762 0.2844414294580975 4.639469549656719 0.7276797873547209 -0.3687180477052682 1.248836741720417
P 1.7854305860930493 7.717069463690978 10.646203758980462 0.14603660267850976 1.4776029594886746 -1.1917929614325473
P 2.5278052522982013 4.192100814564724 4.5851977057637825 2.707586315948014 0.3738358285478078 -2.09767950844042
