# total energy = -340864.03946074145 ev
CRYSTAL
PRIMVEC
9.34405434051928 0.00000000000000 0.00000000000000
0.00000000000000 9.34405434051928 0.00000000000000
0.00000000000000 0.00000000000000 13.67596803884097
PRIMCOORD
 96 1
Ni 8.065030983454205 6.959320981281751 1.1777965794903609 0.7249299925237258 0.1745449945308478 -0.724392889073333
Ni 2.3587103355648082 3.864925202087154 10.537306154300833 0.7438821081461963 0.9031177260134834 -0.24162121935405484
Ni 1.2633068255153985 1.5346488243921774 2.625170065960816 -0.6910096856271971 -2.0511186299617448 -1.257002822470977
Ni 4.118149079271655 5.629792841463528 9.622520414687335 0.05491876352506671 0.3484037616279484 -0.34291882725397715
Ni 7.215871341871332 4.239322778139869 6.627141712310033 -0.1542721032144246 1.63326371552051 1.4861287375714984
Ni 1.5180724716938268 7.92249677597921 13.175044907981238 -0.14296979082772798 0.4906474729229292 -0.8780641254789653
Ni 9.342643556422352 0.1856897232232099 0.8834102733843413 -0.7101590048621382 -0.9441684733072062 0.33128587100073914
Ni 0.3289219315700016 0.11096905693931404 9.555590821052755 -0.6613278422920481 0.809086055647355 -0.03767643150485124
Ni 2.5233058557347334 9.210014046726528 6.049728667164164 0.71133039946242 1.417747677893939 -1.4342225356205107
Ni 1.826482334806433 6.6399785743940205 6.078626090137624 1.2134786739360972 1.5394187072438907 -0.04257335458583636
Ni 0.6404143982650125 2.557103300892532 4.565379822597517 -0.8732088542691929 -0.7660964394597064 1.810368500358734
Ni 4.919896988277621 3.9605802880922365 1.803477272606129 -0.8452036273055185 -0.6509979211209498 -0.0434632133899574
Ni 1.1221648821621926 5.825849793164088 3.075369415404078 -0.7796582373045411 1.5254419333488245 -0.6830528926739656
Ni 5.872626130034407 9.026468784013055 6.772066128928342 -1.6266030156708826 -0.21553789200344167 -0.6996339369610983
Ni 4.0715689675460185 1.6759776488355564 7.012804480478381 -1.0021360509609258 -0.0370735078135297 0.3225605753125993
Ni 5.018271194144722 4.000759722479446 7.380044510777466 -1.5598227248215393 0.17796584728693868 -0.4557815142836796
Ni 6.6893525584177445 9.431141096673805 1.2777732907056953 -0.09611529236803447 -1.213194309926459 0.5916959409265229
Ni 2.465073708036807 6.12235533083267 11.594595266009446 -0.7417059264304838 -2.8703356033955147 -0.2531233064563834
Ni 7.833513344893307 8.271207546187638 7.449382067258927 0.8783644303282034 -0.8590639302273786 -0.4179361613011318
Ni 4.789351202737229 3.5865471301653593 10.818320183999518 0.08085785198833172 0.38014762969844856 0.11427602243746125
Ni 3.9496103680990773 7.172898035186036 12.7548371702944 0.8888090227002952 1.8266556675545316 1.726155872965556
Ni 9.0738151082084 8.467301874106234 3.1537875240570474 0.3276899261193647 1.2189078153714685 -1.2462900640391632
Ni 8.195903810902402 1.7454039738348492 7.550515572422433 -0.6329066108368777 1.2424413797170344 1.1720186070190977
Ni 0.4477343878638791 5.136202506098434 10.336748171543453 -0.9163887320907766 2.061711574986243 -0.24658087735217535
P -0.29990023267157573 7.463843860421971 9.016360385845594 0.9755287327860426 -2.3728076013026684 0.5539513751878976
P 3.753618824780078 1.7256693307125741 1.7648704425927266 0.5292590146475401 0.06024017573798012 -0.7102492505830994
P 5.205927840842004 8.35389308453471 8.88013434956939 0.876987604585335 -0.2435652304543031 0.9919580819866595
P 3.3318936126410343 8.793400032403719 11.55931118177932 -0.7006022144116386 1.1416063132758274 0.04771710357030492
P 6.156582602497868 1.6735481946633068 7.221786128375309 -0.14798344199223545 2.9582555044369503 -0.7280839647716751
P 2.6797440163186046 5.255273792702201 4.56103109962919 2.170250180719295 0.0023795559757700956 -0.9305927915053005
P 6.5573210682104754 4.980035323095313 4.575500368035839 -0.4525180130410594 -1.198660377976342 -0.6093846164555377
P 0.9457958533113641 7.624159803626933 1.5570502606712224 0.11772258622516499 -0.2701154701390058 0.5816503837650628
Ni 5.846369336865091 6.274999805286028 13.494597556095412 1.4540879070858699 -1.5112964950863779 0.43326970633440864
Ni 1.9887511854037037 3.879006692231694 7.758075989628597 0.894981470059594 0.6235187418640746 0.14568461865572974
Ni 4.456702862229176 0.7954322625635682 13.202328612741054 -0.6432586434951632 -0.11753438147375887 1.3813262018421115
Ni 3.2646070761242236 2.8089909782822953 12.62216654675874 0.23897735397330452 0.11908038580464009 -1.2675019222300878
Ni 7.3418385407024855 2.6478527582805715 5.188758140682353 -0.5324502678913282 -1.2563808726162622 0.03600701422222831
Ni 8.122693143827105 4.81057155052638 12.624396038164502 -2.1498975852048714 -0.5067703466267207 -0.09660277352741428
Ni 5.329979508498883 1.3735292924994709 4.772954255885443 -1.3847516825838926 -0.5591141503357597 1.4161605359124771
Ni 4.748788662115165 6.386259462320561 5.237895720127008 -0.41937109397544553 -0.7347055838532508 -0.23503842393021457
Ni 3.3630093141548496 7.867161285178966 7.833567540409456 1.5322566422778126 -0.16624007420957823 -0.1286518315431591
Ni 1.4929369650655497 7.748856211044909 10.658448083383716 -1.1031202413854873 1.5038657498399455 -1.0475324768178538
Ni 7.787447156165647 3.6707277172338153 3.139250044052485 -0.006555027509698387 0.7082106228865158 -0.38726932834489436
Ni 6.5537329512791525 3.381155468010654 9.021052035614389 0.8792090377166858 -1.1334926830297576 0.5584922004810445
Ni 0.8447800832346674 4.813627056350709 5.280003767364802 -2.412810366947851 -2.2430525093930016 0.27937401262279626
Ni 1.707158758730932 6.33069971421211 8.460186376597893 0.09127544777722989 -1.2776140709634254 2.0096809316422486
Ni 2.8690545606639177 3.2869206782908873 5.635470288982986 0.0027027436431437324 -0.6136014827503625 -0.8023405093934053
Ni 0.3808169415001595 3.0124390770992004 11.173115802503979 -2.423171141356885 -2.0403799033880023 0.6493251614042173
Ni 5.549564789452233 2.9419381858314124 13.595772175098755 0.6219609104586514 0.009972023611047343 -0.8591130382977592
Ni 6.188212227009658 5.872065486763887 2.250189420906761 -1.151134821591553 -0.5656241835401355 -0.3162667718840876
Ni 7.489082151649842 5.60077955221416 9.035903475850441 1.141065353170693 1.2000608578682945 -1.4889816336392614
Ni 6.088501821347821 1.9634568298487796 2.7746487747466424 0.32924235820814907 -0.1129249077262055 -1.1986467511295873
Ni 6.421953750543617 2.016157297277583 11.450286622583258 0.8670688028097261 -0.514806586667636 -0.054171343836080896
Ni 8.974926979343325 9.712864340109698 12.176288822525729 1.7070039826274535 0.32342960818111394 -1.3765799454063776
Ni 7.089240715170065 8.955921172472724 4.527059855057531 -1.5199045484703633 -0.9022867454717557 -0.5001055330120354
Ni 1.1027853131112457 4.4125708927848075 12.736019178919424 0.6480925745486967 0.9393605103956016 0.5216495777313983
P 7.12854180843346 0.29487032812956776 12.908869236842293 -2.514027242208509 -1.1144364377292548 0.061546039033597226
P 8.161312121111367 1.7179885179064611 10.147745980996927 -0.03181868717249359 -0.29662894304850207 -0.3675679932612251
P -0.050834459743425785 6.493230198335623 12.292301800088815 2.4411855756564345 0.5915650717756135 -0.4457346715706388
P 2.837630505351317 1.5616437978676765 4.103309786306463 0.37570502054606264 0.49857186997632846 0.9366767929158514
P 9.107378952003483 3.999862693246614 7.528470144620168 0.564237587605254 -1.4163178874259479 1.1887176649413334
P 9.031131467212873 7.646707007156312 5.0467331841780805 0.12358701542574199 -1.2970323275890374 2.203884323833972
P 7.162077620065016 4.303123982324952 0.9699595782707411 -0.5672426929801649 -0.08319935563731477 -0.19739747364898907
P 0.4593312939145685 2.361578960298965 13.393778011163397 0.21261506192969187 1.076932527246526 -0.7402967047877831
Ni 7.4892596886855065 8.66352701878795 9.754712622632153 -2.5292456018201603 0.6705002528199355 1.0957424608641773
Ni 2.0462638409044636 5.864964005337311 0.7563367384993636 0.1448508099005247 1.5670590946689784 0.001600768828216598
Ni 2.893050092642139 7.512012461414076 4.172004471837728 -0.21758603278172203 1.1120044312489945 -0.9237521144343833
Ni 4.791378862565606 3.7922845223368844 4.114469390606147 -0.18661529543182054 0.38272001841131503 0.7193725530406062
Ni 2.4579255063376872 3.7211015150899645 0.7978448974377025 1.0507052181188807 -1.6852331666092655 0.8462642073595491
Ni 8.759892252935689 0.4010804581076247 5.8935624185664945 1.5713065570914229 -0.6882609192374662 -1.501731734216078
Ni 7.841558575825257 1.9426663085670264 0.36912846371528524 -0.4880925677115594 2.184970003427973 0.7292615300195441
Ni 0.6074681964729522 2.346936826883905 8.903055315279117 1.203250825560502 0.629640024270464 0.12052971665665696
Ni 2.0230532095049694 1.1842280922086665 0.3081248694500922 1.6296880823541096 -0.26907777290311075 -0.4912678801157475
Ni 5.687725979417178 6.748799433201796 7.422071264741036 -0.9704160941498255 -1.1727876239746382 2.0461589719636244
Ni 2.6904429587310124 0.5344958027876254 9.062462081980387 -0.19768158054831117 -2.4042552782889888 -1.0417912034587027
Ni 7.164011839348308 6.572514500841545 5.759155669703126 0.9491265886434299 1.1216036449016553 0.46825882081508385
Ni 2.964391948815706 8.779561487676403 1.650018931005067 -0.10729470602362166 -0.7382922727632446 -0.0036548231437678992
Ni 5.3106373156659705 1.1518415992816748 9.16942253953549 -0.28405573436918174 0.10041469107433675 0.9639258584397917
Ni 7.42811219598088 7.393576570516898 11.987560412776306 -0.41764459820264205 0.484534675156972 0.1659665088332174
Ni 1.102187293622692 8.364349081529891 7.554002773565062 -1.8230828626016087 1.2693016944429882 0.03797313680966363
Ni 5.579391011443853 9.075244748548224 11.586184682546207 -0.3821510332817225 -1.367235528077 -2.041475450445026
Ni 1.9373588856061112 3.6366686385497746 2.9526418002710746 1.1660955566664435 1.5282112685638454 1.432054067214282
Ni 7.821590331340265 6.4183282573942595 3.519223217430513 2.450193435582 0.10913818699026365 0.3234203522097333
Ni 9.144287967312662 5.955068722964253 7.0524643854349085 -0.8944286828799175 2.2033976140055405 0.49247321327775834
Ni 1.740161959255495 1.0534580493600656 11.150782577822849 1.3823248183099548 0.15364423982243863 1.1152471065560083
Ni 3.750423158138118 5.873822169011514 2.7010998528981314 -0.42304725727545206 -0.8347222681582204 -0.3241520881694353
Ni 0.007473374796020797 4.163308894711975 1.3959475480766317 0.2432520700892585 -0.2948566816394277 -0.8227077601958476
Ni 5.0416780506888985 8.895465139801738 2.933152905782377 -0.23377344117486193 -0.05475806957748634 0.29405064079836457
P 1.0504305756992622 1.492768772084394 6.784825435359908 1.3299843570350256 0.07957487151085005 0.33956070941502164
P 4.096106454685742 4.954647526995303 12.557342168604958 0.023993791811436096 -1.1061202045540757 0.002163069089589823
P 6.455470874066156 5.0123190314227095 10.690969130695633 -0.44835796812609874 -0.42232631994902753 1.1722088686530328
P 3.2952275427490796 2.350870673832048 9.53145232504055 1.2968837178263148 1.4122347184955097 -0.3892305658363232
P 4.501171217635856 8.659434322913159 5.091070722821639 0.006189159529847406 -0.35916717079203947 -0.2771584930287162
P 3.580978073678202 5.6628053860426 7.436348980030258 0.14322227315816624 -0.311524886323728 -0.005409343941029393
P 4.770522932902292 7.325355628549221 1.424160986260059 -0.19880720951232211 0.9332124885163346 -0.6494133502426493
P 8.30684577008364 1.2692122679648672 3.869670112966648 0.3860547392115029 0.41608008192899953 -1.953604400363655
