# total energy = -340871.84162097034 ev
CRYSTAL
PRIMVEC
9.28124828036342 0.00000000000000 0.00000000000000
0.00000000000000 9.28124828036342 0.00000000000000
0.00000000000000 0.00000000000000 13.58404502126480
PRIMCOORD
 96 1
Ni 8.037226689249792 7.6921034803868915 7.434112628248608 0.3612045129370425 1.4814030499610553 0.7387239609840245
Ni 6.880857431789887 0.9305750548186082 9.55704126735467 0.5574498752594592 -1.2924367377985546 -0.6505932294833635
Ni 5.056182627002238 1.596170477714779 8.064086621116116 -0.5375523650045838 -0.32100762900318264 -0.17313962954288892
Ni 7.051493177250272 5.307611636766821 9.232015673026439 0.01851991318105843 0.861280478262723 -0.150099974114606
Ni 6.233573911302926 5.040534442784332 5.948317536758389 1.9569571188859718 0.1777737858807906 0.4213644702563904
Ni 3.2519451304280134 4.381964924664529 2.7276901216367118 0.6684582826892422 -1.204194934641326 0.3249182769114985
Ni 7.017570215615368 5.665394467974458 3.300501835868595 -2.0326673652350933 0.7239180063194435 1.0800826428397334
Ni 5.518667217499439 2.7793439795526886 0.10598164339611629 -0.9964958219560127 0.9908838750858739 1.4608308822366582
Ni 6.825030724749135 4.273290791208143 11.31972011952052 -0.4333481249808279 -0.8306614678252854 0.5114039887439902
Ni 4.505934554912795 4.233502080803537 4.920507486709118 -2.457734995374683 0.008740722307107528 -1.1700622546236752
Ni 0.3440660747096277 4.33424074717433 7.871044086605393 -2.7025158434036425 0.5440120045869986 -0.36773331519449576
Ni 1.6475143419457745 0.24457573620200704 11.762193411089944 0.630325737483579 -0.7234405524623928 0.09164620085308733
Ni 0.8802920372401076 6.836177503661179 9.72911003751449 -2.457073964751917 1.483699816415032 0.8591703738982558
Ni 8.544790301541994 6.3114250199742195 1.4684076013871188 -0.8355033692986192 -0.14464615008888637 -0.6471168408989888
Ni 2.5324627813342353 9.155180861016985 3.998490670720482 0.02929772052285277 0.053810875172868616 -0.11637867060276086
Ni 2.562756774980289 6.53038822404827 11.406780082510323 0.3203697383088676 0.3506892152280154 -0.19290601353653875
Ni 0.38634030334291375 4.005508222373601 1.3976213787340175 -1.2395026088036847 -1.1898155259912024 -0.5510311162173092
Ni 1.6560994963951006 5.741417170779246 1.9312569449328145 -1.6519474079729422 0.2463780173127499 -1.742826648753018
Ni 8.81325968273248 9.152554267817894 10.22559369588063 1.1153031566049245 -1.1617066835701284 -0.6995316070552792
Ni 2.430703177677577 6.060812760038329 8.448922434149585 1.8725850830967943 -0.3668889649163294 -0.7875790348135147
Ni 8.413859735253734 8.226861149475335 13.336013715367512 1.187365521788813 0.4477411604777063 1.2097207495555617
Ni 8.636062094898394 5.259376990633689 5.210948366416243 0.6003325335555983 -0.31964031634201084 -0.15941353820604803
Ni 7.716262569069697 0.8709523173240465 6.718791062657136 0.513336944100645 0.9703577301080645 0.4589023193008484
Ni 4.989134891065016 8.900262101984353 13.106307466671739 0.5417085532648025 0.6917370507115248 -0.5280518817133163
P 4.7666819377229155 6.204662823616818 3.743314821116772 1.6056742359380154 -1.154409892798399 1.1562510597721958
P 3.1328667179038496 4.335122465739396 10.696606825214031 -1.6336725209231544 0.36772097389932157 -0.3966520551113749
P 3.9750471662625873 1.381476647745258 12.306071762640393 -0.17048008043285479 -0.2172872705943806 -0.03121884880496559
P 6.184448265356676 8.826810304890337 7.781986799034515 -1.1806181757626506 0.6350797072287966 -0.49627356086045504
P 1.2796149503600127 4.713602480105948 3.7849495717591837 -0.589962503175184 -1.1778110453311588 0.6403332423182521
P 2.405708776669972 8.642623937272095 9.836138605691021 -0.12584290133945425 -0.1787315218083696 0.19846628123313562
P 3.6269168330304087 5.438050296908255 6.639039154384523 0.3948250292049652 0.27822807194381116 0.3149413682044447
P 4.232546112254044 8.558637923637555 1.601409742240881 1.6258694799389677 2.2557650718636633 0.2092983388516331
Ni 1.6168676608736945 5.012310167454171 13.040981402248407 0.19178295567568907 0.29330964886728195 0.6993675706735891
Ni 6.718723309546347 8.315422818400165 5.4488184008997225 1.073631487897751 -0.9282721137919239 -0.7075120541575944
Ni 2.3324333232889685 2.856322650906969 12.415205317875417 0.6070724233825932 -0.5961326365416378 0.19064884207124586
Ni 3.3925189134436784 6.885822899498415 2.3740290926895566 -0.5008470391637503 0.39879789780978414 2.7159341736920775
Ni 4.525620082033898 4.773299467584936 12.475450827114358 -0.84810177478892 -0.13179526226814722 -0.9477857583448193
Ni 5.511279344048991 3.48253773831288 2.7283008277586207 0.7350426554776954 -1.1592870183850421 0.5949489006461818
Ni 2.6294054172512187 9.110445245399958 0.5084165589883014 -1.935979231082724 0.7734428525224486 -1.1263740697071052
Ni 6.904710239286932 8.52197699382692 11.676830988369097 -0.5090396022768716 0.17831551731687353 -0.7181389377438213
Ni 8.331312315067457 3.0019918391039093 9.68013938841073 1.3669272528079621 -0.770074450270848 2.1296254652193967
Ni 8.908327506542692 1.0878458030822054 3.794811825940647 -0.194418079305691 1.2084053731782478 0.14979529838999364
Ni 3.5989895576379527 8.449063509119997 7.926751993671061 0.3342246419140889 0.035220513765190954 0.20598752931084527
Ni 6.229183880973704 1.6488786854096134 11.922335777501242 0.4936898592936788 -0.5399746012928313 -1.3297208189609937
Ni 2.0135296401767113 3.9838736331612994 6.0632518720267425 0.4859462107925179 -0.04920834340385074 -0.8285055978245474
Ni 2.4043258707100263 1.4787905335843738 8.402899509427561 0.0924329584204408 -1.4731994311043404 -1.4139517011866165
Ni 1.0641414955540127 8.651246216713634 8.113464717009418 -0.3745043153697421 0.40069100106743893 -1.143220966061115
Ni 1.2697675461754345 2.1385573327030563 10.433714545978788 -0.3847097951478342 0.2367497501943665 -1.0644292525731927
Ni 9.37443178378069 8.68000880443089 5.322731717970493 -0.23797205263724178 -0.7610640192421215 0.6134035078069436
Ni 8.808396308752538 1.4852224384853283 11.874941084316935 -1.3149642294771096 0.29135843867818206 0.6881932992243244
Ni 3.779686175988143 2.3212772631288714 10.177274590390212 0.17559529017223308 1.0001300762744905 0.29594014451159356
Ni 8.79372265558023 6.162247520013122 12.402572611150037 0.20518354535231118 -1.0508013773771128 -0.9633226776381539
Ni 1.8836107299262634 2.301712392232462 3.920382471478112 0.3052614219125194 1.3212312934327437 -0.32101199987855683
Ni 4.267322948709855 1.625183659129474 3.7947839821964875 1.0128665500045524 0.3350394245059004 1.3963368163183307
Ni 0.8502514216659097 7.9612503926852725 1.9708414678802468 1.6755190246452951 1.0026047630672281 -0.23029756681111951
Ni 4.933419559000905 0.3676181697697459 5.9370835141146445 -0.4685683816357027 1.194193343343924 0.3440387997910333
P 4.718020354179331 7.09223785620437 11.611682195783585 0.12220993257255727 1.0321372253087062 0.28622008901035223
P 7.2829953474443645 4.505433367517915 1.577718428459963 0.5856219668183011 -0.2845085056358842 -1.1284985722492757
P 0.15878637607070528 1.7165297024703015 8.119237653298587 -0.012715133573823263 0.12985099405758282 0.7019337887388685
P 7.907549091448732 7.012558341666572 10.464333383306707 1.036677793491537 0.032631927102408316 0.15815369765701792
P 1.316619286348621 7.276879004977224 13.392088231731288 -0.19769520739506596 -0.17588505349851 -0.14935409708751698
P 8.266325016198074 7.283236659893752 3.970412110984757 0.6937337694265795 1.2278606536893821 -0.33473809121539766
P 7.9573429872548225 5.680754933502711 7.307903432845075 -0.08688374646743746 -1.822079618148075 -0.8936840914044094
P 8.178162440939538 2.9402901020454024 5.462687369865807 -0.27978281802544075 -0.9764044505227765 1.1966101803155327
Ni 1.3724274308932658 6.942781918801673 4.139873778566397 -0.6875710922592932 -0.7509948079315776 -0.06930074327835162
Ni 4.28472528880984 7.561479195284391 5.627299585339585 -1.0814108747328537 -2.339241849532081 -0.3327406011693947
Ni 4.630006278889647 5.745983544821482 9.89275700319072 -0.9011431187856158 -1.2575818349028989 0.3923341444623114
Ni 4.952826648680407 8.487302251099697 3.6174852287586194 0.4861117898361047 0.07668649421946148 -0.026814549089682848
Ni 7.259179664939532 3.3646751692837022 7.857215027005938 -1.1928010909820876 -0.01958949209615336 -3.070666962861847
Ni 2.2264414705199935 3.7022248797350903 8.490218419238051 2.848511565541888 -0.06255519702440196 1.811269157796132
Ni 0.5118088551517919 1.5362507402825107 0.41811279980386223 0.5457791237897504 -0.3805510357844543 0.5132317859813483
Ni 5.455461918256294 6.605816926977645 7.463889656378091 0.2623373688554837 0.15201056087375756 0.6458048069557846
Ni 0.7321809526803372 4.647055931563607 10.565343990245461 1.0048174544478308 -0.45521947113262246 -0.002831298801208027
Ni 8.104525018884454 8.86854807738614 2.146414837305002 -1.2059929070820135 0.24757203762085106 0.0780221823117495
Ni 0.8957100465062916 6.4489731161245 6.607958110903547 0.23329033089085627 0.3588139012176788 0.512665371954917
Ni 4.753808846672953 0.26125042645461133 10.41851371791705 -0.9469339518674852 -1.4619313143896886 0.3103684041217816
Ni 5.77495031999591 0.8305250570533721 1.7588484810942435 0.36283767766509123 0.3316972475065449 0.2941938512444482
Ni 0.9668554534590568 1.6364046880259442 6.002993369040528 -0.33091717480741073 0.2007681898934349 0.8524176285554544
Ni 3.464272242143936 1.881763761563652 1.6743417894439112 -0.7437144722200805 0.8668134922658104 -0.913330147770111
Ni 5.872635455757159 7.560254070541352 9.601121626859133 1.288706324221845 1.3926701661000207 0.1703900918222098
Ni 5.8062930946719895 2.567972836386258 5.8097466470726316 1.250372718748969 -0.2015549474607884 -0.1566611722718915
Ni 6.320335018105411 6.2133129468025174 12.691871897346603 0.8465912516816645 0.8199517947172652 1.0616514327177395
Ni 4.856895668801238 4.11033991913591 8.125296452027797 -0.20073348000075752 0.12751926060061264 -0.3914473709819839
Ni 7.738305533196344 2.3852157809682297 1.470676866536157 0.04557717440916667 0.42836481283362354 1.0775907296558151
Ni 8.434167105994408 3.628773082641074 3.440010131607738 0.47976733567531565 -0.11175068491244626 -0.13699917506658987
Ni 6.133772650985519 7.621213307755593 1.5320899567802049 0.8273385740996397 -1.109138165444793 -0.5098430720147735
Ni 3.813878293816593 6.938104169782797 0.21286356785340518 -0.5705100508775272 -1.279140792020597 -2.853558898157808
Ni 5.170908134189393 5.215671593550581 1.3485709108969985 0.13239458641504293 0.9938781818275076 -0.722317237491227
P 7.39317304308539 0.8069432619994832 0.19187495350561534 -0.3583595872890796 -0.8569653958271372 -1.7520700217281568
P 1.4524410703609834 0.9013019984584202 2.3224504128828123 -0.543944898794489 -0.03537786527866165 -0.5302799997128868
P 2.216779691296482 8.147014572472578 5.8591655804573675 -0.9357249705255434 -0.07279255848169398 1.8533210926608599
P 5.981355995453812 2.798983100433525 9.726855622362336 0.07688986847951919 1.5695533218457423 0.33959207687358933
P 6.720180465490719 1.8683059518863303 3.5413743540973255 -0.2554234153444698 -0.5976043359911579 0.7831788488632899
P 3.413772971485793 3.9398990798846447 0.5213973125156822 -0.3345923096661528 -0.13373695937555033 1.2833059791418802
P 3.333852144498609 1.9803584596341266 6.2208001296071345 0.1044405244042782 0.33660445500017516 -0.2272927185465247
P 8.778557096261098 3.641191392536423 12.099390434115307 0.6921060040151693 0.5629988301021466 -0.16522243157834127
