# total energy = -340853.21727704763 ev
CRYSTAL
PRIMVEC
9.46885019581457 0.00000000000000 0.00000000000000
0.00000000000000 9.46885019581457 0.00000000000000
0.00000000000000 0.00000000000000 13.85861938761881
PRIMCOORD
 96 1
Ni 6.40416225904234 4.825221991044632 8.26748429773337 1.6318038431455317 -0.6645815733426554 -1.6429367198338998
Ni 2.7579541717808 6.943829917012975 0.5242892980852063 0.5547787561851995 0.9629632374162059 -0.16508899132427052
Ni 3.352465411092732 4.858533406645234 4.497288243075878 0.6370147194679804 -0.4657149713473076 -1.794841608367728
Ni 1.6059264915513496 5.771766149401241 5.847686444780452 0.3698097381075502 -1.3401093612841695 -1.9242089779206735
Ni 9.010605356057583 8.970012394522682 0.7542914611053472 1.6690480722089707 0.04072370297160728 -0.19245041405635888
Ni 8.892244726436342 8.750855852715995 10.599349671728076 -1.0679616912064833 0.34138464999763785 -0.36797217067817917
Ni 0.8167195915927739 8.72960775248639 12.440328064201726 0.1375074821615761 0.4200812326685926 1.4789137078802983
Ni 1.2384214710025852 4.4540430565524245 11.645259945864307 0.19922501377603108 0.14945976942744582 -1.0729223776458683
Ni 1.2388286315684824 8.090640260688719 4.545973284136723 -0.8683137309604207 -0.1704235161633065 -0.4308269012208709
Ni 5.324808005400331 0.5391449774302273 3.025323259014884 -0.5770223980747482 1.876220880077169 0.19510070719501238
Ni 5.582048263393948 9.200417930568573 13.30377548548393 -1.6831140633837336 0.3395990188521248 0.11190700798465242
Ni 8.163938631400562 3.7184175401808655 3.3233666870216094 -1.0848181006421898 0.03942221055136436 1.5346757932422666
Ni 3.9687550062549724 5.725075248228254 12.214751641844384 0.021457398542827563 -0.043430303269492945 -2.5835935804434214
Ni 2.82120609225039 2.3452448595670914 12.939197286584438 -0.02193536662051061 -0.33163091304498366 -0.12767584078313496
Ni 2.4733962804706002 4.610184399148764 -0.3767759719457368 -1.6838198312015065 0.6448866660168894 1.7696836210448619
Ni 6.668030712294747 5.568157459901599 12.375345237884556 -0.6379220617735981 -0.8282659710099155 0.06051374111434095
Ni 0.2579504217713449 1.5609589211456483 7.227187158096296 -0.571105518369681 -0.664008731558321 0.3343825076481919
Ni 3.29775439365661 9.28673597053875 1.945042951806719 -0.9052748815658022 -0.3725363930100939 -0.025409955432672368
Ni 5.6707145782558115 5.013557424897949 10.310230635194792 1.3434695360056539 0.8975278906305316 3.026208989658788
Ni 7.165931271284638 3.30752624723814 13.615359369519325 -0.6499640805397967 -0.8781983370639844 0.835583073496619
Ni 0.40538326268267194 6.600082242041784 0.39709896549422213 -0.6655979304223117 0.22024301078859487 -1.8546169286541478
Ni 7.482446532592572 7.375467461115711 2.2055849979242503 0.9301356493632238 -1.0306035622729992 -0.39991812745715644
Ni 1.564935838300922 0.9990110582551114 5.138734679900335 1.2043162907105387 -0.403794322583111 0.9989602243361052
Ni 7.441152876130314 7.5576481422287225 13.55271818989858 0.38181164766443276 0.8924121666705211 0.27683196292723294
P 7.285797448114661 1.5166257637147167 3.274015985779774 0.4625188330075131 1.3965502178807176 -0.13531355983405083
P 7.392284139372297 6.725232037378099 7.2572043606532795 -2.5059406085456324 0.3025049422133048 -0.46155338377045024
P 4.092181470824001 0.026211671593401254 6.683679881300748 -0.8709866498068936 0.24451396752081758 -0.015432789615302454
P 4.5096536147736686 8.633934488350949 10.57470888241101 -0.5174324543262573 0.18076037931294028 -0.8027259177572821
P 7.958379358724762 5.007326921354687 10.214980628670878 -0.5367789771736691 -0.7090570300472111 -0.11876131190232452
P 5.431682919523125 1.524645879977852 0.6848667970797497 -1.8214867217590824 1.4106648029052287 -0.897366425352003
P 4.24583250577311 3.3980105813709853 6.077614750767709 0.2736625640603158 -0.6135230641039434 -0.06490929907887531
P 4.488916832464027 3.513397991976139 11.607771820365633 -0.299965977841535 -0.11866798085756981 -0.15011000141693503
Ni 8.238117605196784 2.9030074905942214 11.445417965041733 0.6748808983861345 1.0768445955184098 -0.00865099080677865
Ni 8.88474539694354 2.1454426479160693 1.6568253498286307 -0.27663733041792354 0.012847288276313358 -1.543666169666335
Ni 6.561780742296352 1.2580788043700808 11.911580831362468 1.31904791262818 -0.6476482879224265 1.3994964449932348
Ni 1.861594920383597 3.5478740761722136 6.718284741861851 1.6493192263214755 -1.2627674928688961 -1.2487729783620172
Ni 4.2616360170401375 3.7246480437241276 9.377753400947409 -1.8027960873281146 -1.5907086157671184 -1.105087135303871
Ni 4.701075893847507 4.144913498532856 13.655993047110815 2.28191524789647 -0.4067724313748285 0.5909832311302144
Ni 3.5358581050530655 8.509769453453083 8.511340335729418 -0.2979072955402934 -0.4972112421833759 0.24083986110334002
Ni 8.6008882005607 9.338805178721726 3.336047371436711 -0.30016061035084435 -1.3422469764524625 -0.9986450070885315
Ni 8.838868816902348 4.690915817400819 12.841937043127036 1.3862917733775029 0.7626462761275768 -0.0933680686402005
Ni 9.26313959541746 4.839766145212491 1.7559840977851573 -0.3411805044066318 -1.2338976039120815 -1.1160058390989038
Ni 8.898503636530714 3.9098587569554435 6.790848329785003 -1.310884660091097 -0.7825111333723039 0.29491504568118887
Ni 2.5377181810319667 1.241858663686786 7.949969125826395 1.0180586357284531 0.2940735236165 -0.24882107953660373
Ni 0.9563444184892469 7.376868850970426 9.477037137728818 1.2660160817131811 -1.2822549121695463 -0.16215716238945618
Ni 1.563392415690661 0.76370917968305 0.6495981701077312 0.28391689479847226 0.882214657312229 -1.7504713097824693
Ni 6.6095510924114835 2.223267129104627 9.953357239841125 -1.0938642700048582 1.4007580853144779 -2.3317044035044554
Ni 6.594950125141408 1.4678422466100265 5.274105152325702 0.26463310686819586 0.8368084612632878 0.937652012344927
Ni 7.068525207531543 0.36441628155816846 1.2029379011271746 0.28108970976232234 0.609529112453202 0.850868796011096
Ni 5.063439328645524 6.968439459123822 13.605007075410132 0.3323114840517761 0.035480966515429216 0.9308632715578679
Ni 4.89105890766515 6.575595794985743 8.781070954245704 -1.1366893355901844 -0.12372405522423853 1.3419129901518114
Ni 2.0474211088889436 6.9634114995775125 11.702301247376413 -0.07126635164515469 -0.5812073826903732 -0.04232498602045613
Ni 6.082429661180701 3.00974984081184 2.0932617072987307 1.4166703856693603 0.8205475193197352 -2.125731272371313
Ni 8.931275327660243 2.8337144435887627 9.139759528215242 -1.7118839364275744 0.8468712448159287 0.21213246586631854
Ni 8.726037995897014 9.423797579640144 5.586783635463834 -0.2588823204273477 -0.587521240723543 0.987926335119447
Ni 4.3199736041678545 1.3458077030453437 11.253725823732356 -0.6726463526286609 -0.3471423784170215 -0.7998789352267901
P 2.8332504699206473 5.391695964411885 8.804394626476348 1.0830638369552443 0.5143646140342109 0.10162028134666369
P 1.1933686809435566 7.463442549900586 6.738822678313729 -0.5466810667787294 3.915349684666889 1.2233108295351705
P 7.543113456911235 2.2208241657092445 7.223361742546937 -0.3730375010162285 -0.008028269621115205 0.13258767626245552
P 0.9282048889605748 1.3590735624132921 9.411221999464148 0.2878049169989689 -1.5932223833279076 -0.11989054041076125
P 4.489693278194342 4.851801054032378 2.503421058107879 -0.00853940492957884 -0.3852615538862462 0.29423113224028685
P 4.280687343983972 7.833210625687709 3.3684204239656754 -0.7695275766284424 -0.09534884651565514 1.7203616348812822
P 1.4158677269307478 3.277765650526175 1.0781128873585413 -0.47738186616227457 -0.43471518053168356 -0.16382503701018236
P 9.777913645766155 4.354175091703207 4.921015509579768 -0.13988189593102363 1.6234660127037974 -1.453340487396884
Ni 8.919638110555884 8.38746978207805 8.024445421524227 0.4230981651180455 0.8127969288400388 -1.4390125008099863
Ni 3.594148347928934 2.950664214504917 1.4225735667625687 -0.31093893191327093 -0.9566231541307911 1.435922806141069
Ni 6.267034367988355 7.709528502158698 11.51448944094854 -0.6616551437244799 0.5372484606109199 -1.1218759247264356
Ni 5.514137668542466 8.153986869662008 1.7762872067478663 -0.7256725271167052 -0.7770020306286166 -2.0010109146720763
Ni 2.157572245239654 9.300465803574815 10.453016164344671 0.7132528132961136 -0.16205791780743056 0.04738286015933775
Ni 1.6409044248170184 5.760583437114626 2.6743811515327978 1.029379202947595 1.282425890529772 0.21487711849099123
Ni 5.949458595439015 6.00156567902347 4.18273966198973 -1.1373498519923186 0.9835947976236284 -1.7297662160246337
Ni 8.923880155521507 6.337624647494464 3.6884296910600285 0.4042388663196973 -0.45157621795308034 1.4756815740962457
Ni 1.5985029128615054 3.3911267271522134 3.3745600265453883 -0.32833630145411197 -0.2052946170088787 -0.6399388350933108
Ni 1.8909672942304039 3.217458542521561 9.843070698930129 1.7550288472461646 -1.462660222135913 1.1691947644170573
Ni 5.566008030867677 8.792935423758939 5.03867544427365 -1.4717318454198784 -0.44223102929275454 -0.6067759751880969
Ni 7.22190164581993 7.463764490813156 9.290499838560706 -0.6276481906514159 -0.615879737261578 0.5038269477276807
Ni 6.7735421119643044 4.76358924398826 5.800788175784368 0.19703546232388003 -0.679440749842675 1.0697658342947578
Ni 3.3347207854999157 7.6063464396800855 5.515038156212624 -0.4495118792248839 0.5340705771035705 -0.3862905093713928
Ni 4.875889809372892 2.844878218174638 3.8423165003833426 -0.8380847568725504 1.0743315992885691 2.973237065447447
Ni 0.9422026904621011 4.54676203937252 8.480047679027635 0.21156425206767435 0.8772105192294182 1.0135635760715769
Ni 3.8942824980972883 5.434182696020725 6.586295595903503 -1.1868556720319303 -1.6266878620752048 2.592714311797767
Ni 5.262332530661055 7.021360863840071 6.637280620719148 3.1484826855897454 1.5358348465473741 -0.4765166899485019
Ni 9.24142752151974 5.98584738740977 7.494547723365048 -0.18256375107026626 2.235942637821098 0.04767185215466628
Ni 5.246368048937742 2.025008340063865 7.733830306632531 0.010392656088233714 0.9118705325054488 -0.769190762114314
Ni 6.137386868726435 9.341276548668217 7.198624370956098 1.8173279623957024 -0.505643175000813 2.047861299366712
Ni 0.7948986259158021 1.53698379200957 11.634879245204006 0.007244340267239136 0.303413055849871 0.14920702998669141
Ni 0.9965491571589896 0.9874211854025996 2.8562891297551625 2.031246573628166 -0.34509500896968953 0.7417817739737419
Ni 9.261539359704981 2.382211251410397 5.0064264336845286 -1.2448098799492109 -1.9001516798611533 -0.5958670415850771
P 6.790491354126066 9.65813268858946 9.477120463612069 0.3275248612964101 -1.1370531466875062 0.09835420900088222
P 1.1162259569816175 7.932709305372508 1.8564864756091444 1.0994571907116033 0.8075333664482545 1.5634713773177205
P 8.502516314069895 1.3710516581309617 13.055692552682848 0.2586043841756127 -0.32220447752476117 0.7814942620720153
P 7.637205423034936 5.613844662935398 0.4792090483601055 -0.569180019212194 -0.7983473290736122 1.825388885026966
P -0.47382600692493154 6.8455621878762365 12.021160996035883 0.7976382188217295 0.6454607933528045 -0.33755987693490896
P 7.279093502052913 7.749771116229919 4.4953064126935 1.955152975797697 -0.43950797393463664 -0.8497508803565688
P 3.237381003699408 9.09847628748839 13.277624414532895 -0.7996704187604099 -0.1369392683629319 0.4453590333987749
P 3.0622072718599735 1.8392957777629555 3.7573487184758836 -0.4549502766316358 -1.7323239494494809 -0.5846878850398058
