# total energy = -340891.4009521244 ev
CRYSTAL
PRIMVEC
9.09159062989254 0.00000000000000 0.00000000000000
0.00000000000000 9.09159062989254 0.00000000000000
0.00000000000000 0.00000000000000 13.30646187891544
PRIMCOORD
 96 1
Ni 6.469566646068539 1.9094794596027214 11.709512962844679 -0.051105046205931336 1.2361331781108194 -1.97731665637893
Ni 4.524448152048134 0.5776169228474703 6.147079751699613 -0.8050684498475297 -0.7914752845441273 -0.32107087814095026
Ni 2.963158422070009 2.1768995000011198 4.7992814752690265 -0.21710626493182608 -1.3749136134475484 0.833347756408197
Ni 3.4060097910713685 4.414003511714968 5.000834761445684 1.2831373147744998 1.72937797944728 -0.5675283425413838
Ni 5.486174769081635 4.874410741803201 2.545207100890881 0.22487022514796112 -0.23478157072440212 -0.08872748454439558
Ni 7.6144160771941225 6.295589971931606 2.325037874185233 -0.06176278303009362 -0.6103973739907681 -0.35091932896095046
Ni 4.8227614166688 4.505237621506153 11.377184421854032 0.8350035468440651 -0.5250596318542119 -0.74003059561059
Ni 5.532550971776686 7.646018445468578 12.429073250169065 0.031384684958868536 2.0013006779983535 -0.7990962914244948
Ni 1.8248367528607248 6.629451355065826 0.6667072356193473 0.12855747205713988 -0.6818128496192774 -0.7516005598363765
Ni 2.713012403455691 1.2716862089728018 0.39792618413617137 -0.6162270932986678 1.3456583161268567 0.06699034997762011
Ni 1.0222675175914981 9.128138606133136 4.682290889838735 -0.5185503699807843 0.10467783722606488 0.8644935858833821
Ni 8.77097547677123 1.867694510066071 1.228166583985413 0.08669451327476681 1.8013038190533044 1.0042965489473543
Ni 6.7409778946581005 0.7046146218449922 4.907489584360675 0.1217702739319774 -0.40609674546404256 0.2988385491053111
Ni 1.1269571811934413 7.583868333407537 2.7736387649635676 -0.5612859611760979 -0.4101894274761774 0.5482952053433847
Ni 7.493416100391842 3.7380892224847058 3.737571910990225 1.3522951047170841 0.10316114347122232 -0.1778792011104033
Ni 7.925375744078818 3.7596181085819182 12.672328752409616 -1.0099550327847124 -0.4670200633119763 -0.09645853464006614
Ni 7.9391585951444315 -0.4531685058016623 7.14624826552963 0.599420049043658 1.6471409877232344 0.3359675927471246
Ni 6.6600445568044755 0.6978177488524769 0.39184209183200985 -0.5564139777957773 -0.4698858148955456 0.7464218438489145
Ni 1.4145696438983895 6.617568646396462 9.548543747564645 1.0234373835418633 -0.5069582942678108 -0.17575367012696827
Ni 0.18584938205684445 4.702034187578899 1.2998737758882568 0.18106274104470754 -0.3869692806059723 1.4403852127877967
Ni 6.271997294810716 2.087238235351327 7.042896884036433 0.16757113431617593 -0.0685407251838755 -0.4788245121460721
Ni 3.4246475514173507 4.511829024555342 0.5835655504544831 0.015128371001006204 -0.580839200717677 -0.394826571866862
Ni 6.595757920996456 5.735375262293034 4.93057585989558 -0.7437450683476998 -0.8038070666366027 -1.1644199687362333
Ni 5.252329972077242 3.1835567568540566 9.143761595098276 -0.15219773718389917 -0.6851156887402652 0.3924742695846015
P 0.1080790085077882 5.5701356065426815 12.675841742945073 0.40463455909621926 0.12324145916086517 -1.1265332209927887
P 4.140755761862046 6.00190432683099 12.646820477188776 -1.1549433967043656 1.6973268645490058 -0.7540577631276174
P 2.557564390579788 8.553413718195937 1.5272626345406097 0.23949877369441333 -0.3030055359988072 -0.5503461743351425
P 6.698438343117198 7.7447985753022826 5.767579493852809 -1.5728877855356138 0.36440245104904984 -1.2139957227818319
P 4.668649867583559 1.0933273882569596 12.517455328047793 -0.17809285978310618 -0.9243743213994146 1.6165646575982742
P 4.099307201170664 6.1358870947425705 8.158457756647588 -0.15456006676848866 0.426134380841208 -0.01999392662342363
P 4.633456321096098 1.2238826265829608 3.86407684578738 1.1678279659765178 -0.7271144017695542 -0.7604394982842452
P 0.27495605969146414 5.579499944667735 3.396009041617427 1.0008756961912635 -0.18524309767464225 1.0641999101712059
Ni 2.0072322397197944 1.2320832411351932 2.8941550691558944 -0.6801686291476351 0.3767823127706414 -1.7397510951514876
Ni 2.0083595969309656 6.569474133113415 5.0398485942245514 -0.12815432308145025 0.45388661125381186 -1.4629584701026224
Ni 5.968583647968541 5.656678455680926 9.183680950282245 -0.4627479182991837 0.7685297314915474 0.8194056924058081
Ni 8.488063366309635 2.087401883978755 10.000231233288082 0.6854033951840132 1.262555119747774 0.9909710354830418
Ni 2.323419571091777 5.334317934418738 7.040115766529196 -0.16156863687583786 -0.10886950670990928 0.6834881804391713
Ni 0.4219607125511169 0.07219995610321078 9.063470123527786 0.3466638961187062 -0.45651427868464606 0.2845699550014389
Ni 1.3625021056050042 1.0330592354113426 11.629341500267634 -0.5691147131918973 0.0914651951905328 -0.5730819253697615
Ni 4.273229325765121 6.872833230413115 1.3999330924930253 -0.15555765479506758 0.7070181452403114 0.6356723465074731
Ni 5.663233492368465 7.991326140932356 7.7969343005237635 -0.7430590980242686 0.14829197437158978 0.8604708378772342
Ni 5.403186731794745 3.0189535124325904 4.8006388497176395 -1.190030727325802 -0.11946296595503944 -0.6516653795016196
Ni 0.8749492048626082 7.435866333079614 7.148058401180793 0.10987635070786884 0.30935513236591883 -0.15933074868425462
Ni 5.229255515609875 4.717689906269524 6.850512466790958 -0.6217786192445163 -0.6935483928886507 0.4549736736704035
Ni 8.178776552060873 7.188320509323322 9.247977586839719 -0.7635649312871043 -0.46200692636810103 0.061159859338772084
Ni 4.343516411245505 0.06178372096740997 10.582695792143591 0.8041935034417439 1.1009803122243491 -1.2498273877684605
Ni 8.514910832798263 7.194066394464132 4.5829316256957435 0.3291947927996653 0.261580178974485 0.8594416252817715
Ni 7.233414797770186 6.230448726624794 7.177811539965312 1.4665307608349132 -0.5801488595188719 0.2348455911931181
Ni 2.4660666246666354 5.134584784642699 2.7016506429169724 -0.222052810303824 1.326768164090573 0.5500638672080334
Ni 2.1839182077997044 5.195334791780187 11.494933245924742 0.31852754289380625 0.6408261227942705 0.7176008058521641
Ni 0.9933744432600197 3.4173197295447353 3.5297917945399275 -1.0346144832046054 -0.1647352075292776 1.1267707909248916
Ni 3.9754433733883907 3.111378620567836 2.543024210032798 -0.3506182527807639 -1.4254447894278806 0.5220516982658234
Ni 1.0100847864385147 3.314921146726786 8.196088758524688 -0.5343318011847572 0.40859662906776084 -0.15541881522435813
Ni 3.5124814063941963 2.878843012582869 7.357874124724489 -0.13178960584119237 -0.10563145938858583 -0.8079079761788537
Ni 4.399102395028595 6.804709943450947 5.872780104835945 -0.2603283088452549 0.6845179072552663 -0.32011648464748094
Ni 0.8398420284840669 7.3848806940453375 11.812106105697458 -0.25051132275483307 0.8117772293262729 -1.194699336446065
P 0.30565381471985853 5.5478430268508045 8.05143428178671 -1.5291049840227084 -0.8676439585869058 0.2462746589656662
P 8.443105451718962 1.5942103788624187 7.871450793864124 -0.2806986449714908 0.3619071954310219 0.22517978596857993
P 1.6909539924436845 3.27311801400931 10.565796343884513 -0.4559936302944857 -0.9303685913096365 -0.7211252740656549
P 4.2499730374895 6.1738263015346595 3.6273681978029946 -1.1668519752164936 0.5039750432697707 1.5930619464906435
P 6.815474386499553 3.8976557258175504 10.522350360779466 0.6956957782489567 -0.4005125665080457 0.06377184304032243
P 6.1373326576181855 7.701668070384557 10.148891464761883 0.32513476379767875 0.13932576631723748 0.38998595594510904
P 2.5915669387231897 8.419549140959724 6.168915933552775 -0.4110399484019308 0.1455565777182977 -1.4246606029636883
P 7.205849095638957 3.9767071044557523 1.5439084274271748 -0.5284596586746964 -0.5413791949498418 -0.9079136047402299
Ni 5.446817274185168 3.197776004259479 0.48070147820740483 0.3980319661780371 -0.9586880070796199 -0.3861331578579221
Ni 1.3956409526592017 1.1363851604513846 6.938813629515015 0.7485458321704528 -0.06375924463483212 -0.10425026277034302
Ni 6.6039767187295135 1.0039843292716104 9.092065902852768 -0.7322532656580164 -1.3108265531596524 0.7701528689172672
Ni 2.42797286083753 1.5826549674479098 9.281802848970074 0.8704451754811267 -0.31099266796934183 0.4245212707178173
Ni 6.556445884052053 1.721556285772746 2.7190028523786025 -0.38296735853543074 0.6676337299054179 -0.8635589898842547
Ni 3.8945736766676537 6.79520013987929 10.469470943462229 0.06865693904676562 -0.5782318450018171 -0.4781076885847056
Ni 7.94993212978345 7.379507564111447 -0.18691582561225112 -0.41451865097915064 0.8507255855650122 1.3317959563224677
Ni 7.421201597743971 4.067550275859193 8.243485946823082 1.56229124096669 -1.0279738379596361 -0.25825214304251654
Ni 3.0249539621049553 8.30125845810042 12.440729578237153 0.43395027734120106 -0.5832637509987697 0.38908786961087183
Ni -0.1114247137796523 4.585379990993876 10.385068254707127 0.678704900117915 -0.07925759738074738 -0.4221730822006149
Ni 8.639420163499835 2.2600239111442 5.774152713721173 0.2679428879677192 0.7542487960925011 -0.4394259557437916
Ni 3.401882209024014 2.6578991823740608 11.83181303707597 0.10234430399688181 0.6360412998111176 -0.5405119618535401
Ni 1.2170821169542805 3.3779167766962055 12.840921386704164 0.13997728385830732 -0.6579918359402797 -0.12351091077216796
Ni 3.195712213235802 8.256145986472731 8.280504175506367 0.252212621716656 0.1348247931230904 -0.16911405332326357
Ni 5.878440529026876 7.725078915697193 3.586264208388253 -1.0079398021268964 0.04284589152093266 0.5581232471774001
Ni 3.4132648802206824 8.479262706790166 3.6081403932392297 0.042883686737403566 -0.9730314202854855 1.2068768523488635
Ni 3.185465990840718 4.439287224652615 9.247737568852825 -0.26976657144001925 0.13584526396780475 0.5156776764186796
Ni 7.327785506253744 5.9442636436146365 11.386924242663131 -0.7379156061501162 0.28787382256369126 -0.9480197287324964
Ni 0.4853927388603447 8.847590309178836 0.664197047506408 0.6516383829184262 -0.2436940427226835 -0.011723201974199165
Ni 4.56390565443914 0.5013084770367722 1.7088953369640558 0.6117829414843852 -0.25623562683311996 -0.03724191507059393
Ni 6.163907376394432 5.716782959899116 0.1394013557975333 0.2992231861382395 -1.680909856643563 1.661227290612971
Ni 7.821331583396175 8.984964240314344 10.951297960562723 0.049396033934624606 -1.5368146939621403 -0.05407749857069396
Ni -0.044805175871740925 4.890139193217128 5.78849742507429 -0.05195171047694278 -0.034627617376198426 -0.1580346555806504
Ni 7.92833960255335 8.693960614385468 2.829765698376212 1.0494641466229282 1.1704584616208293 -0.8382364519590659
P 8.661549094564284 1.5756362596493252 3.5977214306263052 0.07189498636808908 -0.579245373867996 0.18417171898733445
P 1.9557920211648838 3.212777128440391 1.6187313073644423 0.2932201744772692 -1.2768543099792655 -0.5730945237752517
P 4.5153474700450476 1.0944547454681313 8.314862204834904 0.23892387502754978 0.5020670276137805 0.3462026402115715
P 8.415876138433003 1.1002097221993539 12.535352123775143 1.13808827282024 0.9825144200752564 0.10325576006755767
P 6.327437813147203 7.922448251965936 1.45192153394982 0.1399178913752816 -0.32262639555352823 -1.0231756452400445
P 1.7193924872545296 3.4915980232162833 5.9159460669562804 -0.9422635429750096 -0.7466874388054754 0.8986614900143427
P 6.948720735587706 3.7856200571621663 5.919605432097382 1.7295222183346277 1.1968858025744227 0.9355899876095759
P 2.202855990629305 8.493354671929813 10.224831701160868 -0.2578309963446979 0.7760586928787409 1.4495375687110261
