# total energy = -340859.866311483 ev
CRYSTAL
PRIMVEC
9.35168341408714 0.00000000000000 0.00000000000000
0.00000000000000 9.35168341408714 0.00000000000000
0.00000000000000 0.00000000000000 13.68713395916540
PRIMCOORD
 96 1
Ni 6.026608026233112 1.9855400099028278 9.619508785876148 0.5929807211762175 -1.258912380788864 -0.6037155910952183
Ni 0.7454497819572582 2.119624442581894 7.2805696057613885 -0.5082171063755764 -0.3615909497421837 -0.9045256621046035
Ni 2.874436194517881 7.039292440404087 5.804467210059182 1.0940046522374642 0.968359468731113 0.6117988823239852
Ni 6.531982334114926 5.556115496416086 12.42204549983818 0.6204035932738605 0.21388878643579293 0.15208512286543485
Ni 5.11297663974638 7.197560325650322 5.501092063231745 0.7400241678526869 -0.03035367259119288 -0.3302144923134313
Ni 6.3563203182519326 6.463546716989426 10.05606031695099 -1.6218657580962133 0.6036693112383151 1.365386133573087
Ni 2.5284987322732144 8.611441297665115 13.252594663085455 1.2064176533242577 2.8501388167326653 -0.6213893542258976
Ni 0.6459338459582147 0.9030237723154488 9.941266536226896 -1.3369404766378845 -1.22394177825095 -1.3417576955208699
Ni 3.0631999184422054 1.1536610373148537 6.468744382471573 0.20968477565677437 -0.7622032750528873 2.0618090197960557
Ni 5.065759991636699 5.428680110440522 0.7097244820743895 -1.465346767829141 -1.8300603223607061 -0.704266036416471
Ni 3.496304419116331 5.209635636550036 4.611838644321228 -0.898812156659594 -2.4667176584892676 -0.7338105828428072
Ni 1.3832635614560478 1.845535961804187 2.134782585762917 -0.8366914760694494 0.942486714729409 -2.09746893509151
Ni 4.568166284116789 5.252017464482909 6.6654009269553285 -1.6798680456426098 -0.4977699429003234 -1.8527063418949965
Ni 6.1559605072497705 2.991070386481427 7.182734167220319 -0.8171953150180506 0.11128351546804059 1.0162691479281982
Ni 6.442327747973608 7.156880504046616 0.638268271298776 2.1075378892917382 1.0828915730434383 1.0175156187407894
Ni 8.801504905544132 8.03184268080201 7.123592252786719 1.0705309945955561 -0.5751053835576934 -0.44537446001774267
Ni 8.640347350211563 2.4455212478847814 0.270846252237476 0.5766896973256778 0.2053288126809238 0.46474515123487053
Ni 5.207942981903997 9.299781285932331 13.850558115273929 0.5108414313723009 -2.0350309803712627 -2.3025205828516477
Ni 3.357684420120529 2.3687906878253764 3.105897833264781 2.6294970278437555 0.7276854437816759 0.8238120490036198
Ni 1.5288038059660434 8.736641631373256 1.8823778526524542 -0.20962641161501316 -0.6653629315933702 -0.6436106275179432
Ni 7.0073564425243955 3.3754619697455053 5.0879318971631875 0.7025984189060609 -0.11451127837671891 -1.442524884838619
Ni 0.3502831893939179 3.9187199459759654 5.18089510879494 -0.4507676060088559 0.6072896815997219 -0.5111733607904229
Ni 7.879737554736658 6.288118493204616 5.595683402895958 1.637909184712321 -0.8682268276735692 2.1225726721376734
Ni 5.18920220891691 8.802440073856861 9.597486507279694 1.8409792832660552 -0.7669433608410341 -1.3900489264270899
P 2.189846231184706 5.596178106933391 8.492784336641137 0.011156273727135626 0.3128510613343192 0.4810189486942296
P 7.01372493873408 4.573936272606327 1.2477342937338152 0.7194545712314513 -0.2693557091548458 -0.5507022721229806
P 9.149929915500657 6.91321304848198 1.6333818080418885 0.39091566684823 0.08383158990467499 0.8153369216530731
P -0.13026894596313277 0.5134868929947363 0.801832014699995 0.6164896029314351 -0.819625264615782 0.4613772632039022
P 4.1651367963800245 8.255263742396066 7.469561510754019 -0.5695559144943739 0.05550368949425925 0.05229238164581316
P 7.86679482528849 8.148140212172974 9.039598757964905 -0.5809957809001994 0.07349472675504116 1.4952474120433152
P 8.735603594546127 2.741660997476635 9.178194442584575 0.274476832431495 -0.37093331018903214 -0.4161099067256705
P 8.48141549546329 5.424331577786333 11.405830825286653 0.2933782973216883 -0.08077043448084799 -0.2194552247799769
Ni 7.978341701630791 8.746479602023165 2.4026942798350492 0.28097992365733543 -0.43073536994832917 -1.4794186725411747
Ni 1.576918215655944 6.904815237033674 0.2504100190994118 -0.7212826255791255 -2.941209604698257 1.7098874748228359
Ni 4.991956508396136 5.911180201392987 3.0788387381359703 -0.8165039453779809 3.215422127724772 -0.6488433366717923
Ni 0.42667334818748903 0.4290093986326858 3.68457624450816 0.5513694733933343 0.23815280118948018 -0.639793053544066
Ni 8.234774204664177 0.8208402458245222 7.995092436448391 -1.2853438355075153 0.6232333494131719 0.7906507317603029
Ni 8.489364426121487 4.116788594611942 7.175534306380619 -0.19951349155072734 -0.589372949220301 0.45448027897375276
Ni 0.18710660567416856 4.794215168669614 9.453963420820255 0.9280918794603179 -0.046711030903293746 1.266367808625645
Ni 0.15682959638125837 4.7203649270134145 1.3011698111231433 0.5885185716398058 0.5807188730897289 -0.5602102116134159
Ni 3.9440536555677905 0.7377271620307432 1.717010169575981 -1.3264709445651284 -0.6989513090717769 1.0548500935251899
Ni 0.9258325274629061 7.301373360046355 9.244098559087517 -1.970718177225806 0.6327184060854717 -0.6404196313844712
Ni 5.470369913821974 0.7277919338763115 7.484959992191413 -0.82497161652936 -0.228083075658304 -0.0041610733562250915
Ni 4.649853236233658 4.911232779641379 8.787454936813692 -0.232841930499528 -0.9093901892857564 2.232746499481303
Ni 8.350576096829393 3.1384342092012436 2.555032262810271 -0.8620482096666829 -1.613577292835176 0.19687219727313837
Ni 2.95198035100936 0.6928110279703751 9.119709951474823 0.5898082369855069 -0.3054087461236611 -0.45840789616293315
Ni 5.361591135685352 3.7288714268088756 11.642604220049853 -0.30856914612951375 0.9404743122850706 -1.4417617814203492
Ni 4.097337093707181 0.08218913750080295 11.343745936172896 1.0780771823739306 1.1900566954677312 2.0460967512671213
Ni 7.562902530384114 0.10407675186022236 10.712029454073098 -0.9498045885470611 0.594983353428543 -1.983634628177158
Ni 1.1016095690283643 8.594823356747922 5.551788472633089 1.5365038475899409 1.8686767491813236 0.95169409226029
Ni 1.9703435248209833 4.047099851947386 7.072703198712952 0.8189338949757121 1.0883101729558484 -1.2983083660879833
Ni 8.095565049631356 2.4713786517317344 11.409977361585293 0.42195248154937653 0.18651476529821429 -0.36840874399496554
Ni 4.364449218871931 7.176799589107741 12.65445259374925 -0.4695001494213527 -0.919290479118604 -0.5107293312744687
Ni -0.07220060475254579 9.150191762628221 12.073174414596485 3.752159195916912 -1.0794046429361022 0.4859030162594084
Ni 3.0005810482218793 7.095421242534075 3.1483142624252243 0.517364062982167 -0.17465015265014439 -1.0374126147750327
Ni 8.140509238741105 8.681008468449015 4.759672856702347 -1.0446818947429364 -1.3204627906978355 0.19420262086077522
P 2.6310305860808088 9.028171001183356 3.811538435317483 -0.09481508549937219 1.478623687443705 1.0358663533338353
P 5.899845961442712 1.6903073735743206 3.451798823945251 0.12182915219437082 0.6926780744685554 -1.0479114574238275
P 6.00257420059598 1.5729811570593555 11.63458328143158 -0.5980774189728344 -1.0388439479049205 1.6181782819422972
P 3.932869042547553 2.906157103685645 5.203095069370811 0.2523470904119912 0.5119146098318216 0.9001002793433981
P 0.9344126967321936 6.465650845693066 5.956120649829486 -2.481926247908906 -1.481522863368371 0.46106873082454786
P 6.518123139720283 5.141882692292829 7.130914620675386 1.7450596518485946 0.49040090412976184 0.5081913953439634
P 7.052684050642365 0.42195355371314636 6.090582890506895 -0.5832046156260601 0.584766046575909 1.1623646288691014
P 1.6001477965441295 3.791808254255529 3.2625880895674424 -0.9135620612752589 0.44202739792238066 -0.13899049446500578
Ni 1.7643820556255752 2.9918559278641195 9.18416268675641 -0.22961313914958523 -1.5091246842460397 -0.5776967984339534
Ni 1.5056957969585127 6.678981441192778 11.539471988185488 -0.3483942485462516 -0.12885597713416516 0.08417354662512601
Ni 4.717849324252175 0.6269143928139347 4.84358925007676 -0.6366614498936196 0.10051804942142042 0.39340115227424505
Ni 4.529132358743486 2.1229816968245907 13.426557478124218 -2.9704551318269354 -0.5189455485366741 -0.3180817136056393
Ni 6.496230849519301 8.020994728374355 12.150246311090035 0.07272545268918443 -0.44987363343967685 -0.9777049145017548
Ni 0.6950105438419134 7.015165097935682 3.858471727428407 -0.46963641788890087 0.5460753148739305 -0.8607508310114983
Ni 7.507942688645038 0.4939259773973863 13.090237286807655 -1.416054349351916 0.6644468475370041 0.9234299552082742
Ni 1.4420014831785488 2.142741803272552 11.553501383213046 0.7321568492894681 1.0433827163155387 1.9166867014016988
Ni 8.6873769646587 6.87719971675879 13.199104905933988 -0.4115726809769492 -0.2930607660812695 -1.2066549661460446
Ni 5.785951812635463 8.286470308991829 3.607011514313801 0.43010210723970443 1.0243416405236876 -1.9357488602394726
Ni 6.5174217634857365 1.3525432823829044 1.3573911949160908 0.28334328168318945 0.27097164749171404 2.670287065276924
Ni 3.6711247834978673 2.552504502860965 10.663932812581141 0.5783053785522299 -1.910052483914633 0.5533512797100535
Ni 5.6940808775929765 3.996778445039445 2.878979242181118 1.0126107252400045 -3.9794657984205077 -0.28623268741584257
Ni 6.453671339607009 2.9488568888448454 -0.25595182652064313 2.5960989119992837 2.35761829515674 0.4185861361803049
Ni 6.309487089150471 7.7368905949673215 7.464332984717552 0.5079121735406479 -0.36781790448850205 0.2654769429257299
Ni 2.718347251440304 4.856525433346739 13.028385254603768 0.7332107444752791 0.3865938995444245 -0.10232862026759797
Ni 8.570396760419444 5.246481268071554 3.383651238660072 -0.9650720562290928 1.0024710657028413 0.32236928523739966
Ni 0.29537197640710355 4.014546642981293 12.723490459268145 0.886285227837177 1.198826214130245 -1.5809289106725353
Ni 6.961514491834427 4.046033760070875 9.513310137114344 0.7632186036912791 0.9772909668927879 0.22243410490264273
Ni 3.156445550904402 7.428247645034282 9.380942673457447 1.688713668958698 -0.3871083772869978 0.3737044451762661
Ni 2.6931070586797516 4.506061756468465 10.408202620950613 -2.1349687318091815 2.030414564645174 0.9120319977839777
Ni 1.8986441702840604 2.194531424431477 4.877027128266694 -1.7000031258295885 -0.24787645623514729 0.058894974563995346
Ni 3.272677620493474 4.455001566593468 2.0409571489468283 -0.6583939564747048 0.43830983986147737 -0.46314052575191206
Ni 7.938756026952977 6.073085891375737 8.546916554423447 0.47208745053255474 0.5453713468283704 -1.6949429376978615
P 4.410048025800591 7.555552107446064 1.210310728195031 -1.158047489550986 0.0007754447134438257 0.8827502181007248
P 8.638009429429742 1.9831179239728598 4.398045140506715 -0.07641678549784259 1.2511764455971872 1.1515282003752296
P 2.4648418252257596 2.8219077903919003 13.57450204036624 -0.9035075052527344 -0.33272106078536895 0.1601023367429565
P 1.2582596130935788 0.08203109405595177 7.807414442935144 -0.6846022394389565 -0.7936584082383751 -0.6977452045788176
P 2.1697027057285254 8.798465608527762 11.099539823660129 -2.1844251866680957 -0.31630739531403584 -0.5938600384573772
P 6.738925730038699 6.436006010179561 3.97834347209062 0.1938696630013887 0.18119540996782987 -0.7547876993151065
P 4.2892523348454015 2.5745464199919845 8.601377951451838 -0.90198695484315 0.06810543741866981 -1.3146634104072392
P 4.27008138443446 5.585414319653881 10.995106772672758 2.5299241159444237 1.7236369631984445 1.4150575326562855
