# total energy = -340884.1606301002 ev
CRYSTAL
PRIMVEC
9.11948795386008 0.00000000000000 0.00000000000000

0.00000000000000 9.11948795386008 0.00000000000000

0.00000000000000 0.00000000000000 13.34729243244402

PRIMCOORD
 96 1
Ni 5.469011734049684 3.045744876591833 9.873886816097993 -0.3713883954485797 1.0468555053554873 0.5732215362714193
Ni 4.512368312250426 0.7700377203294633 6.566080681499162 1.4480913231828028 -2.2153349888730753 -1.4992069109116954
Ni 3.0180672301903613 3.163158285955571 3.4323099459649233 0.9552190746944129 -1.2544057511677622 0.8275946559745037
Ni 4.9740515171008015 4.197636538738868 3.5604569928293306 0.9214010977037035 0.9537183217791704 -0.22955040423244982
Ni 5.0744206031945716 5.113251383549586 11.88233369418418 0.591949965918858 -0.3322099254769053 -0.053974911554558656
Ni 5.806478391409305 5.947994607836992 5.221140399535499 1.1245010210541084 -1.0112490690057874 0.4391490479333211
Ni 3.682969107993089 2.595935245255367 7.368252742067461 -0.940685142744296 2.263206358633057 0.5007416239341376
Ni 5.544110718601947 8.290727265831453 12.886250718426911 -1.2726868088651373 0.3392570621316738 0.6341690224890691
Ni 2.657145249422311 5.517244706641902 11.945320174634155 -1.5807797866891806 -0.9786240838819146 0.7460626607372829
Ni 8.0776504262366 7.541096224036609 9.56713915442317 -0.7850830078645381 -1.1032289990492097 0.35852105256760836
Ni 7.768791603065255 -0.3149314903010782 7.454849577223668 0.9527986381783784 0.4690365795213729 -0.7938975208323747
Ni 9.072212679580279 2.244470173653157 1.6043979261164216 -0.5404584829077853 -0.7664239980024543 0.5191856895719381
Ni 1.4183175071615277 1.1617133508371122 3.1819407836585265 -0.6565736154365145 0.6790139467179015 0.31063682729181985
Ni 1.617104108894402 6.47704347132581 1.0434217347687742 0.4018472261590692 0.42794135214295975 -0.9494482336489067
Ni 7.341078491409436 3.972430779963139 4.1627399055527485 1.0862329787118454 1.7990888136798564 0.09232111543292487
Ni 7.27430559949788 3.5154258725111016 0.191381577390866 0.13583549377579188 0.7287570795792998 -0.538430396734163
Ni 4.496637195267712 0.5825410448717198 10.93693186537309 -0.09895404736841022 -0.21777038087838624 -0.015603767975527965
Ni 0.40015675444615584 0.06430333453247279 0.6522823301617534 1.019773818647347 -0.7378117335824003 -0.17811137172586744
Ni 3.316639270778227 4.504899451491676 9.829426575735196 1.051107595763622 0.734922070739431 -1.1567429118069497
Ni 8.864662249777615 4.511419885487411 1.9156697658405937 -0.11367052764297843 0.4558948999330923 2.197236222389835
Ni 6.328003677210737 2.560214210344473 7.741789710732432 0.18059788559314702 -1.8150839035565323 0.08851562564390561
Ni 3.4882771564197737 5.092075932167636 1.6429450903913407 0.7167914225769914 -0.2301929229124552 0.33851067088395254
Ni 0.4661535779198982 0.2952443393780151 5.512378547788583 -0.5789795218011189 -0.18140598331673918 -0.17208496302612944
Ni 6.442708598607016 1.2573767810682275 0.7902264430983519 0.2952827134332528 -0.6601585045742954 -0.5630841907271013
P 8.796548793114487 5.798763304471695 13.729826166944905 -0.05124260022506013 1.7244753999393398 -2.790385607933433
P 3.964834246370907 6.408948253638894 13.371184058203333 -0.5284699430873415 1.3668987135628718 -0.6075313652968828
P 2.281604729220469 8.992754579713386 1.7447979171999448 0.13992997556013964 -0.9365628930458064 -0.045107948082231994
P 6.219846548274508 8.186600950638041 6.2266724851217905 -0.6028977231796133 -0.062266205029073415 -0.228587011877916
P 4.568863541066609 1.7613014548252308 12.902760639693872 0.8695370618445605 -1.6717952959368045 0.4165603639995277
P 4.080268726815659 6.260428270345859 8.683455285266525 -0.22765035899625954 2.896176989938651 1.402189932664998
P 4.322163148825224 1.4277926553035802 4.333572540394542 1.2624288785825548 0.266005047515058 -0.09266178660179526
P 9.032980641748605 5.882024230878757 4.2384061222652 0.704883872506128 -1.390304751191638 -0.6232240934417912
Ni 2.4742174375056343 1.750814043503421 5.400714975675629 -0.08790884529784214 0.3464672067268678 -0.6687488173464676
Ni 1.8575029348545953 6.7660126909381395 5.370309690381676 -0.39808467379284346 -0.11638149881623827 0.024393855463332184
Ni 7.260535172457939 0.7352277222803507 9.463737838534179 -1.8531884237377374 0.5113749352782677 0.6104523955984197
Ni 8.693708325744012 2.282735545745603 10.578317115095839 1.2673540837983142 0.9522365950273214 0.3663228080002143
Ni 3.565382428355339 4.843651956674233 5.6366151581531705 -0.6632705678407158 -1.1296349998465642 -0.1181398762682417
Ni 2.0658011626819457 6.805773659079957 9.80785716246707 -1.2359786548108262 -0.4842785932821078 -0.9386076913899771
Ni 1.619757879933225 1.3514078229283826 12.073920460057428 -1.0793205678627282 0.8533794782480917 -1.1385413011972585
Ni 3.7705617912504636 7.534229249492851 2.3155018665101785 0.9429189171708212 -0.9010752416621579 -1.6747752045007351
Ni 5.507158552796754 8.203690871348538 8.456497672825648 0.3700246823318337 0.6101708598022588 1.7004767230318973
Ni 6.8906487348817675 1.0574320043459011 5.148544714468312 0.37226128497183636 -1.522236024817017 0.8717818920146793
Ni 8.008889485917953 7.390031903562021 5.17609377608749 -0.07709375696020916 1.4712672470786339 0.7758733163408121
Ni 4.701351464269434 4.5619144911298966 7.801412923968946 2.131491314783542 -0.19996857681027497 -0.6937612802304052
Ni 0.8408970548612829 7.737010187016119 7.602698366192108 0.20229208273712904 -1.0099650600870413 -1.1985637044974777
Ni 6.593854994474556 1.8233869298503436 11.563306641774732 -0.07739071937533769 -0.33826564475268195 1.7371897621822145
Ni 0.6343370014669214 7.602525095918096 2.8767416110640873 -0.018387244257936076 0.6608583588547973 0.6448149322386895
Ni 6.682797361971607 6.400439771236069 7.498042208739744 0.5282364869202968 -0.8891054708947913 -0.2547418158964129
Ni 1.7826775349455104 5.279143991684402 3.2835008748989303 0.4902114138267751 1.226766392183939 -0.07118664744715483
Ni 1.6081031741338574 1.4818165028430583 7.685944701418201 -0.04746307857796987 -0.47631485835034093 -1.7090814339817728
Ni 0.8409827780494785 3.439752360208166 4.408384261071468 -0.25447082162321333 0.722793148686381 0.5582775133670772
Ni 0.865775930363047 7.106844439408845 11.98891223972927 -0.4224996123020981 0.32379496194033264 0.6353558437083187
Ni 2.24108684356586 5.580233010989501 7.5463727598546955 -0.4128993702081728 -0.3271510228967592 0.2958992639713291
Ni 6.370226907141152 2.066877262278444 3.114938080646701 -0.4782030765119893 0.7681880318814125 -0.432670639297829
Ni 4.205962631379574 7.3171307156432865 6.66319502228793 -0.9931371898964251 -0.6207000414683568 -1.0075780479121035
Ni 7.69897280212632 7.700431920223267 0.43622797770031724 1.403447973441815 0.9196231798676742 0.3576481630443518
P 0.04718605535765838 5.871026128223016 8.7892057812916 0.8365796330819334 -0.2714444733630744 -0.020688638697603078
P 8.700274357180275 1.7027269827208977 8.126539090023634 -1.3928192900833753 0.6534463826614424 0.061776152766532325
P 1.7794036387154846 3.548639048192867 10.939841894027689 -2.28960978832725 -0.9130360135684598 0.42466808070832673
P 4.005771628478388 6.215952526853281 4.114143065385105 -1.126105903647383 0.6292965248881162 -1.0038892862066067
P 7.0188960961153395 4.065677545846185 11.332786045330872 0.00256647517559558 0.02673124534725719 -1.0078179318370515
P 6.379273439342226 8.334783512871159 10.984835624444685 0.6844616000960341 -0.41240803239405105 -1.516899700205768
P 2.4715089495381752 8.869559414890494 6.27613750055712 -0.8197502202294206 -1.137042605164545 1.398753139069307
P 6.451116766640675 4.589090565685543 1.9983433972136344 0.27768119830140564 -0.7413233462800846 0.9356966883907691
Ni 2.623403143430402 1.8382243369986775 0.765313825490596 0.6962148839772203 -0.8467311196936386 0.022748606550425342
Ni 1.17703409085506 3.6060188673553246 8.791955306955535 1.412526795814632 0.42313673166546484 -0.18117175581874603
Ni 0.5334490164999238 0.10311769980889536 9.265023280757344 0.48764699553370855 0.5431015769575872 1.4204581348465666
Ni 2.7118439390816276 1.8843598273265338 9.688372717354477 0.29955383000478086 -0.3772826494458276 1.0042404988984381
Ni 4.857796282726516 3.2122576099178515 1.1601867485281807 0.21526304107550026 0.3256998922725294 -0.07969082826342404
Ni 3.955477651574231 7.219150935433268 11.075543524839041 1.5600474392378356 0.6694430152000149 -0.6181567062212128
Ni 7.245560972988016 6.3304750584874405 11.82464654827255 1.0556275951211624 0.45137850011997754 0.7189732607196586
Ni 8.131601317871231 3.8194148890338844 8.653717546501927 -2.2556249467413734 1.011088632168523 0.15489713839293323
Ni 2.940478625385182 8.58525025370029 12.88156512543809 0.042589809646068594 -0.3952441190202548 0.7979099844258775
Ni 9.274792988365217 4.950450281882677 10.965601712080485 -0.8791450172479699 0.12807796131756008 -0.5572084486726145
Ni 8.37558410265705 2.8077262370272846 6.197828456191573 0.8043009755538857 -0.6749487755095924 0.24980966870211818
Ni 3.602954719351735 3.2531037971442727 11.778345083261168 1.4068372016290223 -1.0806595983891258 1.0527842121350965
Ni 0.9678239142171178 3.434499535059155 13.19927076402099 -0.45310319612056804 1.4554886440881385 -1.586650900757977
Ni 3.173518024443897 8.703046681564476 8.49791382805869 -0.7785974001401945 0.15095795123952713 0.5671619603409006
Ni 5.3756281758450495 8.092952927278336 4.245439983441297 -0.12142574610836505 1.1571028662495297 -1.1987369968505484
Ni 2.8274608092884987 8.56888077255016 4.13280244999863 0.28053743680327814 0.8642321046918794 0.3940899508111535
Ni 5.530495322859806 2.9790540600732296 5.571293176799267 -1.6399740376611496 -0.2517883896950438 -0.7929786085625311
Ni 6.475702906574239 5.654429166219278 9.772220026846751 -0.9390625195392086 -0.7379014650827292 -0.5079363419103639
Ni 7.999897670645514 0.2607963850067077 2.5864783360895265 -0.16205380404237255 -0.8521605182393259 0.5707553341191138
Ni 4.467026217387785 1.0793005368239006 2.236124930087428 -1.0449086660417617 -1.9337572837307404 -0.04891626608472866
Ni 6.029933208468696 6.195306005781474 0.632017003692775 -1.2659212080065294 -0.9788595969314884 0.8802603617993355
Ni 8.491894053959973 8.884579211800947 11.606605059352836 -0.4472585644143329 0.9681419534036682 0.05504731868313101
Ni 8.778391892295598 5.310578867185512 6.672471365589273 0.9812062427867939 0.17289588896319902 -0.8738850544006111
Ni 7.3057587139752025 6.61774805331207 2.8035723101950376 0.1734795293808109 -0.5458734832757696 0.31989922643035223
P 8.454896290714249 2.099269684030677 3.8327284297197193 -0.4889909111561127 -1.9846376155203753 0.35377633879377135
P 1.8887098231530584 3.515371155582466 1.8040864452229715 -1.428983141598442 1.2885201763529681 -0.4170810123896881
P 4.72595584317921 1.302645920026021 8.753381696165109 0.37149483911945697 -0.7235850484600571 0.7616869975381011
P 8.474275202939332 1.6294336568136076 12.859502347863433 0.035977189425557395 0.11791799006542272 -0.1652586841329154
P 6.120115826348153 8.327843582422553 1.9025231117870973 -0.34583368690792704 0.40892778715493444 0.12793449376116034
P 1.7527564944699825 3.5529616855550734 6.478655796822936 -0.03345905098939399 0.6022947994882918 0.5133585413671998
P 6.811373024776993 4.300987697443275 6.619456133434309 -0.1331314645810675 1.8810190727967604 0.02701509513626315
P 1.9905380273437763 8.8433864840265 10.77677723915452 1.3035349045942453 -1.008477162687605 0.18419434469515372
