# total energy = -340857.55381678836 ev
CRYSTAL
PRIMVEC
9.39115163227624 0.00000000000000 0.00000000000000

0.00000000000000 9.39115163227624 0.00000000000000

0.00000000000000 0.00000000000000 13.74489968598926

PRIMCOORD
 96 1
Ni 0.019887642186710967 3.354209518298624 11.422520866458516 0.15880187276397814 2.748734250941234 1.5859633877726493
Ni 0.4821915069978423 3.488634465298001 4.4286897005315025 -1.165347108536193 0.9705716458910834 3.0224346102180206
Ni 0.6263766780727015 8.285033775810355 11.589053222378961 -0.1708778300919057 -1.2970829783213147 -0.22102231215678064
Ni 6.572867151380745 8.64535348843241 8.112294807659094 -1.2592728494520764 -0.682026251181664 0.08879844699164706
Ni 1.814379920722834 8.700780066411333 5.557159614516472 -1.9186991038460375 0.2472632481311806 -1.9834243119385648
Ni 5.040907339021211 2.052858829770073 0.32530480310080484 -1.009108625624017 0.806186622612373 -0.6828027243363723
Ni 6.62964605522022 8.861415718110674 5.53783356320796 -0.21207975825151218 -0.29984693576516747 -0.3657288831699572
Ni 8.158262617535618 6.09047185638864 3.822937870062548 0.782061190319079 -0.0757513839997018 1.1292992137737003
Ni 1.9699161769896834 0.05773680132403032 13.405194923181233 0.17713846628963686 1.9560734307294374 0.9495320516119645
Ni 1.5117124890585247 3.0089626043306135 2.6264027659935993 1.746651421815747 0.38126605957360793 -1.7340931255347618
Ni 0.8863350295383404 5.947162879777595 5.432946605994607 -1.6794080752870562 0.38006278329412607 0.6502749269119962
Ni 7.1105012013155875 3.292650518188178 0.40922131832382663 0.1324732621717783 0.4462530059679541 -2.011309468384607
Ni 4.9008946566952565 2.5181997930763558 5.403807740160482 0.04460992539989091 1.8278753988942456 -0.9603952195787138
Ni 2.5334134590075412 7.375538287679737 9.54856817423292 0.513045123891839 -1.092198452266661 1.8016288064928907
Ni 5.229491058505247 0.19387281618307528 1.6093353903473275 -0.4726644060819472 1.6065322130629363 1.9130210796246536
Ni 7.657911440283989 4.178057701927752 9.992706734099178 0.191536901103154 -0.9720867969840292 0.6586168711187883
Ni 6.6982108545804575 0.17244690332998888 12.183974237466163 0.654191488357583 -0.3782159598933744 0.7871954262218507
Ni 3.1001788618550616 2.633335314259279 8.1518935383785 1.3580374065174998 -1.9027505509365812 -1.0176979099549248
Ni 2.039288615405528 8.521127332298013 7.750598352181784 -0.5494881972102214 -1.1164694089988836 -0.1890791835912808
Ni 2.307734689876479 2.67936134927702 0.3735095853383208 2.8815805801817147 -0.14723705074451415 -1.205394354266066
Ni 3.398479407928012 8.145255872279634 1.4630484794975303 -0.6312083971988484 0.2142543973053278 0.9168841836699564
Ni 2.8776273462765203 5.105236728915422 12.355812594158907 0.9729676569270856 0.368953560754842 0.09136826460135232
Ni 6.2568455018435065 7.765609169233888 2.4376443710859093 0.29264553292072176 -2.3739859378814856 0.6869558272727976
Ni 5.906264413647772 3.7189806368783223 3.597740867019306 0.2517655068769083 0.21654190778792384 -0.9588728693969164
P 3.593439719490613 3.4131296047506354 2.1379642648121613 1.165773140330018 0.1227262100873435 -0.12273315206587894
P 3.8568615277435483 8.11592730517896 5.1753125646017875 1.8927209346147211 -0.22088270125512283 -0.3693772785558219
P 5.044475976708773 8.371009770625172 9.875050627770618 0.6775877557943363 0.1293164617103515 0.10689001438603526
P 2.057563796826569 5.265308911506199 3.8051660543784886 -2.5591585873295086 1.3166040790733777 -1.0132784407309905
P 3.4769049166880928 2.0085607666852567 12.162174556771065 0.15655987080733683 -0.08660683865696699 0.7640238732013939
P 4.896480815344851 4.905825011395177 10.664475544442489 -1.044227580814337 1.6943294724835787 0.6129872462051315
P 5.674246617045382 1.128375063351694 3.885353343218008 0.021890629425504238 -0.6879541866303248 -0.3560160267575675
P 7.210300971593804 5.562510692817453 2.051000320826998 -1.181040865122366 -0.009928057746989353 -1.8986681533370913
Ni 9.240226608645386 1.0538187091370752 5.310273746369481 4.118159330470386 -1.4361994568412235 -3.2332311308817347
Ni 3.0260920652309116 6.609520816892731 6.303946823743422 -1.9109094325982896 -1.775800275465561 0.9183623108773796
Ni 2.2463353393467926 2.183818441751791 10.237723763036104 -0.508084437452454 0.0901557323504899 0.9943494650369714
Ni 7.761430106678716 0.031612495220714194 3.302020070348391 -0.4837504886927798 2.2238710513685445 2.081853854262073
Ni 5.7477229888019234 5.838760814441993 4.37632088158171 -0.46212391156193955 0.7555567162706471 0.022402536064916257
Ni 1.5274051037319885 7.285035757692801 0.3860787029199867 -0.7158069471765349 0.8994937561076509 -2.5019335442687685
Ni 0.17253236281145418 2.1943740963855274 0.08015066334746285 -3.206171298550465 -1.0065390651246278 -0.31106774418165134
Ni 5.147628388182935 6.848497456985867 6.858774194410865 1.6919738277672085 -1.3486901609746451 0.03620498916564732
Ni 2.073434843384411 5.171951471369214 0.977767283554404 0.9821482949850892 -1.0475288772734284 0.8774542598091081
Ni 8.630177387108462 9.081149888146403 9.16999206249344 -0.6781302585613677 0.41200951140405173 0.44689115377258515
Ni 5.156117989418608 1.283873755011306 10.918989845204232 -1.6458320391038237 0.010212678866943702 0.22060707899623297
Ni 6.650353544959889 5.405819324878049 13.318835769372592 0.9808486023370592 0.6709720502500315 0.01764650943716961
Ni 7.069659082096622 1.234786204503709 9.700958394643628 0.48787556660474685 1.0802693049292427 -1.4326047975114293
Ni 2.9966977600675713 4.758534186416959 9.07424551333615 0.7160283191587217 1.046868875091926 0.5861084195364163
Ni 9.025291317184246 5.963325052041527 0.5920811307800492 -0.17932004732198795 -1.9633113432387734 0.7370738269751113
Ni 7.500844426272212 0.29882175499837066 0.8601487418330825 1.1346219115381944 -0.673988211368536 -0.7080985227886838
Ni 6.744302627660865 5.632352688823766 8.495255648178368 -1.461955996980037 1.0420513990986247 -0.38052712452505427
Ni 0.7693316082605328 0.6432657254866795 1.591480932527346 0.0072710797401165095 -1.6082723356824946 2.0902505629662
Ni 8.73277572062587 7.777423238210081 2.352246871222549 -0.8617651312086255 -0.13924117702323116 -2.081394655237467
Ni 1.2339879565999121 6.825714522696327 2.502630202491595 2.0514839837209635 -1.4165968521189474 2.1440768647580364
Ni 5.3653904163386965 7.032601597056832 12.237400500109691 -1.2209307593387682 -0.0954995131609065 -0.3803358344498547
Ni 8.659261784262092 4.663167039792768 7.5693162532295375 0.6929284999164647 0.6465432277837059 -0.6385900343749003
Ni 0.7765834556877313 3.9317090076642582 9.290576329956163 -0.383253779427598 -0.6483052047801351 -0.4654702023263532
Ni 7.292342073800493 6.370403309522454 6.109388453478262 0.3327231176678979 0.5103616635224049 -0.01740739684317002
P 9.23296724829674 0.08685970220007952 13.334229745418519 -0.428465600077546 -0.7980123143316966 -0.8159331604761754
P 0.9921282329012986 6.459440819827129 7.776988427881306 2.7973381279918663 -2.177447984019314 0.1533879008372584
P 4.636608862475859 4.499779780613281 7.178260239850583 -0.16811800795858145 0.7908582197854186 0.020821564731041558
P 8.302905137703593 5.984004368325769 11.661613017718906 0.38610770393662536 -0.5801180062809363 -0.9707503375607927
P 8.35291302108851 2.5161055662228655 8.24475418658477 0.8144102960737457 0.5854633297532498 1.4777669958703645
P 9.016181899929155 1.991187135837915 2.8574138311220243 -1.0912381452359208 -2.1101866397684947 1.4127337696191153
P 7.305489686333617 2.20617877420991 11.600255927372363 0.21007198379286401 1.0188690474448905 0.3807852632824475
P 8.851977610542253 7.922347492932338 5.136235042807804 -0.7028951242108734 0.8502561021277615 -0.1734407057230755
Ni 4.231878392947274 8.850118162483998 7.290611284522026 0.8958263345583927 0.5599682708059389 -1.518506896791888
Ni 3.6004173452849777 0.4126744448441334 9.203695028106921 -0.28811036405452967 1.1438105200159978 -0.8003440477886667
Ni 9.106459042272665 6.849568048292136 9.580236077249308 -0.22474424109305807 -1.410046195484623 1.2621144326659295
Ni 7.0186463454681025 7.706726647389114 10.634195653663523 0.31735100608720185 -0.08783942551248744 -1.0487876893811936
Ni 4.292254107929738 9.087902126297342 13.154666227247386 1.5194355792537444 1.3271710559559466 -0.1598645097005376
Ni 1.7148149292398527 3.9136028669757854 7.025898192895301 -0.8871066952972076 2.348571611573439 -0.990017670430837
Ni 8.688271052201248 7.513428569696773 7.513636114151759 -1.3719812702921017 1.6798564756783843 -2.703220582780151
Ni -0.012849913020766216 1.2473703479282698 11.326704822777836 -0.287133344853241 -2.5034047294976562 -0.17894800869454988
Ni 4.069101558635397 6.346596739685692 2.7373930327678644 -0.6913171895652868 -0.725348568118383 0.5487070960698227
Ni 6.830879656191482 3.202579981184474 6.891898665072889 -1.4999031656477717 0.1262416794397697 0.33897295523235166
Ni 8.6664835800035 3.8576879491027736 2.1279579925592738 -0.21069984718485002 1.940936060867367 -0.7820761027174145
Ni 7.542907395226397 2.2734382034686456 4.733303917965895 -1.585233194474844 1.1692191898970896 -0.7213672148731318
Ni 8.06282973284876 7.601395488695177 13.014124823074566 -0.9369863537364701 1.1212318633845335 0.38475967454916316
Ni 1.2145482723545085 5.628755877680775 10.829633974853222 -0.38402845281009346 -0.3695104616995765 0.916821191642505
Ni 3.431123051617395 0.8103164729870022 4.5683652405075 -0.003696989235612988 0.14346112864184968 0.06917270234091959
Ni 4.745048492418698 4.646206619625038 0.8576103134990087 0.22757502567363386 0.10646423970252633 -0.10318891138536423
Ni 0.7511606686245754 0.884136560899766 7.523367225656632 0.9957113783815045 1.9897934486897024 1.0124592872638047
Ni 2.782128723526998 -0.006509946434257941 11.260784571767118 0.03182254382723552 0.46391417069314295 -0.7215407643365187
Ni 8.021724661379132 0.8940104179121418 6.91211781491847 -4.007041136935615 -0.3818255316215037 2.8398433483439285
Ni 6.805241811751891 2.034517910286366 2.161317242016531 -0.19155335616338623 -0.3607275733006239 1.5351735588142916
Ni 3.617039683987569 4.198070246433528 4.209472043845289 2.2071645372471407 -1.2803638657944207 0.6128597194883315
Ni 5.540920434807702 3.4693638217851657 12.096446824372439 -0.08360199039237215 -0.059940385109374196 0.3155036684658179
Ni 3.1843799289779073 1.2916778021648956 2.137744511859822 0.02557013515962048 -1.3509627590589055 -0.005991184586428391
Ni 5.177135387167988 3.507285292791417 9.170556470717184 0.7522687895479947 -0.7988178409521275 -0.6891245527893421
P 5.106513925561496 1.4361137169930653 7.0536218121517535 0.3535300271109202 -1.4215891631272162 3.0877118341592755
P 1.1690293595344734 9.324793930688797 9.642116254751633 2.4112620486241245 1.1291511182316103 1.1734121449325148
P 1.859757966265728 8.770359110166984 3.2195507316191936 0.5982962198518599 0.9642894124267973 -0.7755866383383289
P 2.9218502801468618 7.640030687238941 12.49251959104796 -0.2617704406084201 -2.5757221481151444 -0.3655378502050737
P 7.941420922257175 4.499188138049291 5.357899094540358 0.3646644464611849 -1.4718781411897555 -0.1236942304275676
P 6.024658664508548 8.127591115726203 0.34297143788459894 0.5649868070664528 -1.182286821714325 -1.5126928612132722
P 0.732134195058784 4.073731396477418 13.530616572940964 0.020821564731041558 2.9153216811879017 -1.367483382421748
P 1.7607094881322625 2.119836524474527 5.937439281194169 0.11392506685594574 -1.0477340513056987 -0.7135109520535067
