# total energy = -340863.6834709413 ev
CRYSTAL
PRIMVEC
9.32284070447958 0.00000000000000 0.00000000000000
0.00000000000000 9.32284070447958 0.00000000000000
0.00000000000000 0.00000000000000 13.64491973818584
PRIMCOORD
 96 1
Ni 3.5330769979570738 4.562999195480128 6.208602735201206 -1.369034786069268 0.14770859106429401 -0.09157806661931324
Ni 0.055236899768308485 3.8617164608564716 5.690750623491249 -1.6751793819176892 -1.567186107165146 -1.173544556745321
Ni 6.984532524248543 1.7024999051611711 0.5208549987486196 -1.2430617869098526 -0.659989840206915 0.8886753253359082
Ni 3.597068977570176 3.983882967390576 1.3653654696767703 2.3050387212878105 0.6813680487723749 -1.503216803402037
Ni 1.9476067140201558 1.5908309174272348 9.277290384602358 0.5769588918266645 0.32555642471612967 1.2491473309823002
Ni 9.25835476254639 8.99917046399979 9.608725767473487 -0.7765243196612498 0.5995956553895738 -1.3282241798108094
Ni 9.44357164176747 1.1735778522226887 2.562407047757597 -0.7279304699129463 0.04521207776026407 0.687168714614552
Ni 1.2714303898128871 3.642583086613178 0.935043646164875 -3.1442563062132236 -0.8356833465199093 0.6757409323935846
Ni 2.2216329752042925 9.104938093473951 12.29258519215587 -0.8789763528805894 -0.462984459790022 -0.6960199943575949
Ni 3.691378835636339 7.112702940291801 2.9432497580118264 -0.8571543719094915 -1.4084924778442582 -2.2054125875530404
Ni 3.912945471342194 5.274760803222247 10.274570519447767 -0.39323891566476793 -0.2878702230192655 0.1364813548899069
Ni 3.2661547415027137 8.830408398883767 1.7212108467525895 -0.19216759270861744 0.8051715510842973 -0.5275515450381302
Ni 5.629280472328809 3.6813381360379545 3.084488932362435 1.354592899612325 -1.1420899377804654 -0.3912108294911456
Ni 7.826655415634311 1.2476851141609973 10.073171053074526 -1.2431150087452913 0.24168369716087412 2.216361116144744
Ni 8.698508846499418 5.648233807782398 7.0420339420599785 0.1014737284664704 1.5617608223845167 0.2685440118868278
Ni 5.5133602691660295 4.492779558177405 7.344951687046709 2.7429646954473084 -0.8787606373253576 -1.3061769702027826
Ni 5.006486734844241 7.408376837935966 9.905652654928257 -0.6670104944991223 -0.09507913779403625 -0.08628827897528364
Ni 6.143379208311458 7.369025126696615 12.830727534697697 -1.0980947631464377 -0.14055835317275792 -0.19525163095057987
Ni 8.343504389668515 5.8390071001517025 9.970848213295447 0.38970544859021267 -0.5525645221427 -1.9433333574549496
Ni 2.128050298724642 1.358934574056561 0.8735986666727371 -1.0332991068272914 -0.18373206034675454 1.3115048101735995
Ni 2.3121018228391326 0.573422769180793 3.605219937327713 -0.4225440923867884 0.8120405102899887 -0.6045781962058298
Ni 5.935498502977403 6.980467765636755 6.5936621663731225 -0.4993773965967593 1.2775600777970384 -0.5635906980498745
Ni 4.706617558816351 3.9419395063941676 12.442952359985382 -0.09691079168613632 2.278819382579966 -0.2729187439157558
Ni 6.303741393819176 4.585476564776047 9.498051526858537 0.6317843243069765 0.492238728669449 0.3821628603562644
P 7.623175091182742 7.243763436999406 5.334071784443196 1.2879753595930916 0.6615109048371317 -1.547833413670147
P 7.828230975738421 3.9061770888831155 7.838597042482566 -0.32755674297561005 -1.5745266066906174 0.8688204953935101
P 2.168651270638258 3.6310880238417687 10.283630456188446 0.08015439816340389 0.21511880218815213 -0.9291519452937159
P 4.342504686472337 6.143080877404171 12.20071418925678 1.2027538313194253 -0.40938544351764333 -0.4334975060744986
P 4.604746876818629 6.229429029382107 7.990178976475188 -2.136615266273669 0.5921371422289996 2.7729710120014115
P 5.283505627942103 3.708066720762716 5.296971539269778 0.12076420126496622 0.6814657506925037 -1.1368721410249516
P 6.984457941521721 7.481048382382954 10.890447641303696 0.6161787565592356 0.09220824400414442 -0.8534455555993367
P 5.80902484396934 2.9257405306063244 10.642123520066438 2.5167911781068915 0.06625938534886654 -0.1505316623353859
Ni 7.462682385903086 8.382352667501818 3.2885071847312064 1.2959036133012325 -1.0113179745705099 -0.7270071867677286
Ni 2.238544608511135 5.475080684624742 8.456207280453018 0.057650046413300716 0.8293216659679395 0.3686254879914619
Ni -0.0444307949359153 1.4002254361932784 13.511472983206886 0.34912727005753424 0.7562007776125493 0.8844273486928317
Ni 7.136093947991288 7.136653318442452 8.559485711419502 -0.3250694577773821 0.8503198654861613 0.46833543968929026
Ni 5.51425526188789 1.9121239817346856 12.462286999629846 0.45054366292350795 -2.504523673593448 1.309646673918938
Ni 8.36076096808691 8.590680869196804 13.152720744353187 0.34408405120667196 -0.324639312218499 -0.4148043005403695
Ni 5.4727499744115615 7.119303511615532 4.294643086102619 0.8844923976028122 0.6919481382810663 0.08784071106406809
Ni 7.202081015546874 5.054872278869882 5.096977957297128 -1.662946073076291 -1.063840469949258 0.8953100570436064
Ni 7.256955256806012 5.353417611496685 11.94349421327785 0.023810215045720284 -0.3207435767085186 0.0555445700345237
Ni 1.9215400509959375 8.017363448117647 9.503373004417272 2.3539696426605587 -0.6261381817647926 0.8465154041384066
Ni 0.6043466322892808 8.524712447322925 4.617372800185474 -0.6774404315831946 -0.5715983988456994 0.4599616138032982
Ni 2.477405113998794 3.4927557112690395 3.1340472897673486 -1.063824271999342 -0.7195892970371026 0.6011072069380938
Ni 4.0546619751444615 2.058567165849285 4.465190475241937 0.4794996838362258 -0.18487465859163 0.30658888247469135
Ni 4.4643448935765955 1.9227520203067918 1.8851548677159238 -0.6431925661439182 -1.417535561883133 -0.5825721242483838
Ni 1.5840625349681567 3.532592210232732 7.250050760870483 1.0039437935936257 -1.4733660385891916 1.1467469769365026
Ni 4.209057542506435 9.062463230548937 13.316418642318009 2.147592591220779 0.27674480253006534 0.047567722476634204
Ni 0.873201513652411 7.008175248651052 13.408685865953341 -0.1620365776511919 0.1669406998210286 2.0091718532163143
Ni 2.031185982264833 7.595682033508057 7.137685356924849 -1.2437667833966772 -0.3268646020045919 -0.9252580095559484
Ni 2.3517332193040654 6.722532727764421 11.751755074596202 0.9176999947030323 1.0139042472404474 -1.3353577055317971
Ni 6.468932810888605 1.3387413007695594 2.9331801576067984 0.8433521759190766 -0.35545835448188456 0.8123495568899751
Ni -0.07567909290607791 5.907082484058298 4.455967388786337 0.9174696238597813 1.1909879490327488 0.3570838059004496
Ni 1.6987521231383755 2.151758283013121 12.010108708022823 0.08867863358433115 0.9397975979330202 -0.3574941539649908
Ni 4.183690092546172 1.7371342589290433 7.197790644186449 -0.14069256475777706 -0.32412946246161595 -0.6680494772865979
Ni 6.434820536208484 9.393787671613918 5.097196111773082 -0.24684621519842004 0.5291913946343982 0.365182523748184
P 5.267526278720532 5.318969714545867 1.7051783573381587 0.6793191366631461 0.4062672096036358 0.17856131477909248
P 1.6141007281956357 0.5778408634608992 7.517505351537534 -0.24247559693455012 -0.6655909884437763 -1.4121879244179742
P 4.456784069645035 9.12796551038018 3.658312583699895 0.13536498189727653 0.320036523339165 -0.08652456335580583
P -0.07245152540286462 5.025477361661242 12.938317779558567 -0.5120387941145118 0.19251134920128135 1.2451634066338877
P 1.981625760291748 5.428196117976389 1.982620507410734 -0.16199878243472102 1.273811923608516 0.6366244260080971
P 1.5645032148591402 5.559032866503528 6.028516215301378 0.02372176909697205 0.7491207308373163 0.16863737079716118
P 0.21547602377676983 0.43052319687431434 11.611417418956053 -0.38051349767829945 0.32738679305664903 -0.9875836070680476
P 9.559361325158308 7.1693485213129575 8.377735064427466 -0.8581460463987995 -0.40842205116310953 0.8677293192118605
Ni 8.420939905791247 8.794375618987987 7.09949247480349 -0.3588632663983755 -0.9962032304162584 -0.18679990063880086
Ni 6.1495509289559624 1.8304745415465227 8.649214325490636 -0.5183948182395265 0.599476099092574 0.37548313434324365
Ni 7.7161890743703765 2.543373535872674 12.124766598534144 0.04179790987239253 1.202861046321251 -0.8999454989330888
Ni 3.9110249661265324 8.606622927054964 7.960623706403879 1.5787092773133973 0.48273336028217506 0.3792325740833469
Ni 4.152561126938924 5.127767571497337 3.902037747544506 -0.7452820738175164 0.20492154994017614 0.6721593856899133
Ni -0.00228129915666173 3.8148225713672668 3.186416483689359 -0.7292877552717891 -0.4905361441560456 -0.35788316187329333
Ni 7.907204760601852 6.547226028369786 0.7812755059922898 0.476840648946824 -0.24332920318409706 -0.6632397146027803
Ni 0.4697061646942309 7.202435283499277 2.6138346347534815 0.5663782880973407 0.09404863964699287 -1.7802251440061339
Ni 8.827229310152989 3.394092086524654 10.181402709386063 0.3072226594039483 0.4087215846813993 -0.7947053614456507
Ni 3.8867762570685955 2.242879729507652 10.741444405090938 -1.701387921992257 -0.6119891439579201 0.08886503856352437
Ni 5.738525521441036 0.20552389116648623 10.828704330904273 -0.18209812428775735 -0.3215632443963365 -0.07348084279797022
Ni 0.09535681309392388 1.1904615170069732 5.851596664439222 2.2055789379275756 0.5627090667758696 0.7588814097685059
Ni 7.262437087227413 5.740268892680495 2.8896257097110394 0.020949348558157468 0.008847165977984763 -0.3319389312037057
Ni 2.778020117294902 7.164528612592098 4.894718924997266 -0.8235317987590398 -0.5230534000574605 1.099940558105925
Ni 9.233649234286668 7.411136398828372 11.319347731585552 0.40662407872242234 0.6248338611310723 -0.24206293487716377
Ni 2.4983908287582772 4.516879101781699 13.081139040001881 -0.10880985711656746 1.0184430156510653 -2.8229509434639644
Ni 0.9018067862408262 5.146347993316817 11.06275518279601 0.5485266046279004 -0.661367694391048 -0.1509389250761336
Ni 9.009789179731042 1.800911813202533 8.294160457603214 0.3593378920419489 0.7823342414748075 -1.629715593157935
Ni 6.546069996104048 2.3785550324373546 6.324993741827046 1.1841148760619993 -0.5076766604910741 0.07423983245118182
Ni 5.7829395352634165 7.403230629785262 1.6921478226783055 -0.7915989546061851 -0.13770237178120154 0.40750930954085307
Ni 6.748673973515461 4.28818049282351 0.31712668673036815 0.1236266104144258 -0.7319251928946363 1.223386934188745
Ni 3.271198398404038 6.693613275439269 0.2856070940913913 0.3972992017770706 0.3032353926214262 1.8499714594623367
Ni 3.9083399879609475 3.5459984553789505 8.670145967773173 -0.9711020644732565 -0.5045170318161698 0.2796136394374281
Ni 2.8807671463327806 0.14219756239026854 5.7651012115758125 -0.17985226567637413 0.08336879133564352 0.5152051076576353
P 6.184632779084765 0.18154834134553416 7.20391761519486 -0.7783161214543498 -0.2967150750044051 1.1157392157010784
P 3.5193071620175997 0.12078392923564521 10.394986196469729 0.0005252763758507083 -1.4636860922972663 -0.004628757021262996
P 6.655613376123563 8.943783466493752 0.597514854512404 -1.3898545510280966 0.8262311999680738 1.3031569524295363
P 8.48466152301962 2.8262098816626353 1.3345963657264377 0.7763435711090113 1.9747046726773798 1.089367153465453
P 0.6817448570486012 8.993753893464357 1.0874963334931407 0.5600271490683323 -1.738546276210109 0.5533494799378404
P 3.5829075823148875 2.0323793058939814 13.32845349757479 1.1097724565946823 1.0632138921088525 -0.8751160985942348
P 8.022863924220754 1.9598942182640469 4.625614191499283 -1.2842588299734528 0.6521137798929479 -2.169823891815154
P 1.9890840329739279 3.0003512259506797 5.068814587365132 0.07863950418077424 -1.258358308057607 1.0581210509669778
