# total energy = -340876.82337500405 ev
CRYSTAL
PRIMVEC
9.22432691373368 0.00000000000000 0.00000000000000

0.00000000000000 9.22432691373368 0.00000000000000

0.00000000000000 0.00000000000000 13.50073484750232

PRIMCOORD
 96 1
Ni 0.7967088219545518 8.246649901174603 1.4756036156669543 0.7522366507584787 0.7699821476673577 -1.5196312402043184
Ni 0.6387044005076012 8.638656130236903 10.433381799196342 0.7210846506357066 0.8348677925971492 0.6374248104222053
Ni 1.8495698282062742 4.467627572016224 12.621418939503709 -1.4180454116400159 0.25985342609136536 -0.627954409037925
Ni 1.0563053699934422 3.438635434586339 6.13369417135392 -0.3526345118798443 -0.15750063745405132 -0.6545910377888468
Ni 9.165844873050952 5.753129797635028 0.5066987450114727 0.559308782845069 -0.08601959869492928 -0.6632281446385545
Ni 9.00683592238206 3.340184191374301 9.6955527795979 0.5127257928792073 -0.6230389740141786 -0.0727241671376038
Ni 8.310104047343028 1.3613723160731284 11.273991038718094 0.31475290634272246 -0.546806022392368 0.7568893190391417
Ni 6.693466927240414 8.748536314734402 2.610003061380197 0.6216942870608261 -0.6785146384839799 0.7305758779555934
Ni 0.6276988558363483 9.22356148775888 6.828982439200721 -0.41345807092512016 0.16533478878648944 0.882486422916377
Ni 1.0035791162503518 4.866339886885248 8.152432624104637 0.26622230573218664 -0.08048169959583559 0.20100087472953126
Ni 5.146833225552129 7.203609113560895 5.758847035575891 2.088150743014378 0.40195598382279163 -0.3669817817404519
Ni 1.1588798874222674 7.668395283496706 4.864071624849659 -0.6247649555663498 -0.5441436450688564 0.5714382191187514
Ni 8.022747809308607 0.8473393085789527 8.957873194098589 0.8356344955598446 0.13556295684069558 -1.1952207561671737
Ni 7.883192964508183 2.989659761311769 0.6074413110768659 0.529396568666669 1.3199868795026817 -0.21311745548740715
Ni 4.249158608816197 9.016871990274376 10.624200841893408 1.0313512390723012 -0.5713011793202548 -0.68422942948057
Ni 7.7932742238700365 1.6410170166461744 6.115171722523247 2.533713407783527 0.023809443714771897 -0.403870170126369
Ni 2.5946279529584015 3.030191454619526 0.9265901149179593 0.2831779597499188 -0.18846957503173992 0.44378011894742925
Ni 3.343772454618889 2.7250138166145565 5.5478165697548745 0.3210137996507697 -0.49471264413123833 0.8019324753217092
Ni 4.222214349336917 9.065557988744642 4.768108182658355 -0.24159782231528712 -0.3940393000788762 0.1044747200763233
Ni 3.2514092672974115 0.3776365722951589 7.989492265222779 0.48702504567899346 0.8882251251723672 -0.005746929786106231
Ni 3.0969294612380107 7.8822797561246 6.438243632682908 -1.1185807989149317 -1.262315750043458 0.08418948746472597
Ni 6.032221038581659 2.2624876068199375 12.02785931829003 0.7826286327867747 -1.0800507611605337 -0.000481567622108848
Ni 3.4105565828729083 5.630317106533644 7.952972231773817 -0.6759900722899131 0.3535619087901201 -0.7189910013314714
Ni 5.328607815520873 6.010958964600235 9.433530233529892 0.11065745184826749 0.6680309653438365 0.7730839265211331
P 8.761155194216652 8.008902094321137 3.075548393436907 -0.6433990257277694 0.09765024095532214 1.6472939683613306
P 3.9543214414980725 7.556061427988772 12.42596836216626 0.6145183381376771 1.3431759160246353 -0.772181983532154
P 2.3256189015396216 0.8851101607836119 9.829385774293906 -0.6983686970954295 -0.6501155185159966 0.569340198939142
P 4.465469079473207 3.629947978783626 3.796068885651946 -0.17026513620857128 -0.2730753240982781 0.16402892549087236
P 4.174902775605582 7.629819147535614 8.474478789090009 0.1624232715666493 0.3643384305803338 -0.0734762148122799
P 6.02714765867286 0.6493437393927097 6.15918375444844 -1.7581331972031011 -2.1776960954743783 -0.11187229809197506
P 2.442103704245665 0.698623784528659 5.740120729116155 -0.44468977524589226 -0.13426686373709135 -0.05477323908613793
P 6.486620616195092 6.318341216783756 11.353821132799412 0.735101790850405 0.15019099116651552 -0.570579470662882
Ni 7.991366648490903 4.619459996195942 11.534542304612549 -0.9699890339147359 0.24982715220361493 0.45500067025359703
Ni 2.9188907237475648 4.319973768015935 9.948111166054218 0.09107464462033348 0.355339312405517 1.4316594028790246
Ni 7.859846192600598 5.8447550387879526 2.8824205016649795 -0.5284457747176253 0.994380575385223 0.3159852360879267
Ni 5.613058390516619 1.3110259387236205 4.038043279185797 1.847853641788385 2.082080111340266 -0.6564093219445082
Ni 6.398657432903609 3.598668285564098 2.6467380216507506 -0.25830973575332933 -0.18176902308311274 -0.8917814750650577
Ni 5.718962890031038 1.3816658357083278 8.247855520727477 -0.46175264426544993 -0.8003818430051377 -1.3638887230919545
Ni 7.693771407367812 8.394672678259168 5.1005372502352655 -0.826085418418829 -0.20074479285466715 -0.19929649044391484
Ni 6.005664200840869 5.53463316145368 7.305747320317564 0.7114116463223167 -1.3181086886433622 -0.3090394008977129
Ni 5.800044725300766 2.849127137838014 6.041484107862416 -1.8585172921498188 0.48966196908120835 1.2221445771412112
Ni 6.565756118445261 3.13793159522822 9.45020412720834 0.8197049688137817 0.3428761469414998 -0.3779097415068653
Ni 4.023651484033598 5.079624778251192 1.8507486972105374 -0.742615839839263 -0.8911998915299748 1.2842027799245366
Ni 0.06531377051317813 4.062181498359156 2.272268160851393 0.5918538066606259 -0.8836932987402845 0.5275494881556011
Ni 7.820661251050449 1.7444955181314767 3.130685886285743 -0.44276581875030196 -0.8747368608779451 -1.0504627630907715
Ni 3.409154485152658 1.6640317127779116 3.1812859326306913 -0.014163950205207863 1.2006550398088676 0.7394317856843265
Ni 2.6030405392799025 8.577129868433824 3.195299530371507 -0.2924766114430253 0.2616352005821365 -1.4483430341822927
Ni 7.441855034078134 7.4777007692155815 0.3363475617319246 2.184265006941148 -0.6973297143079539 1.4869280935443425
Ni 4.999428478383727 8.857254234016427 1.0491002480902358 -0.01229295843474012 0.6384733062913779 0.26870419161377596
Ni 0.04334142334452147 6.460700257024677 6.843657421195101 -1.1442193254186424 1.2746153933464175 0.0612966420269525
Ni 5.529126238170856 5.568117468851759 3.604142923702049 0.5528272888857834 1.3808340926970413 1.113386656308502
Ni 1.0486953001302424 1.602514675301937 2.4351679326939806 -0.9807287889297432 0.29517421287984646 0.46149424839774067
Ni 3.1619332943603964 6.523139727211343 4.212067589519316 1.4286990346991202 0.20787343347964846 -0.7145208813752597
Ni 0.25464031708434826 0.5114824810491156 4.486726541291079 0.7170457046796425 1.4733845505319527 -0.5365601762946437
Ni 7.437030711001221 3.8620043758121296 4.88827902647632 -0.25733940142026 0.613992033320562 -1.8423234559987753
Ni 0.8402808534767461 1.434318294834563 13.44148006796211 -0.46057842145169064 0.19323999983718979 0.38483269387894364
P 8.793606376978756 7.975869778951296 8.603626748048418 1.9379818633350494 -0.6472227703492338 -1.8665129087607855
P 1.9043162095857777 5.637465960041499 5.6445493208268935 0.4414568701308914 -0.4205476307820499 1.8213527672843792
P 4.363872340717714 3.7485082550887245 7.581769627635726 0.4909503488753287 -1.1390069279797674 0.2371873519524173
P 1.9743380766543221 5.100656244054944 1.230070476735257 -0.7004654317234581 0.23961987265330992 0.13289929396560338
P 3.6156502717679175 3.2134788342338028 11.987559155592656 1.657039477783869 -0.0933143325841296 0.49752311699683993
P 0.4138586599785682 8.584278721941677 12.860800374687807 -1.1645870904417168 -0.4535066022065738 -1.3559710109067744
P 0.03321680191197843 2.836886455767146 4.150989630013631 1.435607074672863 0.5747438864532166 0.7379582864625936
P 6.1174261480681755 1.914804269506333 1.1246004430275733 -0.55801500373431 -1.1021025987542503 0.2866746600492675
Ni 5.250837513682526 6.587211903295931 0.45137676562049817 1.879682099152892 -0.7049082979861602 -0.1065197755308101
Ni 5.562675115858683 4.291977935246467 11.112846656323951 -0.23043306394771929 0.518467837569307 -0.33554696026993824
Ni 7.93306890117524 3.8865595345707207 7.10581464243887 0.3952384625933 0.5581211902948711 1.5432712482207616
Ni 1.0958131629923324 6.274876187456001 2.8858362699926676 0.4094656619362755 0.5515381377607146 -0.9798103908805319
Ni 3.1511223829910997 7.195731538211596 0.9755141010275818 -1.5210468896049223 0.5303874718250285 1.719101537221936
Ni 1.9218885527244391 6.969772421400758 12.548258033920682 -1.8506618006611417 -0.33737604305887703 -0.5455155857157186
Ni 0.043202136005207156 5.248845059027434 4.72139619018897 -0.35816598322103477 -0.30697274817667136 0.26762329984477135
Ni 4.0378846207595585 5.3431453550413615 12.352011397153909 -1.1702604866774104 1.0611253850109403 0.2404662798140052
Ni 2.3845070057901268 2.801963153340389 8.240227924642772 -0.4755862077144326 -0.9847998736753234 -0.6238267600227967
Ni 2.20909720152515 4.035652333599686 3.7419986474493787 -0.20717717874357222 0.18108125298746877 -0.32126705331215644
Ni 7.733712743740727 0.5918263701502908 0.35556921455730106 -0.3185051742963031 -0.14046296524547422 0.11482418163144739
Ni 6.920957282350997 7.794934602749281 7.375708306827202 0.13997959785115247 0.6958240762967048 0.21941023047465438
Ni 8.776283090671983 6.801649835550239 11.682361224068051 0.23716729734775926 0.36361877880548993 -0.26479431503640843
Ni 4.159110727598554 2.091422460622315 9.86959092642208 0.26891425074205305 1.0339092296074646 0.9293635470838898
Ni 5.4498339223598675 3.9970761976385947 0.3143724472651359 0.29094731928269246 -0.8769019868500639 -0.5843058191100389
Ni 1.8573736089387192 7.604507593954257 8.45166241599107 -1.6370036421789165 -0.5182927454440235 0.31260552098241645
Ni 4.280060104624341 1.4432751164553712 13.385533601626 -0.5145582181022558 1.63202110136266 -0.073652335378828
Ni 7.817017641843221 5.508666680647732 9.375464016824612 0.2562453970251329 0.6170806995482147 -0.9036502014781856
Ni 1.7848335005699887 2.382782056621135 11.338592691178617 -0.5665693210622242 -0.44380505864809366 -0.9855503786881028
Ni 7.26733076521542 7.981957834841856 9.937202476817587 -1.8484485950599068 -0.21413792633212153 1.7791540224291422
Ni 4.326781321420834 5.088600048526214 5.725364573043233 -1.1504174838095542 -2.0123703055489535 -0.702974314188241
Ni 3.0826686515307298 6.8946587257692 10.374491850080416 -0.03058172944159894 -0.7785050975367044 0.29303454082902436
Ni 2.6199948525024004 0.2415519193523554 12.257438983490326 -1.1008517570662846 -1.2350535718933955 0.18840066946701747
Ni 6.138273127329789 8.319309925795723 12.316423943175456 -1.4444521837683189 1.037453238204981 -2.0074666975997495
P 7.25232278501248 6.259858982925953 5.550206592908274 0.26024166266871956 -0.9860000646310115 0.043111486477493494
P 1.113855946813446 5.554013472705296 10.154658608901276 -0.6168930090174407 0.9580426601861372 0.9335865840263019
P 4.7064915224496255 7.445978308294923 2.7595100326962636 -0.2648583355051245 0.16425004036274293 0.034899382980346345
P 9.057569721470058 3.0965973854621622 12.297873821363462 1.84957473824455 -1.1010530744438134 0.16580221534121123
P 7.082825774423032 5.298527284825244 0.9678219346531307 -0.3562787935006509 -0.45463583071501057 0.25958371736974645
P 2.69301462588069 0.7407854164362069 1.4050891695309011 0.6053328149836671 -0.5690069839694394 -1.616449215066332
P 0.02845704912481351 2.217011674182878 7.721637177125073 0.8363477195767856 0.49920384713337246 0.4067490343360608
P 6.31360913697791 0.8136253154359119 10.372992896925542 -0.7037014221622525 0.2634375438981979 0.08886143901909857
