# total energy = -340876.8912140725 ev
CRYSTAL
PRIMVEC
9.20012000711570 0.00000000000000 0.00000000000000

0.00000000000000 9.20012000711570 0.00000000000000

0.00000000000000 0.00000000000000 13.46530559279262

PRIMCOORD
 96 1
Ni 7.356885074566563 0.8319153214797915 0.739756800474452 1.0793527066522441 -0.6976711568077727 -0.3805278958560027
Ni 3.676055106170396 5.921316766310564 5.639472013323525 1.385430196708156 -1.1103987773247717 1.1559114170445899
Ni 2.111280314101818 2.1641350029015385 7.7798090660913415 -0.33022220562291515 0.048363478905052194 -0.4307939911004065
Ni 0.7931662565038714 3.7201604809494837 9.284085709751007 -0.27268734463124006 -0.09370462604401282 -0.46540181098226296
Ni 8.61863551763664 2.7550403035505227 13.364679287846988 0.023411436945404842 -0.5022945702435543 0.4336427734031112
Ni 2.773734947178205 5.57288982562771 11.026886501845711 -0.6921918788607563 0.4501747096198634 0.41446671469529267
Ni 3.304425463111059 4.736543726406241 8.204154476139976 -0.6199058277018357 0.0005687280192764399 -0.3876873897189194
Ni 4.685924666741131 8.535181230064447 10.382800828152707 0.8935928172421835 1.692926678598781 -2.1388963489983617
Ni 7.819881108308236 7.748184573962506 12.748883982832684 -0.764843797999528 -0.11700499133285011 -1.640838442543974
Ni 0.9138893097607985 2.619807741206383 11.375368643247938 -0.33796045480743725 0.6376628945749405 0.19524160364825086
Ni 3.096042747477698 1.3946369748408627 5.648170726684732 -1.159604035404829 -0.6611226682597775 0.15028972152790893
Ni 0.9663621935848548 7.571395070050335 11.097956508026558 -0.46441065071358734 -0.5752537362100997 -0.7324656387791385
Ni 0.05684570081039338 6.742335465786111 3.316814344562357 0.08491376722526021 -0.7920494118800424 0.17023608274284874
Ni 7.469614143646279 7.164455366832021 4.8721249732944205 0.38373688971160363 1.5798655024050277 1.5699500430635285
Ni 3.813725700286847 7.163259351245604 0.4201473953403122 1.2126510358284792 0.9550118437796132 0.10150355326314132
Ni 6.73540777550479 1.3531352339922051 11.500421272927694 0.006881814721497826 -0.2364167923349799 0.01845563560202628
Ni 8.401650689900976 5.554636787755014 8.93422999044838 -0.25719670519480864 0.09112092447723662 0.514970623049326
Ni 0.66892599741089 4.413702319152807 7.100484173162553 0.9134275925799236 0.45636824002508497 -1.3202751001670616
Ni 8.134166404058842 5.3488209055725005 0.49203437216787915 -0.6713847123074179 -0.34110362842210934 0.04911706924162508
Ni 6.7359229822189395 3.1072576936303284 1.471043970573095 0.8666921361965977 0.5962146547324828 -0.004277544329431343
Ni 9.04440786628107 7.792529151858877 1.2161942093834688 0.023617125198307713 -0.1727917592851669 -0.592917729148766
Ni 6.602990449848677 1.5378460411344121 7.658217521516278 0.5842909067117034 0.945199485674882 -0.3111201946861416
Ni 0.2885332401510773 8.64730309123106 5.11610203279153 -1.6127925921503512 0.2614626795600142 -0.09502617306891376
Ni 8.83712916503517 2.3584139347350788 2.6288992996871285 -0.1347286338648583 -1.271642683871339 -1.4181186880801127
P 6.292081598099723 6.4087851189743015 0.31049760638962415 -1.0290521586254793 -1.1232890030238782 -1.98009601889628
P 3.435830775578666 8.16660602681042 2.4105592942908545 0.13955022362321773 -0.8344577016429242 0.3028890650256009
P 5.7913558726665535 5.715086878732754 4.948432607731781 -0.06320131524883309 -0.29411183305360317 0.3488195090091283
P 7.914274338436195 3.281857569007367 11.448270393299982 0.511697608725009 0.6267184797482949 -0.42235537341475
P 1.4434436108865574 1.3334285771760173 9.639718184336028 -0.8795417384657562 -0.820047182644549 -0.3953788448259062
P 3.669799024641448 8.247677483329678 6.489213487112862 -0.4417098666819618 -0.7840602230269788 -1.476165969931832
P 5.913938270154364 6.417350430597023 9.690805530103818 0.5558560484097782 0.16719369637209916 0.10208847923233387
P 5.489398737575934 1.9277655225460282 4.624147701666742 -1.1487064146557184 2.5488430643361135 0.0927736295893112
Ni 6.201561618447775 3.520057873222084 6.049948242629674 -0.30834108927910764 -0.02384492493839764 -0.28287045581182896
Ni 0.2562785398093996 8.144452138102025 8.652778082580879 -1.9431361538424796 -0.04840744476911018 0.22269764297667455
Ni 2.200199472891948 2.309855701926563 0.09277400902634926 -0.28022736176202706 0.9636345524516179 -1.2190322567644747
Ni 8.138573261488792 1.7106518931318258 9.474350629274136 2.1796413921262072 -0.8168713560197286 0.729281327513886
Ni 7.184364426285911 5.520531943302348 11.565822165228925 -1.4844863168720692 0.1195285290856522 -0.4750056526206142
Ni 1.594859184126904 9.049605934022035 6.870510616158403 0.9998243721086136 1.19954843700825 0.5599168487427131
Ni 6.163243119082964 5.048712994580879 7.909614477709119 -1.1617650476118895 1.1823235884895316 0.2862090332667587
Ni 4.2283751039776005 7.006360506547532 8.30554807749643 -0.09818194508907607 -0.4723625585708123 0.17586371334227133
Ni 4.906745944473224 5.08813550833315 1.3385806443175041 0.8712473596674479 -1.1135756323908563 -0.1729694225136118
Ni 6.4237445139244045 1.0952006726016135 2.992085072706364 1.5603577713894032 -1.15817475915747 -0.33082178688012703
Ni 7.983937646285017 4.720756320665541 4.823824343842979 0.7946868495028895 0.9262198592485856 -0.4118737571571358
Ni 4.221309411897847 1.9476009810407533 11.776581271831297 1.8408227030835331 -0.13693078372249967 0.07802243942206565
Ni 4.687829091559501 2.4731578300719117 2.2763635854589386 -1.8977178736086802 0.9884654954523685 -0.5658604679206577
Ni 6.297896073873687 0.3439474023057289 5.518243873484335 1.3494792325348437 -1.177539536837327 1.0664072022351698
Ni 1.9572427066912508 6.740633443605441 7.018022578527084 -0.5660646135116638 -0.5887944510090118 1.3756520342754697
Ni 2.4585204393181512 8.49298028010373 9.208518684965236 0.25102374361487734 0.6425497903535966 0.41312691283794656
Ni 4.08324321262589 5.929339270859452 3.334265131980165 -0.26469404201311836 -0.11537516903891097 -0.23503816681989845
Ni 3.889838292182423 3.430853510715194 4.483125503872356 0.44177131604751657 0.20406948635252595 -1.9991926305164152
Ni 5.296509023846616 8.792030177307367 12.62960810843532 0.4031931986640024 1.328263260578861 0.6277258379668866
Ni 6.660712002073123 8.560352758098569 8.773036529783083 0.7182839479621178 -0.32698390119127557 1.7099651221383068
Ni 2.0099133930930604 2.2379383647033406 2.4176010660588796 0.7164741484468887 -0.8215307091686109 1.5317380507701812
Ni 4.5166884612631755 0.3439713226174573 7.948260501342209 -0.35171174295525875 -1.658241725622086 0.5757178203307117
Ni 3.6878220595167566 0.7378882561236734 0.8487681011043915 -0.3219828484322584 -1.6066206590116845 0.6770010300529309
Ni 6.1210329690023535 3.9363816987338214 3.562273543374633 0.059654992658471455 0.5372304628887908 0.14466877579670567
P 0.8091008641628993 5.948227117004938 13.143794529287616 0.7447418850433303 1.0002396052691611 0.10642155939004899
P 2.8884052415558736 3.841666464409519 6.17563384055824 -0.349650746661172 0.49689885314927973 3.163828057697564
P 0.7282897710366851 0.988028475938787 0.903587935513793 -0.7641750540672775 -0.6402478816932974 -0.1991026292655539
P 2.93741428023927 4.161186628380672 2.3470435065562145 0.6767027820862217 1.0164979761095525 -0.32830364844396365
P 7.733289579851671 8.514701763177035 2.712289186420055 -0.411982000600226 -0.10360414454591188 1.008065014850851
P 2.9060878719950494 3.630275309570325 11.967384398368312 0.18923242133969345 0.528331103516632 0.27971545512261503
P 5.447630193250307 1.717027576219416 0.2104021419504259 0.3906744973717014 -0.36680540406358764 -0.33690244585656814
P 0.5256240099063957 5.931933704669986 5.2740772915173775 2.8411304425864685 0.05077645922191901 -1.8026888723262888
Ni 8.051779330394528 2.423550783595308 4.806575039050882 -0.27882405365659724 -1.379548026895766 0.5841412685077165
Ni 2.8006360977526836 5.076055750910342 0.22533669657681152 -0.05098471857798316 -1.304654105800353 -1.532905331605405
Ni 8.624836398446217 6.512599271875265 6.7905670943383365 -1.7388254980134246 1.7206717099225333 2.334794098173372
Ni 9.230940297162588 0.5453159465307509 12.191406397812056 -1.4163865358803542 -0.3867666776768629 0.3859727210206578
Ni 5.016908180102092 7.876425045186057 4.550236698462162 -0.9888658162145807 -0.446112880845664 0.024363516446029007
Ni 6.0119103469216775 3.616438329247474 12.817233513560426 0.03334900777409095 0.7450766426749297 -1.3122041502334691
Ni 6.633488847302302 6.601454029826126 2.974149438970062 -0.5004927411481251 -2.252091222556502 -2.2066932540376767
Ni 0.8328114131576144 4.08703366202284 1.2064724426898803 0.8091161375543421 0.8614625123665421 0.9928394561503483
Ni 2.3325155972292104 0.6863657446848236 11.647044503714469 -0.042449941634094636 -0.3560977878380964 -0.9672955462429726
Ni 3.8998480226287406 0.6630931213971348 3.635362975872544 -0.44533692191158786 -0.0317405256363905 -0.8281749539580059
Ni 1.219475892150198 8.945046571409534 2.7419135724836057 0.5396516707357738 0.7600013823055621 0.007614064901832049
Ni 2.3319359896757934 7.506193820350838 4.519696900469008 0.1561639209204988 0.26532807605269143 -0.18150805611224227
Ni 6.006979082657682 8.119961418940171 1.3165067966522008 -0.9364032275394906 1.9691456905323639 1.0941224087622512
Ni 9.125313720642207 2.0565396007235184 7.0488448202010305 -1.035263943863146 -0.9630676242045542 0.07217009440634668
Ni 2.984859298540428 2.9378926864738366 9.925626630280915 0.9183180879030055 0.009235402555338933 -0.13980733393934633
Ni 1.6570427945006736 8.195153998846195 -0.20249555891222235 0.09508428000035882 0.018248661797542767 1.0320392662782611
Ni 1.3827136194562786 3.3920474049959215 4.763459597172552 -1.0034185172177752 0.2819757119117015 -0.27359237294401273
Ni 4.886524080942887 6.632670036631601 11.72154799464032 1.2101136141186064 -1.7095707149133654 0.7140179735969123
Ni 6.618575452951675 3.491739904183696 9.760743921537516 0.97597584762579 -0.6251634765563492 -0.8355936150195803
Ni 6.112532058218899 7.420108298488525 6.8978855729075015 -0.5711417709242551 -0.742521994573876 -1.4717305598682977
Ni 4.310900179440349 2.4416198190700946 7.276597468262404 1.330214984988593 2.651208451378918 0.5069724353351979
Ni 2.0833395499791467 6.523565814790716 1.8807262295322615 -1.0783057534449687 0.18661066744613022 1.0257428917465883
Ni 4.856172885407592 4.613179318727312 10.358859356148614 -1.283559747023899 -0.04481227121868411 0.3017621505100093
Ni 0.19112421072136876 5.121826347390518 11.164744778408032 1.3622851260502602 -0.14217120618583257 0.5365882013191017
P 5.057830313397333 1.8597030355590258 9.463578208888478 -0.1486305886579311 0.17533972251800126 0.643188195268544
P 0.7758985514719837 1.3993014356278877 4.305530989469328 0.47423329323096397 -0.6833441986621392 0.27400374944981837
P 7.907677852471113 8.802978319983028 6.948097987273229 0.954595325067485 0.15050440864187628 -0.4006336654669423
P 3.209287023271563 7.95805770901894 11.728685447655259 -0.7040127827550844 -0.9590027101065614 0.6946681083153907
P 8.2902740384459 4.389174799511371 2.525673954459477 -0.9142716857477738 1.1227197607839696 0.7978917295934322
P 7.824389167057038 3.7586537825923085 7.5614690606950665 0.027915495463345468 -0.8273817686327491 0.47175577822474885
P 7.792823555695533 8.632398897000328 10.617797650619806 1.0672566947196587 0.6469826293139697 0.9283952696333495
P 1.6135354275147946 5.917526316913614 9.271535826201537 -1.4268871783013617 0.6505958005865247 -1.073279760985287
