# total energy = -381168.45383633225 ev
CRYSTAL
PRIMVEC
9.19512476137229 0.00000000000000 0.00000000000000
0.00000000000000 9.19512476137229 0.00000000000000
0.00000000000000 0.00000000000000 13.45799454571896
PRIMCOORD
 96 1
Ni 4.672631227446084 5.597026284802337 9.35992683938523 0.27083306503132065 0.3951199347375647 0.8090444037761421
Ni 3.239617055561939 8.97066227940763 6.9315937761393975 0.1165697035676444 -0.8200682656904715 0.8756359756534469
Ni 5.700940386354922 6.344461171874586 3.5379859712011954 -0.6439728959533684 1.4913565616293412 -1.2998044910175355
Ni 2.463704868028814 5.882507313994721 2.2209057675672317 -1.4224211721102082 1.4796906952556388 0.29224649771009026
Ni 4.493583763909057 5.381373030779437 1.5801839779340041 2.156899470444001 -0.9989905633534086 -0.38968719375776756
Ni 1.2333696295507468 3.8052275515094354 5.788754744485827 0.9220922102334572 0.39445376190847553 1.516975033528394
Ni 3.7322458486492573 8.456222651094867 12.701036000716288 0.19602399034023013 -0.8061058899731086 -0.08837498630098328
Ni 6.2781827147476905 4.776995890097342 4.911589524419611 -0.634782744813668 -1.0167496871090425 0.9269215133013005
Ni 7.61231251816033 8.966312985536788 12.29588318517965 -2.5450468305184746 1.591487402914672 -0.6301375327321729
Ni 2.5755543619926806 1.5379397371276249 8.412995451483429 -1.3476421793261049 0.5346678443679374 1.903240603199122
Ni 7.461907867324506 1.230942116692603 3.217523930015492 0.030605640700998908 1.1649138776535162 0.8391489364710063
Ni 2.2313532679817127 6.507361996855173 10.388414383708643 -0.4247878941156426 -0.3750833278016637 -0.1662128205160686
Ni 5.697446239059109 7.660219116610818 7.960699232826702 0.05663343222332827 0.20197892237208442 0.6038875978967083
Ni 6.8587260928225575 6.869659095808667 5.864778194518255 0.5679494892392025 0.500614354327654 -0.0032493601752331134
Ni 5.993943027357767 2.374447794869717 4.831809866044185 0.2717332082480869 -1.3516402447419045 -0.4943406055038003
Ni 0.9114703904115289 0.30287912418819385 7.056631837120065 -0.7592218238270602 1.3429265190179904 -1.218954609449004
Ni 3.861612054714502 2.4973958040600213 0.41526101585844855 -0.6065412334694715 0.8620808626768315 -0.49385800944042685
Ni 6.365039860422033 0.20135391597100863 6.30011768415338 1.3081271519506181 0.2824619075195006 -0.09148833511898437
Ni 8.33149998288327 7.973303909440125 7.9673482273256555 -2.2756821225025647 1.1360781843687466 0.780943788885184
Ni 4.827228855036885 3.325278835056133 9.172430895491903 -0.0726200374595717 -0.660213526181947 0.20499199816679534
Ni 0.9258386918968904 4.799266481545917 3.5438267142598807 -0.7733292097627197 -1.2421032796513254 0.31714531783429895
Ni 7.755728874404528 2.009272621959409 0.8961503935442814 0.8254112751699397 -0.5186285315168874 1.2986901749074344
Ni -0.13354079257129486 8.63414830944745 10.425813713435643 0.38914520521136853 -1.0401212719554473 -0.3815979889917299
Ni 8.287979458801471 1.7589905292101098 10.214335045918792 -0.7454273411461292 -0.5267203073860864 -1.5787162192919326
P 1.3294770704345293 6.718215395908562 4.360295837260486 0.1427684734501993 1.0615341904135847 0.2202566376353497
Ni 6.209835354616697 3.484023463779595 6.986327754503416 0.5163348503867042 2.3976236319050837 -0.5441626712322499
P 8.499228248206755 6.310264503997932 11.092051973452769 0.8309514882618786 0.9719322736840358 1.6567402013758952
Ni 7.414939171569209 4.047776544585633 2.478909006327832 0.03210716494718987 -0.5552351269963276 -0.18305226067091057
P 7.41001058485722 2.036425824497661 12.326661105781083 -0.06490389976223661 0.8533478536792078 -1.5985419957686084
P 7.231901024015384 5.802013194448545 7.877932998025802 -0.6963375255980137 0.3774726539694467 0.2886574948072513
P 2.7580132167053573 4.142651838791418 12.89699789570239 -1.4445396012758025 -1.8429217517044068 -0.5267799569794283
Ni 0.5198583151586104 9.693500208542249 2.9310838493416522 -0.3438917326902078 -1.1627394957100168 -0.5597921502393908
Ni 4.5831258859264965 0.8251888595285509 9.214957426619286 -0.21315705047609093 0.5511553004999991 0.05993987088874194
Ni 8.447643599971201 1.4713026701466863 5.523927803861483 0.18333173958454232 -1.130894069064646 0.7599332480717881
Ni 2.9997438437043775 6.148632606193193 13.462300354980387 0.061009449803836865 1.3617984162218288 -0.8429207448086127
Ni 4.785151965495726 1.6743494085312716 7.189731263717152 1.006979752206472 0.24491994470998463 -0.311818763415063
Ni 5.6720125247953765 2.6156451046499027 11.080275777553434 1.5472698278571932 1.1870785866760136 1.2219347751232503
Ni 4.790898918284892 7.773935220840605 5.8268133646368 -1.681573458369491 -0.8732499919197735 -1.403705083757944
Ni 0.06023817986736968 0.19992499362951038 0.6634815617032184 0.21082891656354658 -0.922931932525933 0.6708758909917993
Ni 6.0311924765560265 6.792521196691363 13.097683326124962 -0.1278771581606636 0.5162078378905368 0.6574097381845645
Ni 1.4607742526369338 7.713799106854772 12.389241283849092 -0.3300517414833219 1.4456192074932266 0.13562132088245674
Ni 3.844205684106676 8.011224602724159 9.816220178645878 1.6511022863638274 -0.42041650452082435 0.41034497921743524
Ni -0.27476595065603954 3.1179839491697963 7.80581195881533 0.1796406638862003 -0.5220504127142429 -0.6694548422745566
Ni 4.929405078066027 3.710536159792903 3.039958720541846 0.17029341834334544 -0.623017890968256 0.5604701501430218
Ni 6.682906117971925 5.179889463553504 11.134310006945842 -1.2417677506887774 0.44743288520866814 0.8956350444831931
Ni 4.239228231022797 3.661664073273835 5.587463355361164 0.6477778715217554 -1.0415227802886644 1.1763673709060967
Ni 5.079671802034911 0.5296419275868868 11.3711304374818 0.3535040589689912 -1.2451536364418752 1.5904029116012417
Ni 0.4461455999036503 4.78206240367627 1.072041170853276 1.621603505573762 1.146991745957457 2.651905220335627
Ni 6.735226376164492 0.34627643360219124 9.582643788020349 -0.06231479887882171 0.4347928278471544 -1.2472107760812197
Ni 8.528533109869272 7.2876786490059144 -0.1640529740757587 0.19945024241295975 -2.835232846155111 -0.8107009655429586
Ni 0.3796464597896515 1.1009690324128225 12.130161296013917 0.19356395883551178 -0.13788209189217543 -1.9989656021072737
Ni 9.203951782149923 5.203962299396763 9.369200122405827 -0.7523628919236978 1.491048543470619 0.0032514170577621427
Ni 5.3849039585731004 1.6573476233998026 1.9300511076388662 0.40990763456970053 -1.1822202301424478 0.09690539236949762
Ni 2.5406312792834758 3.440640866564738 2.4617499845680513 0.24394626794280566 -1.1395908255076954 -1.1442234391837003
Ni 6.9926254952478955 7.429219199859729 9.958996554227475 -0.5509526975708899 -2.1942452580823115 0.8905658574904018
Ni 2.8777061518358775 1.836404282061293 6.170732168326764 -2.279360085574784 1.018850021281497 -2.1944239497520206
P 4.882693845795684 6.662217087930927 11.212177998945482 -0.007692483548251269 0.040087097828872896 0.507696457985416
Ni 1.1798723954269574 2.2541755668980494 4.134995978163802 0.26894716086251746 0.6252087279719878 0.24825800794428213
P 1.1691416851790266 2.0217320156063217 10.213810004311974 1.1818769878704163 0.40051179517709734 -0.3679716564575469
Ni 7.187746036345663 3.871487618387405 9.407420576747343 -1.0531562507625347 -0.23418610323224828 -2.280533022836963
P 7.3045976780172195 8.409805662807331 3.9637156362603885 -0.3093057671852221 -0.5166562382818651 0.5225497209481645
P 5.653962495475163 9.192365925326964 0.27019781282298716 -0.7328942416761249 -0.003975182597664122 -0.3655753883112285
P 7.056715512752676 1.9815309314555467 8.003684600664771 0.461004967466148 -2.7178360187004804 1.1158428311584783
Ni 0.8427202838290695 6.984570566218601 7.223726558368074 2.052204663937072 -2.497896140974601 -1.5570695875564344
Ni 4.402257787745861 7.724290743866673 1.5219374620252475 0.33208445564263456 0.4409771022809954 -0.4284154635659009
Ni 6.09022517560634 3.4215885686780947 0.3662942195574146 -1.0956409022893068 -0.7579709821390946 0.7299001920448075
Ni 8.635794236726268 5.294810129087901 6.225492812551724 0.03908719580944881 0.41544424811721353 0.9834508158465965
Ni 8.18511360143763 3.588130662945897 4.848739929204845 0.49474966801676085 -0.7161656160675344 -1.1645019869270783
Ni 1.5846785547713549 8.31753258882448 8.755246259595866 0.8406167792657846 0.11698416539724368 1.899493220341548
Ni 3.2876707760038304 6.832299305116855 7.901726302085396 -0.8794085553220016 0.3381111214526886 1.3509694439271247
Ni 7.876911419697999 4.579181177532013 13.294142677344494 -0.6359094022189435 0.6024110133511819 -1.9923329272821042
Ni 2.785800882831533 6.036884258598416 5.9498330957979135 -1.2251705084517288 1.3853535778339496 0.8993528596544124
Ni 3.0851665499625422 0.5336289335538986 2.418926450920524 -0.12565083993330617 0.10019691863657582 -0.43656226104275137
Ni 0.8098642650990722 2.924757603711338 13.29951263003069 0.6769048707946987 0.6393307691956667 0.6110874580792572
Ni 1.862398898917249 9.224273007212412 4.857569087713896 0.7737650117485577 -0.4952690308553405 -0.08819578041064166
Ni 3.266990941087295 3.8219534829070247 7.737027830272358 -0.7734482518390873 0.5706954274154559 -1.4834270223696193
Ni 0.08190741017608781 7.3197236577583045 2.007340726309803 1.507320284047449 -0.32720141651872037 1.829871603388668
Ni 2.1680172506828708 0.9223445446010773 13.6132990108565 1.0002897417808063 -0.7570345863677542 -0.25730186331410526
Ni 8.14617224933824 5.853450720692697 3.8518661422965224 -0.6404584550422067 1.9939478371777077 0.010300867705375808
Ni 1.0219001571583597 5.438198899958711 12.261739849024877 -0.6362117639507108 -1.0094675516253324 -0.4930010607567703
Ni 4.896091142137788 5.568677716083939 7.007442518807036 1.411577287417169 -0.7590251344352218 -1.0953835348628618
Ni 8.97142547473803 8.099019651093691 5.347049470185198 -0.32390012005962926 -0.3608008497407206 -0.3396949210000408
Ni 3.390821682226015 7.607126467963386 3.606460224049775 -2.2538873952249765 -2.0326303413495705 1.5364483117616572
Ni 5.139495281789014 -0.3932138659343148 3.704554731329939 2.3195914222910052 2.3858783184436976 -0.024781320709737965
Ni 7.247707442966707 8.6174867439211 1.6960030071284031 -0.9172775624536331 -0.9569823372424229 -0.31519025099045717
Ni 4.772214425376755 4.647133147311113 12.587396216019542 -0.4827163910013106 0.8018111192524965 -1.4787902949285565
Ni 2.1935613064401562 4.046415666165158 9.90515082488655 -0.7832487828692769 0.5941341180543703 -0.4001947781573108
Ni 2.2531457129582306 0.16708276758620705 10.742440468207969 0.06934573758367411 0.7556320495932729 0.7766510750471012
P 0.1544762519478923 2.7132053751987866 2.224041305009001 0.4437091565001777 0.18987879667444074 0.23914087613436233
Ni 3.136585685957769 4.857158985162862 4.331051663419424 0.016281767879159054 -0.027247522862043398 -4.12237619676521
P 2.033474189545146 8.034304365125449 1.170799566119645 0.41109394156831786 0.3570069299159271 -0.3412239560500575
Ni 8.668832318920627 3.714149843706731 11.087045228182848 1.3885191200461249 0.7980642506155545 2.3954420508727328
P 7.633075109197029 6.0077724945496165 1.433559442764782 -0.8650386597535746 0.07434421923953002 0.5975788820698611
P 1.3111419922559737 4.678497716853266 7.906544547303832 1.3595867532824908 0.5943997130109311 -2.1460761545762526
P 3.474690412449989 1.813241763539838 4.055095863657915 0.6584914012845176 0.9867143170892168 0.05964136581171665
Ni 3.236959664592229 2.487262776902164 11.097811799416183 0.7601381649937424 -0.7366858475080732 1.4210078367024492
