# total energy = -340869.1872862591 ev
CRYSTAL
PRIMVEC
9.30840931860319 0.00000000000000 0.00000000000000

0.00000000000000 9.30840931860319 0.00000000000000

0.00000000000000 0.00000000000000 13.62379794620960

PRIMCOORD
 96 1
Ni 1.945224798338482 3.0940965786247867 12.127482246834921 0.7445423674380145 -0.8274182782976395 -0.7770215710126425
Ni 6.181472485856343 7.170165161800938 9.709666724347214 -0.9102895611715741 -0.3133076892557637 -0.2845699550014389
Ni 6.603599531578806 6.197659809336714 4.092997786864335 1.6253668292709362 -0.33537958145413854 -0.9190346543540558
Ni 3.02958930334073 8.595990038988617 9.795932405977082 -1.8879415109482067 -0.6782793825447222 -0.8729373457753612
Ni 4.164386769019604 1.3082038193970105 5.592228778466166 -0.4386245428884188 -0.16651389669625516 -0.8085630932643494
Ni 8.24032503446791 6.158545874164476 10.656711716153868 0.6424937403046805 -0.3867774763101403 -1.3215981898538596
Ni 2.4760926795397835 0.5947310145734305 11.919160981303946 -0.29573728447216807 -0.6675884784897793 1.8075683119057773
Ni 3.5861670105643353 2.922607757187821 1.554829188505747 0.1096943166040498 0.7328829288222152 -0.6049762029751968
Ni 4.45997530100304 5.409088621318803 4.211292773476154 -0.2781946476027144 2.3852106029527116 0.3771852046360149
Ni 0.4747782002952209 0.6139584644762799 4.7584382697264065 -1.4137033326212365 -0.3294143650096391 0.4787826031645432
Ni 2.5296998077303865 8.616664015670564 4.685033086153168 0.7815335999503831 -0.2347741145252344 0.09641174056253073
Ni 2.397315613056527 4.782241733558497 7.904472978784446 1.127085236841517 -1.555667050781953 0.6892135129587227
Ni 0.03380441860340247 3.2461308249760843 4.782647580196647 0.4806032013130497 -0.3257119764573874 -0.566736699878024
Ni 1.0414061968585366 2.267872875668347 6.653795127822569 0.8195021087743564 0.11332522848841772 0.9036676849796823
Ni 0.6454134406147912 8.336015480343825 8.83922900885517 0.6321854164001371 -0.330769593485953 -0.9697653479397039
Ni 6.155204155286125 9.398328364112606 2.397638614853404 0.0595799164461619 -0.6673172271062636 -1.418331318311551
Ni 2.997503217063076 0.5557650831063903 7.634245207480868 -2.1753841595117502 0.7241532622587012 -0.7446531819842659
Ni 6.1875601854286035 0.43073360080581685 6.505363235805316 -0.7024369536275322 -1.0848708082569962 -0.015975806602966033
Ni 1.3508363332211055 0.17465833474637688 2.567990879535364 -0.10363114112910539 1.1971362280223319 -1.1298530293946412
Ni 7.966657805990094 1.8175506586853625 6.389029530997588 -0.2529602985159579 3.853565818590873 -1.2728706427411691
Ni 4.104775716938926 0.8017723738487689 0.9669370621215226 -0.15140866562370053 -1.940697976714632 -0.10034372862708525
Ni 4.391847054566675 7.9998981350001035 7.178842460793694 -0.1893841164262093 -1.5529198270541191 -0.9204927269568212
Ni 2.900388584589979 4.059508923330504 3.3604325040703182 -2.457828583529754 1.4497838803938774 0.17005173464618456
Ni 1.3318285617737688 6.303394028665949 0.9100822299847999 0.45592009674407286 0.5956976058867482 -0.07350809649147985
P 8.383590759416958 -0.030275600701499764 3.0697141317446914 0.6541364667499315 -0.968663373124777 0.09457134491968229
P 3.7454338908111175 6.4039993145635075 8.812675840965515 -0.7620045287785199 0.3974789218880445 0.11551195172709139
P 7.7010051177748435 2.1253518234498494 13.669301071897014 -0.41621635039654764 -0.7896757694415433 -1.7707562852837502
P 5.915251984684046 2.5968227459805067 5.906461123099882 0.7263487272481233 -0.4309521139448256 -0.7821565782463628
P 7.857656335055562 5.428310486176173 8.075097049013058 -1.4784745634603504 0.13931985277996653 0.9420817659815065
P 2.4453563125862545 6.212990759176951 3.3259913902822937 0.5324741791507281 0.3245516376006991 -0.7798425854012052
P 8.708612481075457 5.935386073636343 0.07046186460573182 -0.37847975507772236 0.12767481234187045 -0.6635796144407023
P 7.523400671538221 0.8566938494087962 8.30732882508114 -2.008268624675754 -2.1163272054485938 1.2642121957352228
Ni 1.3765089256068814 6.858826801566329 10.827567565769867 1.199474389237205 0.38478230025698246 -1.7566668970702197
Ni 6.821946884585748 7.260726674245178 12.262521199793198 -0.8099129224240244 0.320220614325513 -1.138300388831046
Ni 5.59289246803727 7.061498793595155 1.8725233304956155 0.6698070834076529 0.17883976525145973 0.5978912711039575
Ni 1.2927239350106634 1.6601640770832236 9.142304294303392 1.5036742026544296 -0.33146790510455815 0.5766976677454778
Ni 5.376378871629312 5.62329373226205 7.632446822836585 1.1069362726974679 1.0775814736844345 -0.4718524517036132
Ni 7.496043257099571 3.7178065325076433 3.456384516242841 -1.5690203321604075 1.2545667022256588 0.3591005792201622
Ni 8.054184777057335 1.8885924371800116 2.1811566670364937 1.6520458812240193 -0.9885529129598524 0.1391146787476959
Ni 4.014176970858158 6.06942716513568 0.6455735452518598 -0.9514287544140453 -2.3871523000601145 -1.0084612218480051
Ni 9.038604893210389 6.983028904613251 6.342327380701027 0.35523235451400753 0.0864947385591349 -0.4444447491146216
Ni 7.180171701617729 3.823140490244206 10.135329103857973 0.2538560708573499 1.010940022405801 -0.6463298262213192
Ni 1.6962807045149895 3.871832778413167 0.529816030969397 -0.38672888246039205 1.4930606888046416 0.7471252976738423
Ni 4.947419453604034 8.183683364900308 4.141566273191842 0.003732213348922604 0.09766618179492212 0.5217907312949529
Ni 2.15644190995039 6.162408863954214 6.167697902022959 0.28805482822624584 0.8260126561993646 -1.5373793082163587
Ni 3.0277183131052183 7.91476342507976 1.735317379891432 0.8243671501761416 -0.10759501087285986 1.9776051341536265
Ni 7.215469189045887 7.815815036007679 7.547120359688124 -0.6176242307565105 -0.33524639831038394 0.502261917233406
Ni 9.324885016061927 7.622255976518982 12.300640996870149 -0.9490911074198042 0.9218767517885413 2.1154162635985507
Ni 4.999816488607491 0.3764720914532412 8.574205569097236 1.8611994669676721 0.9390182965648344 2.019880240772754
Ni 7.787759490884137 6.011910505109681 2.00727558445263 -0.01819261174862673 0.7531203389150126 0.5826963085310739
Ni 0.8888618496868109 1.506361232996865 0.20615985293054767 -0.1834276417324583 -0.20105538211655052 1.5975780891934421
Ni 6.230527801981448 3.208087356854015 12.21231815682213 -0.24786000117491505 -0.6893289554906644 1.6478508693060652
Ni 6.503273497955203 5.3982629414984045 13.558471429408977 -0.7894726522918016 -1.203018654945038 1.1518578158005066
Ni 0.4944794482228839 5.998450545504954 8.590377068282082 0.6177700123057553 0.48433335777944325 1.2819147552213084
Ni 4.239952434352356 3.8618076217781123 6.3838661564521235 0.6418836175245074 -0.3228074012160828 0.9636468937467919
Ni 2.1697994770546645 2.0711489570748047 4.1628062011490075 -0.6154519056955401 -0.1737484667714814 0.20940426830187808
P 1.0450550932382408 2.671950916084059 2.145189904991751 0.1063966196893845 -0.023403209415288725 1.333398010702265
P 8.690414541222596 5.453722443106256 4.721436412586197 -0.8270030451370919 -0.0295183211740911 -0.8405828407040556
P 3.6522380985825507 0.7735148362470647 3.393551823761613 1.3579268490815646 -0.9092405510817695 -1.1003208242634792
P 1.6091912286769474 8.727787803887168 0.3945462294646484 -0.04698433916933844 0.04116953225977426 -0.8917426514073223
P 6.231412100848978 5.276685809826679 11.336866001330732 -1.3272600161253272 0.7555628869182344 0.1596408237255057
P 3.4691416909581076 2.705163319866673 8.523578993510666 -0.25470659178310323 -0.6495280214436427 -0.388416297465144
P 0.8608584316544077 9.308362589852807 10.654069058801324 -0.15026940981293474 -1.0765427480072751 0.2881229624600199
P 4.817232043485303 8.869759659966883 10.650335455898517 2.356555401109864 0.8565002832652604 1.4489742400083885
Ni 7.709354760766157 8.370745154814939 4.84497668774384 -0.12083310682968866 -1.7317205115375272 1.2810403230361551
Ni 7.000733498782122 4.525022464016747 6.223704738087765 -0.058715254453021455 -0.43004400030825934 -0.9184690116585731
Ni 9.162006473071967 0.19675463634367746 7.013980295817726 0.9111064006459147 -2.0302430720643163 0.4591432316670609
Ni 8.44120981194341 4.279261846116364 12.144784717729294 0.5084919573035178 -0.41538125608976206 0.9578251448586923
Ni 7.638201281361924 0.08670317685906827 12.541278266384335 0.24021919680020568 1.4359120075077916 0.34792476510900083
Ni 4.0426793196200315 4.191297379819923 11.808726015363103 0.4065099217420612 0.9274488465596802 0.6412040749589796
Ni 0.7020318391595637 7.3909885516369656 3.719350797582625 -1.339710583183854 -0.8930294885395458 0.21801155035491487
Ni 7.9658293575773556 8.518935028194761 10.144321027079387 0.4286553474908488 1.51205214230548 0.23195824234299406
Ni 6.932558710300097 1.047512513249062 4.2852024728243405 -0.7890484202701894 3.0502218076336174 0.5193438124163572
Ni 6.180690579489262 2.8139972394368296 8.29001239157307 -0.8634332629396679 -0.5411444532312164 -1.369426622191048
Ni 4.977997577602321 3.231190828319387 3.89244159623119 1.083540776591663 -1.7314821702744763 -0.2262737903637071
Ni 6.454841845241936 1.5009344304729682 10.722038131441533 0.10967888998508207 -1.5630782556443596 -1.2018169213274528
Ni 3.785478666896545 8.052714048414495 13.04584896094711 0.47228388281407696 0.6572714128344873 -0.5853219190793791
Ni 3.816224342259206 1.8534345758888313 10.566372674687882 1.0137962609076734 0.507054710636359 -0.4245616370374495
Ni 4.251318001902404 6.666505760492175 11.054554053292124 -0.5154017970494738 -0.7548324365101129 0.07231459040401093
Ni 0.07618002033545705 1.6770029892028275 11.729136324762631 -1.8629025657017078 -0.8368277445369975 -0.18386807170398659
Ni 8.554642085624725 2.5543764003390494 8.83918805185499 0.466481417199687 1.119755021728691 -0.9233471656864808
Ni 8.715584479515249 8.383842086463519 1.1374512931223781 0.1633252145556284 -0.1614807051477219 -0.30927877060202863
Ni 5.854784558963234 2.380821112074803 1.4942035198296924 0.7801164078878823 0.99007192070754 -0.6456384565812494
Ni 0.3415990674814967 4.7991923465876845 2.8625098753095446 1.5896333804250686 0.29062593138753173 -0.08286614066761212
Ni 2.112022181572971 4.619577283978571 10.323555375755003 0.05949584137278785 0.005269733039371569 -1.0300600310647035
Ni 8.316849465941246 3.9148003949660106 1.0436942038231571 0.42924027346004145 -0.054425883049048204 -0.8734441102084506
Ni 4.626819226283188 4.365755583769963 9.406592369739906 -0.45948184595340225 -0.37124467078186385 0.9943101271586037
Ni 0.08734824961190882 4.715463206446256 6.700429326732466 1.0205415500513069 -1.6302827785153147 -0.2345167470987896
P 5.438894147359142 4.589343571118165 1.9658187227018942 -0.11502395634707932 0.2945736031813701 0.6446737786751349
P 2.2960308132923393 3.7760120148094045 5.66263572345802 -1.4337291409238597 0.5115991354739318 -0.42634983928612374
P 4.318152379469435 2.4045947889976715 13.046502411268168 -0.47484033068734355 -0.27016663509191535 0.022850165125296133
P 1.4944278524897712 8.20541850022329 6.522924480473555 1.1864319542309503 0.6803349795221703 0.7735390117806806
P 6.176715888789943 8.479141579155897 0.2872798459923033 -0.9303472511533978 0.49964710531837825 0.8461850173821814
P 0.3935623306194067 3.3439156629066775 10.57776151326076 -0.49379013231696894 1.4768907639129984 -1.3180474963881235
P 2.3659835079185565 5.653024791029335 12.275027978302816 1.040118186631654 -0.10445003748597496 1.6071029979647418
P 5.792809170963054 6.819694249575829 5.851039785969471 -0.597384506670868 1.169810286513869 0.9966966251129092
