# total energy = -340886.6240293337 ev
CRYSTAL
PRIMVEC
9.10771224982467 0.00000000000000 0.00000000000000
0.00000000000000 9.10771224982467 0.00000000000000
0.00000000000000 0.00000000000000 13.33005749928485
PRIMCOORD
 96 1
Ni 6.354241412120573 2.2944148890409384 11.269150971507536 1.7182430458763829 1.267199817608637 0.5415499161997512
Ni 4.80026531971845 0.5939230284584338 5.9329951447262985 -0.2199529903520018 -0.06853892541166261 -0.35406584500973215
Ni 2.601654456629487 1.7060748882380385 4.577794873828297 2.756346516070853 1.4780464747839965 1.6122457185079462
Ni 3.9060154773265254 4.454044743376746 4.4488269349854646 -0.5522673026172553 0.8414968678778927 0.9658223041315561
Ni 3.837106525871763 3.026237789819827 2.53913638691353 0.8524592804266673 -0.41815496218015724 0.07222305913146917
Ni 5.474345324353644 4.837807309924177 2.571035238562375 0.6163577053392612 0.12843663020855944 -0.9025227727419619
Ni 5.687101484277414 3.0458466944566362 0.5157123704056343 -0.2116449847069387 0.673840115826446 0.03037706962996059
Ni 5.850575812807882 8.069041488766445 12.527761220879873 -0.26550831038429756 0.019684622913120935 -0.6902013307932887
Ni 2.110785193134129 6.870421008168506 0.2820722261194832 0.38830342603636353 -1.6893446176744775 0.28294758890666755
Ni 0.8424060115214587 8.90367224627562 13.50094851676817 -0.5958600996065416 1.2070843403739793 0.37009590188940134
Ni 8.197533094254654 0.09159261977266236 6.947905781548963 0.24134893952927464 -0.7926042559422479 -0.17320647822508234
Ni 9.013538580058174 2.72091994953196 1.06881827530609 -0.3632536821565873 0.1915520706118056 1.3242256001743775
Ni 7.3056239339303835 0.8419469828202533 4.854433438774385 -1.9941167586554043 0.5291602842861468 -0.7455091022266581
Ni 0.9063585459286819 7.608437153328738 2.531338363620434 0.8690832621365935 0.11811493656757724 -0.661705537346441
Ni 7.841858712519076 4.3145054828377 3.6777898680178867 1.4352882578808634 -0.07320753453192554 -1.0486599055540777
Ni 7.962718055078513 3.8861151258952997 12.409497576333203 0.12773497615584453 0.3068814740144457 0.39437225793826275
Ni 8.536376423612701 7.770472463311777 8.860902429195056 0.16133260960563184 -1.1534416153478586 0.09586486692012522
Ni 6.940750762746047 1.0042436841470348 0.019935871509295454 1.0212645442602604 0.14839738960120247 0.6149744518384893
Ni 1.7877528523731574 6.893372443228776 9.368164664105086 1.089149381027692 -0.4588020462775582 -2.920963452854711
Ni 0.564173596918408 5.118680050330391 1.7014217580109388 -0.5712109335992938 0.3259839991718515 -0.2873575450489051
Ni 6.492596670057303 2.3537060962799687 6.924684758203859 0.8282019505411994 0.5725633338621301 -0.927474300480977
Ni 3.5921637105896616 4.404753804271118 -0.0392624370640147 -0.340811036882355 -0.775799011459451 0.843865110999753
Ni 6.363941125747235 6.015971868639034 4.455238764462619 -0.43581381291250104 1.1396556173073598 1.5662934201475478
Ni 5.604193978978352 3.476058593864138 9.121118878047026 0.6932288047657029 -1.782680804635478 -0.47285441060556627
P 0.43942526119598124 5.66813011950339 12.387395890832904 0.738093012268245 -0.6305669069601075 0.4531271073799681
P 4.216051112599003 6.27147963021872 12.62628389896101 -1.1020511766910246 2.0572725653782826 -0.6242880159299313
P 2.609578166352675 8.73167309900848 1.3816335843803116 0.054322267591648384 0.21391321191582513 0.05249189925112895
P 6.490665835044296 8.104962306178233 5.8983375670140585 0.16388417238289194 -0.4032896150325506 -0.00355814966490355
P 4.856232211958671 1.2592414138364925 12.632242164364355 0.5539040668897299 -0.01963860016653392 -0.7319424192858168
P 4.008122040207749 6.325069409541985 8.55781688919817 0.2701802619386702 1.1229113079694855 -0.4391207657985469
P 4.901861850709445 1.3758201316029424 3.792774736127373 -0.1673037395874022 -0.04694551551160302 -0.2318137463453298
P 0.3109655327009117 5.883044807248305 3.9152379468273306 -0.30857943054215886 0.2638797736419391 -0.2745169416408111
Ni 0.8175000613961356 0.43526394743445845 4.467075147400844 -0.5997478646967219 -1.4325664880743263 0.6650101762396419
Ni 2.112497443051324 6.898527408405011 4.474700124159756 0.8502679292023034 -0.2616938217342138 1.3048731637896946
Ni 6.47500056984443 5.823261783543697 9.133448898993294 -0.4415586858160782 -0.046556250492984334 0.2815023718197088
Ni 9.115909266596837 2.486205095191399 10.526666582680413 -0.8903797096215248 0.7040904300705552 -1.1308120508738009
Ni 2.2862452710849617 5.626917721230485 6.816578034442593 1.2727500580029047 -0.21409010381332164 0.30694420893158103
Ni 0.7935340271828049 0.5305078490784154 9.241089307883493 -1.1189538659836342 -0.20608574545160638 -0.4417484332293812
Ni 1.6943896933244174 1.0178688217859886 11.545082777977164 0.5423662414534595 0.3437004426150081 -0.49699706929004084
Ni 4.450847936350494 7.367529054606834 1.4980984557426922 0.03907022652858432 -0.6219298001103999 -0.3487279777365865
Ni 5.829318412240157 7.88712404277683 8.086932678858664 -0.4163639317180055 0.6559359818525156 -0.6028373022553232
Ni 6.111174785577526 3.172106910425097 4.503253713071443 -1.561741282000491 -0.5997167543484704 0.6987476777014031
Ni 0.6817660030666862 7.275304359598782 6.489112059321566 -0.21390704126823806 1.0336536619532328 0.2698244212611482
Ni 4.79647651139104 5.1860133675528415 6.749621776510418 1.4679813772385104 -0.5076386081642871 0.5919311968657806
Ni 1.2057427116364827 7.455117924041205 11.379590180395363 -0.596780811648598 0.03982715929926689 1.7294206597597572
Ni 5.075409309071922 0.6666553975474427 10.485156362214465 -1.1336230379600347 -2.9165468118442543 -1.2887993981562837
Ni 8.360023789853969 7.91722503201262 4.60312251103429 -0.7743838762794792 -2.6667602830705874 0.25089955933218727
Ni 7.578700472585967 6.3094587906160715 7.01550231165762 -1.2107833864921211 1.319009860301393 -0.20785415020593878
Ni 2.7460754509750016 5.511668729463558 2.3992373717376276 1.2418302284955967 0.012399916326249613 0.5168513850118066
Ni 3.005472205717678 5.365444408077594 10.85467902054097 -1.3806929391334866 0.06757887549123845 0.8358890347728118
Ni 1.2212531457268159 3.4834358408477963 3.645983915034762 -0.4291451426430738 1.446598026466728 0.4962905301413195
Ni 1.6995082276513502 1.43497472315709 2.451117633457396 -0.2363067491196769 -0.6438800791292459 -1.6396673050540085
Ni 1.1447483621925831 3.648941189226853 7.7209292405747325 0.6341546243113658 -1.2459542779662995 1.3470176583682285
Ni 3.8590014663022743 3.0234143989989204 6.899051101863727 -0.30107540885562983 -0.8555546315225394 -1.0488324265762001
Ni 4.17793533651677 7.261588144836573 6.091609597959879 0.18702384372414885 0.7294749315819309 -1.0496017006420568
Ni 8.372392063192002 7.07644656868373 0.09008620415402402 -0.06568191557884172 0.8725408816678908 0.6922684977349627
P 0.3871588324736121 5.73447069608236 8.155955476717496 -0.4884764334135393 0.6325356006507042 -1.1372742615593767
P 8.508943994088282 1.9117270325479163 7.991583127751732 2.100475583128318 0.8622328148736634 0.07731410050113136
P 2.0592901876457304 3.525294886695812 9.958486503110015 -0.8358975194132442 -1.1852860135519652 1.597697902600758
P 4.353969200344109 6.774243566011186 3.9101057509319093 -0.19848916405127107 -1.6579686744663573 -1.5246495193545162
P 7.262635531754006 4.11432707363545 10.327035546988926 0.12451364100506945 0.501988094746729 0.5682731911272084
P 6.81373460665457 7.9876003251517895 10.070512275484946 -0.7346652175336187 0.5939284298014674 1.1856878769760741
P 2.350818951472784 8.709632435180762 5.906641979112453 0.7146921168458014 -0.44722154052881047 -0.6576737904792286
P 7.618082220681446 4.645060793979538 1.2877458211016222 -1.7055816483586304 -0.7697222091377518 0.07648646239351344
Ni 3.0392436030206462 1.873256055684988 0.21323704713455735 -1.702491953689713 0.30538123531983535 -0.4375979013961173
Ni 1.6829048680819567 1.293049241988763 6.966701367475105 -0.36847122180178477 0.3436634187294856 0.025229978211382353
Ni 7.105563924988366 0.9712282269670832 9.207710452981754 -0.7075544773597556 -0.365038541971152 0.2853826807107214
Ni 2.8471073038018164 1.5715630849026718 9.100123779594275 1.435243006465225 0.9866623808053588 -0.15291250386273664
Ni 6.669869182760911 1.8364700056022778 2.508063604772609 -0.043979490904743616 0.49517981357564406 -0.05620842887076771
Ni 4.8241639568605725 7.09281312773266 10.538463802455638 -0.35902550300785263 0.3104807613299298 -0.7290363013826154
Ni 7.367629239442414 6.336654419620025 11.429017735185873 0.2049143508513245 -0.7171652609766423 -0.8940540731493183
Ni 7.885694131941726 4.040481742100265 8.1264027717637 0.22218085124125606 0.015724095603476144 0.58125674787107
Ni 3.347275541581513 8.420189337476247 12.260653876882424 0.7659789400452356 0.4292407876806737 0.12807590443503103
Ni 0.30843267790318907 5.131521924709351 10.301162357814635 -0.1079156274370722 -1.1164498686148578 -0.34307180789207364
Ni 8.73213759233708 2.3553636999232106 5.858973123571999 1.1143436209051325 1.0728025642385524 -0.5301694422769515
Ni 3.977365295684523 2.5909893254963214 11.040473619667551 -1.5763564608105045 1.601842778007067 0.627408563836784
Ni 1.4941566378482143 3.353705586483319 12.350711847128238 -0.28653942002298394 1.2293503508610313 0.04589342009800484
Ni 3.319342187879193 8.488460749068224 7.938996107555505 -0.09567717638935136 0.42464314100766226 0.7335452449965625
Ni 6.072640054728319 8.313865903788315 3.208384750160044 -1.5370851740147076 -0.03757281604745142 1.0710470150000264
Ni 3.387467876073962 8.727920721530372 3.4789584894685786 0.2483713935936948 0.36015601706787004 0.4348763886998962
Ni 3.5981839084368192 4.277327801124994 8.782454970621792 -1.171489216878189 0.3512304324434661 -0.35888100701018844
Ni 5.2033817749575775 4.750855980352592 11.284253380085687 1.3215421398049434 -0.8003543322013119 -0.36495446689777794
Ni 8.14821483201205 9.055406733618515 2.5393230950162033 1.3338780356624769 1.2734005471027101 -1.3626039428422598
Ni 4.541697366797395 0.8274584340528417 1.480929507237885 1.4520513362718153 -1.1010967831975553 1.0578654833127459
Ni 6.023039453403625 5.563591797431256 0.06269020547890834 1.1490442576111115 -0.023607612116610954 1.2319674767689042
Ni 8.514736499127302 8.910184260588355 11.306407890317475 -1.310716252834033 0.497127424220318 0.037761535019489804
Ni -0.0389227193942734 4.852525373042191 6.012615676647086 0.9676760695108431 -0.25915974245845047 -1.9722554398059386
Ni 7.7782959881993845 6.6580746952993834 2.3241889114042436 -1.0150399035067874 -1.2709317738472434 1.0039067697081032
P 8.745808268537662 1.9368734262786325 3.449299224280575 -0.8423792704828461 0.3774420578418273 -0.4230503425992456
P 2.0519311560867233 3.510859162659888 1.5097226289837329 0.08670042681203778 0.015090832894851428 -1.2802116564872725
P 4.97208231273908 1.5022807172425638 7.977106419010344 -1.5349149058362663 -1.6378734463783795 2.3439338556911116
P -0.1574623276244041 1.6237229533908324 12.573096680522532 -0.21311822681835554 -0.03403729209036719 -0.6402594516575232
P 6.643283770482765 8.231359137831575 1.1128048827533434 0.380730498785112 -0.35289367907850194 1.037033119948427
P 2.1312502227295362 3.6943977814434428 5.692281040276929 -0.2895393831915723 -0.5795184250237245 -0.16702091823966075
P 6.794462687373804 4.477988919080495 6.118950039589809 0.20434716549394483 -0.3514399773511109 -0.3749948818529155
P 2.6339686199603745 8.710661606673542 10.15374492611403 0.9840488544419116 0.728337732653694 -0.2060718614945354
