# total energy = -381166.03453967697 ev
CRYSTAL
PRIMVEC
9.23276703737223 0.00000000000000 0.00000000000000

0.00000000000000 9.23276703737223 0.00000000000000

0.00000000000000 0.00000000000000 13.51308782158604

PRIMCOORD
 96 1
Ni 6.551709922208028 2.435917836595665 12.432635319998997 1.106074696028121 0.9268991447037973 1.4158813141091615
Ni 4.0549943152189245 6.806441962474538 0.5597069517444117 -0.9522517645359729 1.2140777409726768 -0.05075743305852549
Ni 2.1652408077992433 8.738804689387875 9.81697489961557 -1.8623562062799346 -1.6054541495074093 -0.7925116962284415
Ni 6.004613083569669 6.145975978405499 9.197210645387447 -3.1608949432111695 1.0169952274609453 0.08320398362300509
Ni 3.4759336373851086 4.690679552782878 6.416433267348411 -2.2843950768955303 -0.6732852717642404 -1.9436357191867168
Ni 8.22799262487954 3.2705415037218692 10.748444752431208 1.1799985399007806 -1.296976277540121 1.2449034681042819
Ni 5.296155176872674 4.0144717010569195 7.970424278604699 1.0600745751489227 0.5429727646892067 1.4966221809036548
Ni 9.13296074342983 4.793763395826574 4.1940167036318625 -0.28001781685438226 -0.30168835984928044 -0.829876767140461
Ni 7.09661859507824 6.089296022073635 0.9892485084150533 0.49905703714286315 2.035892042819978 1.5988142755933883
Ni 1.8074803210907622 8.112389149845942 1.381321650232141 0.13794765502278825 -0.4274435865709348 -0.4136511607725328
Ni 3.4665346806257284 8.026284365231028 6.0844026555879065 -1.8905383251411054 -1.4684233498719357 1.1724713782857998
Ni 7.82221251724224 3.9494176250975928 1.4004427105942994 0.2306122698380609 0.44646666464065693 -0.39498469471128106
Ni 3.119641160622346 0.9942489749974507 10.93046598310327 -0.4219175145463831 -0.13181634531406974 -0.28788436408665263
Ni 3.0878989078337904 4.317186431184432 0.39129758939293463 -0.34671248996845455 -0.2557409465848886 -0.933647004950592
Ni 6.0860183898048925 7.16837565984632 7.090439104155791 -0.09161740449768092 0.7599520171248654 -0.5351506975416267
Ni 3.0947865519816267 0.7266907748781593 7.036035024878139 -0.8006911467154405 1.136212653064082 0.8664252556884562
Ni 4.383486930682577 7.819119540312581 10.888224227734392 -0.28208961178174646 0.30237458728302763 -0.08261648655065126
Ni 3.509854823174857 5.95880932670986 12.02017530547033 0.03546142613140344 -0.9784219951734375 -0.30343002513073547
Ni 1.0337652175614471 7.27350917715385 3.5812388841579867 -1.0553722845772469 0.7220650122711048 0.661575696636796
Ni 1.556349059936392 6.358412713254797 5.6834023514027985 0.7412007046592912 -1.137586650593473 0.021157350803905496
Ni 7.86779468769515 1.12208586624537 9.6654790430475 -0.2679948242515771 0.004622843483992038 0.680054472167274
Ni 7.112665144044648 1.0515844577830622 4.569639824566645 -1.7770706575375523 3.200920334564171 -2.166043084616482
Ni 8.696924858483602 0.09553143967515691 3.571982112009701 3.2415159965983467 0.04906847539187678 -0.3633228448316259
Ni 0.8576169499489557 0.7888226800964804 7.980180543445206 -0.6920448117599307 -2.8122404990249956 0.2922187297959484
P 4.069628250841339 5.877708701784124 7.872441539303201 0.8369539857022166 2.768728948895606 2.2063399844633165
Ni 7.426265306411167 6.755080079908297 11.066272598786059 -1.7430094541877852 -0.5581762119025225 -2.4760823875336198
P 8.50907498203335 8.15722346617556 1.8279022783167675 0.8650157769354393 -0.6676005626746373 -1.1864229553698857
Ni 8.427937426039799 7.530032374209475 12.72074750591174 0.3023666168632277 0.8231798147362598 3.0408059136363566
P 0.4134146826317322 4.479129163561184 6.288234451635886 -0.4779073996484415 0.8703587864149074 1.0198028721130694
P 8.095317763747618 1.0236922688144097 12.131576948263069 0.8419339554153114 -0.5075861576597968 -0.8362975830651405
P 0.5463425215782002 2.5565070057845336 3.917200808087591 0.36316009400151655 -0.9845805585756657 -0.6154153960306499
Ni 4.365981604537404 2.205661861524752 12.01205416365741 0.4058674030620559 1.6144977477669165 2.3937520647648194
Ni 7.622369276518477 4.1702654106421715 7.249055270598943 -0.07073233351855561 0.4196312896153676 -0.04329763434637059
Ni 8.237253090134608 8.487285652021427 8.276388019423395 0.9951351941630603 0.05428190127201619 -1.9495058048142488
Ni 2.9189854364066137 5.931055629245519 9.845162537126756 0.11358876656244954 1.105145499345632 -0.7097046909335389
Ni 8.86933754858642 8.285549694072053 10.449778590613116 0.8234919466600399 0.18813070363508244 -0.22846899824281297
Ni 1.755213627363009 1.030736870000468 2.4616791029512872 -0.7719199881200189 -0.11587036350777465 0.603772926695715
Ni 4.492645934382139 4.015930478235684 3.9368222844186667 0.6532566352481395 0.6673233977538507 -1.7217261193289766
Ni 9.19090558883442 8.044971485546338 5.971811832411466 -0.649542676731662 1.4327490363987776 0.4607067194994388
Ni 0.559997783903469 0.3122410990708608 13.439590428878825 -0.9746764120880761 1.4570976404464713 1.0889125824265375
Ni 5.925146658394828 0.3733657094144781 11.165877535241412 0.6856520208597094 0.22242973402726854 0.9533298280915
Ni 5.926125331691975 7.062946693996255 12.695181050938851 -0.6119359221224816 1.62536657216062 0.3536747802189006
Ni 8.722610416150198 6.247739535774744 7.731364860242952 0.18576554583701554 -0.4894575663798861 0.5049656893178142
Ni 1.494581849012762 3.159831395174 11.280711920787725 1.0047624328401792 1.2398126838449357 -0.10793851025520766
Ni 9.079244505290267 2.8093555615923864 13.181030483433101 0.7339429946556134 0.27820416068441123 -0.5616384594195102
Ni 8.718852679999838 1.3740480764256187 6.351164991195746 -0.9263401868765337 0.19159937890997325 -1.0540018865922816
Ni 6.333807389321841 2.945566572467769 2.914664501472046 0.49706366086191817 -0.2784895531353139 -0.02000523947733329
Ni 6.727215589240507 1.8390471513071884 7.691284495618052 -0.37274053860109996 0.05052294845021622 -0.03363285756309691
Ni 3.2353092650246236 2.7150243816212756 2.1912421260956747 0.26701343417491435 0.08743781919869457 1.099256644665023
Ni 1.3659417070398268 7.913210668342883 12.14422583899033 2.2355081213868404 -0.9415590607088171 -0.7525158725617943
Ni 5.723761545589714 5.213448050496907 5.671050755771463 -0.8500421863447425 1.2267643353014097 0.7789072180711295
Ni 1.5871588032625734 4.80455650039604 8.299684137002245 -0.4695189184744301 -0.6333637529789543 -0.9168435602400081
Ni 7.067544611939449 7.637806462865909 3.602994976208875 1.1209261592186566 -1.397091177985852 0.5300434582220485
Ni 5.0819919146029395 2.393400944771552 1.0121873179127752 1.0686497184124435 -0.4243454072615853 -1.0904529303304638
Ni 1.132814341446156 3.740609367661297 2.0495025343681137 -1.6004618384991405 -0.5976179628379127 -0.7638819483068908
Ni 1.5037499865982873 7.540788547711124 7.800402875143017 0.6428094717728865 0.4561412116159435 0.2313373209295435
P 0.7798493538936887 6.5371036848864765 9.679586710953524 -0.4700459946224937 -0.13047217258134947 0.011609816324786457
Ni 4.272444442524355 0.027183112466569726 1.6677045388943605 -0.9129210852571503 -0.000888059031908148 -0.15210029237408643
P 1.9072496007978992 6.175142289213832 13.509115010597379 -0.35716582409129455 1.210756647019244 1.2816391329624186
Ni 8.426100105415912 1.7037501843602716 1.6511372618717355 0.06996948721060207 -0.44765965650749356 0.9569851654559003
P 6.87758966462364 5.091224681557144 3.9388895009397134 0.8199942179194265 0.6591033238369036 -1.782039057286421
P 5.584725308026345 5.280681059457426 11.395978399827495 -0.038437735150907995 -0.19056862365261373 -2.1298365527889382
P 3.6017208543691948 2.829049053505705 7.757458506208925 -0.35224936062628365 -0.9376381283878561 -0.4150809512405239
Ni 0.18174701749352118 6.148358032279683 1.677501427909467 -0.9057855026536336 -0.6175666380456977 -1.037472778589007
Ni 0.736017716055297 5.4155994829592204 11.964866415031167 0.025363161355136964 -0.046911576949874044 -1.4318522356161212
Ni 4.893172597622497 1.064916573264934 3.796150923827707 -0.2754952463936804 0.27795244968492133 -1.4364221143749907
Ni 7.85640145327366 6.374274606882121 5.567608681369944 -0.9821434098890827 -1.3653072007060358 -0.787501901718676
Ni 3.8797102345933467 3.764115992326703 10.407968928737695 -0.32121434569735 0.7789527265970843 -0.803687767449919
Ni 5.089248869428944 6.969529557953612 2.5228932711343606 0.20853883497778922 0.03410285522097998 0.5779012011352757
Ni 1.5287984833450452 0.24526937741514554 5.342075266596106 0.4385312118436641 0.3729215442636545 -0.7888589299672027
Ni 3.1012217905487076 0.3279672710239578 13.160638994338045 -0.1364363605845844 0.23163299779309143 0.14890698224776935
Ni 3.1500538949694965 8.374655127947083 3.538064619326734 -1.1696963866438241 0.10622229889504933 -0.12081099534250163
Ni 2.0954041585576384 2.137367084364499 9.070484456004118 1.0378468740989737 1.4788908250621626 1.4554410786796548
Ni 7.152864611363256 3.3272860894224117 5.11935230608313 1.1384376857398588 -0.4815244275757384 0.27914801265491923
Ni 4.970829400474314 3.014683065886946 5.874963800168639 0.7375186278220137 -2.6754110167670504 0.7624459871913127
Ni 6.013282651739668 2.735724245132603 10.122438224465347 0.05293001522981207 0.2688448309566983 -0.8454239708464408
Ni 5.619985245024452 4.781003711895863 13.426739340555267 -1.032480467580738 -2.19787745551826 0.7579391004598947
Ni 3.875500092862229 8.041102956192526 8.607256225824365 0.8275239506375683 -1.3856299714237876 -1.7607369533745354
Ni 6.569880007573903 9.171987649345255 1.9421956237195641 0.4877146155468503 1.0252921773624148 -0.041298858748786936
Ni 9.019674692901738 2.8130855994418846 8.501907585046801 0.12498878086927506 0.5082872974918795 0.05637040836992872
Ni 7.767840752648929 4.928958802336995 12.467242500373443 -0.3460329474029266 -0.5713441167430482 0.5985666999044272
Ni 4.428625928321684 1.0625899159924743 8.932353952878955 0.99159144267586 0.9497161425983128 0.5896544850164618
Ni 7.710634528600676 5.070967990859619 9.620575480965726 2.729420123993654 -1.7531455141805228 -0.8365613782494883
Ni 2.2474308992255745 4.215155123573514 4.057994041202345 -0.6603019721306951 0.10470997601558096 0.8862266066850996
Ni 2.4166121208944227 5.870063970746043 2.2142547977290303 1.1571645727254005 -0.034980886950559106 0.9397978550433363
Ni 1.5502738992805254 2.6835683446083 6.626818481380484 0.24398689137275398 0.4956693516175527 0.05439220159763536
Ni 6.20069858814307 8.625297052452881 9.000500082491246 -1.167106000208829 0.1294427028755706 0.9807038492290788
Ni 5.2047323184921375 0.6780165507722871 6.0564439906971845 -0.21520544836468744 -0.7450049088967299 1.0229540161475414
P 3.5899398437356296 6.070876651999997 4.436914183216473 -0.7423921538642312 0.7147669359477948 0.3535295128902879
Ni 3.0887298568596684 1.9594239668561104 4.908197079287075 -0.4821425207757116 0.3587493665283305 -1.157525555609245
P 7.076952801465784 8.88490399367121 5.881287322255574 0.6376304986751083 -3.4899372695933697 2.802382632394309
Ni 4.9971612518277055 7.836347883449128 4.649624207967616 2.767107611242099 -0.33152241249157743 0.40023385892536234
P 2.2644284231882654 2.4473018382501994 13.182205814666373 -0.3525915744570508 -1.2438218050043288 0.05094563780993162
P 5.704483528189334 0.3364798821557346 13.488102156286303 -1.2643543777400417 0.26894510397998844 -0.4849008002471391
P 4.520778175291602 5.040906101656728 1.8109832328731874 0.6798068749328421 -1.5591372687187406 0.6836470746145388
Ni 0.7376094450782019 1.0646118919554453 11.033558135637225 -0.18188060896031258 -0.22171882400317297 -0.27290203174520744
