# total energy = -340887.898357216 ev
CRYSTAL
PRIMVEC
9.13030965828186 0.00000000000000 0.00000000000000
0.00000000000000 9.13030965828186 0.00000000000000
0.00000000000000 0.00000000000000 13.36313109074403
PRIMCOORD
 96 1
Ni 6.778615889840825 2.1543331137905284 11.700998715047755 -0.0940920912904186 0.6605863361403334 -0.5676718100977837
Ni 4.775215927020703 0.3728170262089105 5.980656032074785 0.4536644679406768 -0.41102940687896955 -0.8481421411085522
Ni 2.7731215984990967 1.67323883087161 4.589247038332147 1.1894758832635965 0.758399585036081 1.154457972427515
Ni 3.394448309326458 4.351268253013754 4.784228455804375 -0.18030606538434107 0.9212252342474715 -1.6546833188468666
Ni 3.4138958691575008 2.8658672852426323 2.5670176376530764 0.9243115864822792 0.26747726118521026 -0.2740700839113796
Ni 5.122742908170456 4.609482543897189 2.827024208346292 -0.33299925414742004 0.8005834174929826 -1.053286605692812
Ni 5.320806718224357 4.593349286516225 11.452524638637444 -0.6142974803761226 0.03705859541519424 0.3077787890177345
Ni 5.554606560756519 8.058594017875501 12.178315788810755 2.0016009828475916 -1.1024008467209596 0.7665672084485379
Ni 2.173945019197608 6.806782895511608 0.1377937221662497 -0.287713128616111 -0.891134328399362 -0.2285888116501289
Ni 3.081397377905351 1.8208668097017167 0.14877291967649792 -0.5034150570012427 -0.5973328274973261 0.227013496743209
Ni 8.227504748802398 8.567627048720707 7.2177207911132735 0.2832070132156413 1.0826763717088386 -0.4130346102344564
Ni 8.82648046128873 2.630095295798025 1.1942618667906342 -0.49456814813357397 0.49205438057278483 0.36356607119068357
Ni 7.09178551528907 1.0339436703975384 4.93699588600955 -0.6146618056940769 -1.3831897374134114 -1.1357660524449664
Ni 0.9484565799289696 7.454897935232997 2.2950111008162275 -0.12375388002090945 0.5250933133056247 -0.20141533655913055
Ni 7.397924802206844 3.9147390121301964 3.6721622028066805 1.691122535510507 -0.19141040282761876 -0.7917676189735654
Ni 7.835997065443193 4.202635940107865 12.684484641478026 -0.4050940152311411 -0.16739244264646655 0.2999492656709866
Ni 8.835839028813059 7.268502661077722 9.35041050557071 -0.4809346165105394 -0.323475630927701 -0.34707090174913774
Ni 7.128096757283463 0.3277041655867595 0.055063072220212075 -0.6048931563430874 1.6462099912685326 0.45695008067048404
Ni 1.9769951069368474 6.474950916873386 9.106653147192661 1.1496500095159103 0.34457950278585175 -0.09072548881103083
Ni 0.309993190675841 5.3597657500549 0.9589756098263144 -0.09264044644555658 -0.6931416443685353 0.1371387859682477
Ni 6.612663379282594 2.0234227321672944 7.135230268314445 1.501897570369981 0.27425751733183734 -0.9219955367545928
Ni 3.54722578287239 4.509998688536137 0.4235660270581519 -0.17235287197553542 0.5987605610827882 -1.3907204985728177
Ni 6.360557265641868 5.928574919028667 4.645706134917695 -0.6028658415004133 0.2551678476902379 -0.976211360675364
Ni 5.122058134936969 2.903812852687615 9.52632235803678 1.4053680732826634 -0.3913527543856486 -0.8092338940791288
P 0.47678112457892585 6.040603820027209 12.145576324002233 -1.6510385230054274 -0.6094411807250859 0.2924537286248899
P 4.155852232796005 6.330682892042257 12.522951200853237 -0.6102515924415233 -0.039616071729725325 -0.36943332860473793
P 2.4834990419730394 8.678286403252274 1.1663231188643477 0.7149366287564397 1.1390372669970705 0.3069274967610327
P 6.663236165153085 7.834198394416566 5.698921150167525 -0.0006659157187730466 1.1551994785792299 0.10499922512122563
P 5.0605746288795785 1.1757830328272318 12.40619736454363 -1.1482184192757063 0.11185301481826543 2.3191754177995088
P 4.249602253615322 5.8566737295124875 8.233225800910441 1.1002889425842792 2.4309525850745164 0.7797896206760828
P 4.867779007568641 1.1902637041380457 3.94859146170088 0.3396476127018731 -0.3012630993864037 -1.8285788527191735
P 0.16915268413606138 5.673976230818045 3.4062355392522212 1.1397985706431273 -0.34489909090879955 0.511039663426036
Ni 0.8522632882125694 0.4470729226173078 4.461321354975939 -1.4245071081049594 -1.1138329998173009 0.45045136032001776
Ni 1.9768581522901498 6.704286037923211 4.509469130568906 0.6219483120531611 0.17920306212814946 0.15703938154691663
Ni 6.396238516261453 6.003206071169014 9.14129080340441 -0.13159625888346368 -1.4041208311391236 -0.5817069480346111
Ni 8.832214295830465 2.6616131251580057 10.472712748862575 -0.31900756785401835 -0.1985282448193226 -1.185452106816184
Ni 2.775221569748458 5.202980070515621 6.831673946033386 -1.917692259848078 0.09740881436847741 0.27762103448743153
Ni 0.24495342895920635 0.271252373249035 9.500491798638658 1.1396777287945468 1.7063936027369644 -1.1187353222149248
Ni 1.7253911603340113 1.481575367973372 11.315432124262285 -0.383947463060513 -0.9219083763574252 0.1507124108876243
Ni 4.1015177592962235 7.133392336955764 1.6025738852996203 0.7816606124465505 -0.6594838471047739 0.22797817464932352
Ni 6.0080999172110054 7.910792563159578 7.919098405966292 -1.0395671992241902 1.1507722960458118 -0.4873621173034381
Ni 5.288531073152649 3.124556352234618 4.680423224824529 0.6245595244237632 -0.9088579709313701 0.9037098510715276
Ni 1.2973439772359179 7.433377795081932 6.979964785353509 -0.025210437827356585 0.2656186107099167 -0.5602261524530159
Ni 5.545129299205054 4.234683327435077 7.468707528774993 -0.3296704468845032 0.8312186258803362 -0.25160301315711514
Ni 1.4008634295196556 7.8157460383515245 11.364702014927193 -0.2875778885898273 0.4377408547318849 -1.075967078009463
Ni 4.871011137230702 0.42217274178574943 10.501216662964232 -1.280642059156472 -0.2524260232790427 -2.260443194065623
Ni 8.487106846772367 7.624137357311966 4.343405230231363 -0.167415325464602 -0.5350933619411301 1.1310707038518262
Ni 7.463014780627268 6.040704253434787 6.732051309963681 -0.07471137277096165 0.6306255281121849 1.035563477381436
Ni 2.3892012025669325 5.250046817430657 2.279670354324153 -0.4508951327256557 0.3441197895406138 1.6559027930762644
Ni 2.3838782319652903 5.4307630389028745 11.248548953001102 1.4003641923101688 0.15227307050652486 -0.3256384429069747
Ni 1.035112350049357 3.4545896598462127 3.648281877577529 -0.1240017343656574 0.8243236985327158 -0.11899991027569182
Ni 1.633275464965284 1.2712404215753776 2.3858668134353374 -0.3479646172080007 0.014786414280555181 -1.395234070172455
Ni 1.063087619214763 3.401697775291645 7.879222691033852 0.45715782580591585 0.2644184197542285 0.14553909421680097
Ni 3.735684507037907 2.744908941279415 7.111497854103728 0.07892901039673503 0.06864151242779791 -2.423889507580148
Ni 4.474938298981582 6.590732375191438 6.092866626237945 0.6112952032146891 1.1704666891509454 0.5328215351878177
Ni 0.5109129616288726 0.0650141968492512 0.3204382650639691 0.449288193249852 0.2980247949547642 -0.46559001573366915
P 0.23660376066554978 5.718952136793499 7.915918319069976 0.4358464659226494 -0.29156361271045267 -0.1561173839532795
P 8.732392619007559 1.6852908397809883 7.997647374033166 -1.2355503090241562 0.1864970246864014 -0.38390066898297753
P 1.7205338355311406 3.447705406272219 10.202229147697 0.26555818978562656 -0.49575856889724945 0.564107489785293
P 4.179572777604009 6.329733339825155 3.966819212145337 -0.2383551470082734 0.023099305021624734 -1.6820948780905995
P 6.935547654336581 3.9922188209218525 10.219868906191637 -0.18498907268230724 -0.5247935226770188 -0.1215293615657649
P 6.909818441377014 7.987331950043911 9.999577356978735 -1.5353897885901557 0.4369142450655314 0.4868869774392324
P 2.5396230561896678 8.632342684440157 5.594956138766531 0.475999126882135 0.36346219862296764 0.3571830504824752
P 6.820359666154219 4.009447715476396 1.4198590390165964 1.196890944780745 0.44259149795596686 0.4424254046917478
Ni 5.26187056859554 3.037444066625239 0.4201239002711551 0.16399935780451758 -1.4130726410157728 -0.7020430606232232
Ni 1.4188044882370257 1.0882324923484208 6.879874677423076 0.12612983645225376 -0.22620102814424267 -0.07043691376532385
Ni 6.883039242792766 1.0781161091123668 9.496923673576699 1.0811771614554928 -0.37861268111116086 -1.0351107061147335
Ni 2.8672094407802673 1.745231323485587 8.88892812805887 -0.2590594694351603 -0.6284866273923111 1.817037170628161
Ni 6.447724333109925 1.962003138278363 2.44493170043205 0.71703259205352 -0.043649618369150635 0.27482701668206216
Ni 4.346977007417233 6.898140775168608 10.364458317927017 -0.3966571973176975 0.11526049783791761 -0.7748248204716397
Ni 8.093179631321506 7.268977437186273 0.022734471351782193 0.3011844236296684 -0.7884493532336099 0.39850119250497174
Ni 7.946154252936869 4.046325036677138 8.04153129495895 -1.0588036788562991 -1.2686684317343635 -0.3338114656360703
Ni 3.3493171880847474 8.622481949877939 12.337043485240205 -0.41161638973069103 0.8963179294828304 0.47311846290023035
Ni 8.727663118541606 5.074982257712153 10.039747067886086 2.527146553199286 -0.4853368593432931 0.7544136038051394
Ni 8.677227287317812 2.60315175163774 5.5827288279093805 1.0261892352553874 0.766385431455035 0.7788030883930974
Ni 3.7896537681464952 2.834203370926174 11.338469721898758 -1.1270063039744656 -0.16223738080808833 0.7275792572211147
Ni 1.108291782934712 3.8332692579647536 12.328197128094525 -0.2217342506221407 -1.2023455401374132 1.0525980642662194
Ni 3.5686546199256566 8.618455483265032 7.770206792262656 -1.286696235770352 -0.828512796913399 1.0297682108558976
Ni 5.900480955836123 8.378867024332456 3.414467426549718 -0.23702511534294013 -0.5304576629413317 0.72599031546744
Ni 3.2556584703632283 8.713492877763306 3.3792417783881477 -0.18026312796154761 -0.7563714988624587 0.550811029786703
Ni 3.196685799495292 4.199184683011089 8.933093262525874 0.29916919297185246 -0.1549580735378557 1.1801546058626706
Ni 7.14886821203258 6.168756848096932 11.342532709750783 0.2537455134214146 1.309002612577036 1.1125520762223486
Ni 8.070271684083908 8.93694807931492 2.408036118611748 0.18578971420673165 0.7067885457280085 -0.4586650064790617
Ni 4.716489774516822 0.5147276050548866 1.5842794835937706 -0.2207117228948973 -0.0006605164021343462 -0.8138572517837532
Ni 5.976070790503353 5.6284068547069035 0.18067330901625367 0.038980237917939316 1.2417299554723067 1.0488288270317743
Ni 8.332704178085624 8.805572051892915 11.397494435532439 -0.7190629922199875 0.44739354733030046 1.1357809648433022
Ni 0.40445172353407316 5.304116511946822 5.690127748818569 0.23267326613214767 -1.1820294542878804 -0.3690165527822935
Ni 7.51943096475685 6.293029494510229 2.4819614978061155 -1.1593672368036743 -0.3374074105174447 -1.30390848588358
P 8.695588340285056 1.8184290169905015 3.2594146798066514 -1.2749025855695333 -0.6004736871191529 1.1073466207620088
P 1.773243113890112 3.3486506754708194 1.1317566790688809 0.544994680215242 0.5491441836072414 0.6049618047974936
P 5.011051828633769 1.1431604359838914 8.08994567559749 -0.8540358808851679 -0.40264298258748715 1.1172229993354568
P 8.84396500451711 1.8575341337775229 12.525396297812273 -0.1176660219556167 -0.9068823352622383 -0.4399458328030036
P 6.256453473532221 7.86006456202283 1.238791300617854 0.3283319305787377 -0.40792145737760716 0.31107417193955456
P 1.8814190241615638 3.322291471136444 5.805812425852955 -0.9648388571723642 -0.6504073387248025 0.5698436209381219
P 6.9519274300816 4.063252631008947 5.811959863427716 0.5232781144737568 -0.06201089448515773 0.6437001019079559
P 2.361061587825489 8.964503354230454 9.674265332554292 0.21893277661760357 -1.2505516675289947 0.8367722087087137
