# total energy = -340859.3113868747 ev
CRYSTAL
PRIMVEC
9.41707317537743 0.00000000000000 0.00000000000000
0.00000000000000 9.41707317537743 0.00000000000000
0.00000000000000 0.00000000000000 13.78283848450586
PRIMCOORD
 96 1
Ni 7.771778529127318 2.5489285729521893 4.080602316687837 -0.662881045711781 -0.7570173599765736 -0.4155820592466584
Ni 2.904121733337346 8.940691552594318 9.740896974176913 -2.1433243028627276 2.6333583105713747 -0.39555805071624783
Ni 0.6187553751078788 0.38713210525928277 13.368402472474708 1.111385566718073 -0.176788796259702 -2.3301373161276513
Ni 6.668879187570811 4.9463364409200965 1.970091228693153 1.2404963401755216 0.6996565626689176 -0.5902383825443899
Ni 1.7043960469300987 9.366757604571253 7.332869472957869 0.3460344900648234 -0.21256672519025974 -0.6050852177492353
Ni 9.242913677209643 4.189749959885464 0.931691303704597 -1.6879364244730415 0.22880632697757367 0.8553443152839463
Ni 5.785265808491867 2.4956656079185593 9.909130158659988 0.3382682158558432 0.8942060253461502 0.274006834773612
Ni 0.025696367165358086 5.139857291599213 4.807398828912818 -1.9215797678279418 0.19616848633789444 0.7981475543579803
Ni 8.393013419562877 8.23647341465587 4.697508178653459 0.8456026625161501 0.4300694542295561 0.8604178731521117
Ni 3.3911444990099455 4.753277026819239 1.073696998103664 1.4776752074875068 0.8532959173953497 0.45257997662724636
Ni 7.221614288817079 7.083531747040539 0.023054878181635825 -1.3695297234278154 0.24699765317461975 0.18262211511202742
Ni 4.058645469221003 1.493312355057961 11.943366721975325 1.997710903764566 -0.4795169102274064 -2.1097148423383985
Ni 0.4151676733642366 0.7567569300563978 4.815103878062485 -0.810561354641301 0.28421874230960725 1.4583585094367657
Ni 8.20352307613878 2.6102337183498077 10.198183448356108 -0.4687828116393539 -0.09988838625722153 -0.07058269531456876
Ni 2.969824651837988 4.463702031277494 5.451746983382772 -0.8010302752224141 0.7608531887828961 1.1429903381075477
Ni 9.32825119296897 1.6234280530547187 7.2607299850441285 0.7924667019231191 -1.8062570492935215 -0.49533973619227595
Ni 5.485623961885596 8.23742453903147 5.944124296777812 0.7737089616996417 0.568152606388944 -0.6496354935557843
Ni 5.5635125728815575 3.619122419890275 12.157180423317627 0.5195186474313247 -0.046074939981191616 -0.24469960116906242
Ni 3.822163931398424 2.79707786425367 7.098657449734495 -0.6070428556962384 1.16014653817186 0.8442476911501525
Ni 1.2782640754419838 1.4588176165646467 11.412190126006902 0.14057120868856435 0.5813480220332956 0.5538135640584527
Ni 8.077682729295711 2.580777113925268 13.026256666766724 -0.06140334280814587 -0.7306003034356255 -1.115216510428389
Ni 6.342021999920129 8.872992214612218 1.6574830142377308 -0.6437895762979687 -0.9505748910541822 -0.365704457689925
Ni 8.529306717464525 0.41966055890482085 11.070720466142166 -1.8269474877633374 0.2722607986167827 -0.002660320440982515
Ni 0.9177088336759666 8.567737792482601 11.409722852874156 -0.2133018035840714 -2.4533129550475876 -1.204281066597229
P 7.785254360627164 0.6259895706062583 2.6182843740795194 1.2511057402602517 0.4506503637047013 0.07782420736833048
P 1.0885853905573712 6.228753445566435 2.060865220710244 2.1377162126473315 -0.45010426139324416 0.4728436119722889
P 5.672468107789459 4.454642807026724 7.8005354450260445 0.23263007159903806 -0.5338808296902677 -0.02011091181726214
P 2.7699849451585936 9.05026861432192 12.183422980718479 1.5179026875489858 -0.5154023112701059 0.1702311976468423
P 9.251878730730155 7.498673994307606 13.445654489334126 1.0709531697346395 1.4718069216321878 0.6244782775638664
P 1.680853364365729 0.9782737971337612 3.1056179031619693 0.6045157183990105 0.842401381970033 -0.43692478658849265
P 7.5782859296672775 6.0230845706841025 5.696336621080519 0.2219060003133146 1.1524309146951572 -0.15531957064233248
P 3.6125587199913287 3.8056275511652102 3.571312881845856 -0.0539070344311007 0.3323690767625889 -0.8386180036682009
Ni 5.372345990458877 1.1592134382504797 7.247098771839358 0.292307947075645 -1.2647860659608219 0.24489191968552662
Ni 6.411708340310663 4.79805520905667 4.365218281574223 1.4114325343091885 -0.38249196156090903 0.5646085977914277
Ni 5.063023392782137 6.731738150017677 1.6197318518921129 -0.12169314083713881 0.14352283511772057 -0.6297451823897606
Ni 0.35925851081037175 1.7000830274843062 1.4187093608406844 0.02124785363518276 0.7329178958252087 1.0504427084861134
Ni 4.531712132669445 0.867827539565883 2.156146223877458 -1.1332553702079708 0.07327001233874478 0.00790202845589607
Ni 0.9277860435208194 5.964086608177792 6.91112868262166 0.7693170032795331 -0.37715126607428595 -1.4052307763738507
Ni 3.2032550580002255 6.604089725153666 13.343537632857522 1.2692502723797623 0.5066993841794692 -0.840611894169778
Ni 7.468934877692295 5.001285062025334 12.805924467476 -0.17755729899461034 -0.5242227377752132 0.09017141607977375
Ni 7.002262406828335 5.049425139332957 10.387739711291385 0.03287463924083371 0.43883743023017324 -0.39418868117254696
Ni 5.082780411990156 2.669184595490989 0.5828320666365586 -0.061213595394842966 0.09484465318572698 -0.6103636925393553
Ni 2.92351148669736 1.1920696060373142 13.74244107939899 -1.6566075324527725 0.9417773473672102 2.276970759407001
Ni 8.222055875853451 8.744985940973226 6.976142271376818 0.18289413782649147 -0.2115711940462098 0.24717300241021947
Ni 8.701460229448221 7.208439803654057 1.8736669928606131 -0.4218416670031251 0.8330248258511396 -0.018114964433155897
Ni 5.199693373604815 0.12891972972248772 10.132136806690026 0.5348835599231692 -0.24174926029148688 -0.15216045618806054
Ni 8.380752390483353 7.541804188765531 9.396932731667656 -0.9160010097340547 0.27612722355072444 1.211856564951642
Ni 4.578788080725158 6.018903390260671 3.9751499329455124 -1.3277572674767197 0.30914867278206754 -0.675667655953488
Ni 1.8747226467467994 6.218724262794013 4.353240706392775 0.041321741566922386 -0.8574567336412587 -1.4219331767301961
Ni 3.055557684664396 7.962154077415836 4.94280127170623 2.259118047496296 1.4035821850268342 0.6539184372018544
Ni 9.414144316036817 6.182412029206729 11.804877362644072 -0.22605293260215265 0.11700627688443074 -1.4249627075851394
Ni 6.157758132025321 0.2890109128675033 4.114274002998701 2.52320273806019 3.1130958214500195 1.328007435814313
Ni 1.881154507623385 3.6034900786675337 2.177412799891504 -0.6630178283999614 -0.5046838964113373 0.5835496576703048
Ni 4.429640478143365 6.194296375365224 6.335474309045327 -0.34697397115995726 -1.2197902179764217 1.2288191609479096
Ni 2.5859565040894297 4.387141227578164 8.66772356533348 -0.43444752869259373 -0.3341426237232439 -1.3792970872272243
Ni 6.204108965458053 2.9907682222472514 6.044367155722292 -0.48799126624700473 0.8435257253824634 -0.6679744010742884
P 1.0525180008687571 7.865252395980891 5.777669055681995 -1.3731182121100225 0.09211414162844135 -0.07782575003022726
P 3.101475332737943 6.4971211926541965 8.551547960536736 0.40698531871658294 0.18825488791777256 0.03531590169247466
P 1.1196523144693133 3.333248334047648 6.926689454089406 1.6937229492478314 0.7428472391237787 -0.7811921574505643
P 0.8989434322575589 2.933201654840855 13.303663862251902 0.7891672052362408 -0.7326849538787963 -0.38308074418484345
P 6.165348292884075 8.741558126391855 8.114108909466605 -1.4171568383874755 -2.8223441631179007 -0.6240044232512414
P 0.44171722734572744 9.03629367795171 9.135348102280341 0.39071974878733995 1.0902395287680773 0.37482981702996093
P 7.342529506467681 7.151909114280493 11.455247809002529 -0.6004533754041788 -0.9102476521900452 -0.3744166407519423
P 6.306566719978189 1.1713614624536945 12.141316422098452 0.5494362609263634 0.9243200711227114 -0.5177551277729987
Ni 5.47881541808798 3.1337947273623095 2.8180939461252317 -0.26671775731136643 -0.7906332482588061 0.9537543172234283
Ni 0.9368330255766553 6.080340374680649 9.150550083265806 0.0357856422400416 0.45248664558249163 2.0738494959003573
Ni 1.583424326841342 8.986580949448788 1.3473590236465007 0.2236872605834535 0.16147170628665738 0.2576157950100983
Ni 2.874269611845725 2.204809890445312 5.039804657529854 -0.6442384909099291 -0.8858607387052486 -1.6617595089673574
Ni 1.0359062840513378 8.30340055264986 3.525457386454279 -0.5981877192984536 -0.7043292855542386 0.014976933024806462
Ni 3.581039776574151 7.161881794614761 10.674036623712867 -0.03492792222543662 -1.8262165231345837 1.4301830754438143
Ni 2.9557743788835724 7.674321240383854 2.429225332600001 1.8534522189220852 -1.6333035676195096 0.031619426677493935
Ni 4.34520700139451 4.935280797187868 10.370565795214329 0.41769987692060967 -0.2728423821518656 -0.43291617964973184
Ni 7.4161804346020554 0.6283617313014441 8.846679970870976 2.058234929291552 1.732781862922506 1.5369969851762757
Ni 8.088879629123324 0.1667292779208652 0.326609518630104 -2.234717507164745 -0.25288625074491283 0.04742348358928607
Ni 5.742540548174049 6.603675373940533 8.416669107003555 -0.19310218870774484 -0.2652794822029431 0.5607519430494988
Ni 0.7925135563351622 3.0924537767792764 4.324365135373925 0.13691818531700936 -0.437717200582801 -0.10489972342888385
Ni 7.623629136286254 2.8092729738220137 7.918653791988 -1.9288189658888584 2.1118866531787375 0.6034829062591219
Ni 4.076575576262027 8.62098192337018 0.17474414877307917 -0.9808493736680075 0.5061846493265798 1.9393018676980538
Ni 1.4182771171888024 5.2876770868843765 13.466494471940107 -0.49476535174604463 -0.8212453167177083 1.1834011378244265
Ni 6.911368817983817 7.205906611010132 3.56484806121368 -2.1197809683251494 -1.6524500586409732 -0.6006714049522558
Ni 1.7734891117200104 1.7637706923574386 9.141109467557493 -1.3943113012478698 -0.7550180701583578 -2.1149786618404995
Ni 2.7691656598053536 3.0913237280161865 10.593985852750198 1.3592208853026397 1.15648323038766 0.7408147820747822
Ni 5.695803614747262 8.545645339164198 12.614246537988022 1.8732957360105738 0.15812233019845026 -1.8279131941107165
Ni 7.437397100129065 2.425508413876738 1.511632328922251 -0.41554734935398113 0.5614636244045427 0.1949325570482643
Ni 8.121227274966769 5.766139733176573 7.853309663969638 -1.2267393956007453 -0.012373948184320626 -0.5399357776350959
Ni 3.2260255405764835 3.482546609797854 12.832070970731989 -1.2073324518290434 0.8432598733155864 0.7334372586637885
Ni 3.9454805026705912 8.298579011260678 7.738939312071931 0.28286814181898384 0.25820612029592954 -0.33719169496221285
Ni 0.4283525173075861 3.706089089283056 11.178239897413643 1.0711832834675745 1.5402342611666506 0.567702406225403
P 7.583540656415646 1.2117324545150756 5.800176801920835 0.3610026813388815 -0.23322193954676607 0.9620474104701561
P 3.6546436193433958 0.47611685340148163 5.843620584910518 1.038473194829063 -1.0253019475544278 1.9108742084849801
P 4.986763935419631 8.35314153237186 3.3620335011654516 -2.8989039019515106 -3.255143100463478 -1.1392193011008898
P 3.9061265544959913 1.8170336573910684 9.105976251513033 0.11650491176798 -0.6284660585670209 0.16958893607715309
P 8.530926454024954 4.298470067967723 3.052320094958144 -0.22776477308693674 -0.6035047606359929 -0.5235794477642596
P 5.428622418860745 5.066922061014797 0.1739559397608241 0.03420492801648303 -0.6979058985263981 -0.7820779024896272
P 2.233014024157427 5.34009251534569 11.516925870491967 1.0847371108926094 0.2767993099170846 -1.0056641187188422
P 9.297382027590569 4.143719306935609 8.692105309104443 -0.23145713433685944 -0.3347257499202235 0.9156230575693458
