# total energy = -381176.9685495052 ev
CRYSTAL
PRIMVEC
9.09479953432476 0.00000000000000 0.00000000000000

0.00000000000000 9.09479953432476 0.00000000000000

0.00000000000000 0.00000000000000 13.31115843491135

PRIMCOORD
 96 1
Ni 6.315628749549213 2.7461109981036578 3.7660991108104396 1.5090843179264077 -0.7406849413651372 0.9408481506847216
Ni 3.6703154125669686 7.431406017379072 0.8810868802568231 -0.7820146533518597 0.9837241241126413 0.627420390911326
Ni 3.872665603155286 1.9820932844732841 3.737999818759486 0.4456243712450196 1.2850486728645998 0.26690647628340486
Ni 6.740928851238345 3.764291974180933 1.4887067864606633 -0.9036735985169534 -1.564402373772422 0.11575723496867807
Ni 0.8300841550197238 6.831294777513032 0.5532411914505206 0.8295934315720873 -0.49109175954919937 0.2975504264215069
Ni 5.308561618269409 2.3821644127841965 6.679179711097243 -0.42712631244083216 -0.018358447902529672 -3.6122065946489537
Ni 2.2096451640417905 5.462227347973226 2.1671096969932715 0.5614715948243427 0.30732447508913524 0.029706783035813353
Ni 0.05791750117778426 1.4440267657270023 9.387801036828025 1.052525302046755 0.34248379659908756 -0.23679114495526316
Ni 1.052650265588252 2.2046066452056214 0.35184686427318057 -0.07322733202626744 -0.7173997455849516 2.3806402099732096
Ni 8.360403391096284 7.175351036668771 2.158231353874376 -1.1949716162708452 -0.9134085664165301 0.4933800413627438
Ni 4.274728492522374 4.2560386798719625 8.981410841933412 -1.305065996526791 -0.023570845341404568 0.6687179641085321
Ni 6.0581822645393935 4.379273210973213 12.08223174714351 1.3917700228832546 -0.16682320040655788 -1.4860482620425504
Ni 2.6673591305903206 5.682139596093388 13.034392665308085 0.1305225662033107 0.19638908698913274 -0.691499480779422
Ni 5.609954173705889 7.338011522923077 10.573864732942509 0.671510953472637 -0.6989975889286801 -1.9050236632414739
Ni 7.646761771028259 3.55329262941717 6.001096028021584 -0.3735897739752727 0.35409335581355794 -1.1790989109046468
Ni 2.6054326418620244 3.3767171001676677 12.68844923528862 1.509864904846174 0.08017368143711352 -1.0428713238967589
Ni 8.31374707046533 0.42157487187812964 7.614208755738908 -1.6229697897936692 -2.2139720470872772 -0.3202280705246807
Ni 1.585996583475379 4.830557154386053 10.909119954773772 -0.045081722829986876 0.11354325803649477 0.17928302343646543
Ni 5.127620585335139 9.031053894668693 7.354268476749165 0.39916145179678997 -0.6670431475092705 0.042150408115804824
Ni 1.5633323435119608 3.4182803331663916 3.1625182049949436 -0.765697918469707 -0.5086259117782207 -0.182449336979589
Ni 0.9592921503296301 4.530901705624137 6.1041110012228845 -0.39203126850991193 0.08487211535404737 0.6610061972865713
Ni 2.769439158419134 3.0301324867945008 7.20642159966517 -0.44576912435300003 1.3592417112382462 -0.1200617758813029
Ni 4.618129926125398 4.087821271218921 0.4225107267305516 -0.969303834922253 -0.1322770870005722 1.5437731275578446
Ni 4.490984631306544 7.194768433266643 5.875571426445699 1.4646844516547937 0.4201647935213344 -0.7542606231670429
P 6.404603171524381 -0.10182719240707078 11.675323148686331 0.7985846418953989 0.9336603746870308 0.4946892470924706
Ni 7.4368901813830615 6.317593226207359 5.716623437283315 -1.2468292243720849 -0.611938750335959 -0.6322358100220983
P 3.5728191636071616 1.089529676925194 6.348543737852426 -0.786158500316904 0.14212312655671652 -0.16467144417087767
Ni 5.881379365306309 7.195050372046285 3.885008155344032 0.4046718400920579 0.4631839773953378 -0.08761959619219749
P 2.57517424444698 2.6306979944376163 9.69964169775005 -1.3267887329158634 0.8572603013597366 -0.6407068236075869
P 2.3155995763908357 8.354837373898206 12.820854962047616 -1.7208262332225266 0.5117811695777509 0.06322985449392336
P 8.282815657898885 5.363785239881717 7.337523132198344 0.701473047052366 -1.0196447492686505 2.3106139013827436
Ni 7.206200596041128 5.246953447518128 3.4277962217192504 -0.7447100033641303 -0.46344263037336314 -0.08239897122320648
Ni 0.3164680948278772 5.653672874148967 4.078179874435126 1.2963995791010448 1.32105157332177 -0.5111504779722875
Ni 4.814341127157011 4.127429122358843 2.9793562220610483 -1.7728213953428953 0.3761966154705005 -0.29380072957108755
Ni 4.279921622947378 2.0991979208171725 11.021546226335484 -0.5817755964890174 0.14786311436428728 0.017192966839518778
Ni 6.318020681776492 0.3398426386200043 9.500626570080907 -0.8397531457139087 0.5716809312571768 -0.5361467429063089
Ni 2.964313423947287 4.286424404477813 4.789594178143985 1.0202687560058945 0.47966860531392236 -0.35660840892592777
Ni 2.3946970462792163 0.847479777723588 2.4934592913076066 -0.20175369373515575 -0.06755830666594816 -1.5299627040373134
Ni 7.401493222339071 5.59374724127619 0.5407294759939901 -0.7233927299435929 1.8298026978239452 -0.6480360102791485
Ni 5.230600998298936 6.017683123063831 1.8508635152693698 1.0929690118840985 0.6185038051479863 -0.37967891759214606
Ni 4.6009589449653125 6.547537038003145 8.160019496125981 0.6352720257452609 0.0787415769762773 0.5784200497532231
Ni 0.15717359381051385 2.433086194307141 7.159433318858188 0.7222645298764206 -1.3354142698013451 -1.4451129572807693
Ni 0.20488673012515404 6.210956703907569 9.576087029711916 -1.319995878363746 -0.17519214119654347 -1.7465071829283987
Ni 3.2979834222530164 6.375518003224618 10.34438020851356 0.3200990011459842 1.0023556231708994 0.15965342213099604
Ni 2.129001578265054 0.7477907726421189 10.752100972552093 0.9684085768014935 -0.6108259768877545 -0.05885229425151799
Ni 5.486046627453239 0.5626270243727708 4.596675294474634 0.3063184024221241 -0.8031640337359651 1.0238832128300301
Ni 3.6522986150679597 8.477780871420471 9.199461384628009 0.06251097405002783 0.18730537952030968 0.8980246277612922
Ni 1.9204305449259431 2.277164954366195 5.092396427478671 -0.7195890399267866 -1.5102485134378376 1.036177456816351
Ni 0.576343800742284 3.9145744385290544 8.663780431749466 0.6720416291651264 1.2538717330411633 1.0451225818247807
Ni 4.304486675973539 1.7726491503972197 8.572345866551943 0.5907590309345503 -0.3007385943415014 2.0969922525654074
Ni 6.506383070974867 5.2768389581600985 9.767914537460076 -1.6965647895720009 0.47242169394352185 -1.492657796939268
Ni 0.708784087738787 0.32416229507228 5.863405313364213 1.0957704858886355 -0.4488958429074398 0.45828139788739786
Ni 3.5508825075912047 1.0877925702506304 0.14002898756852378 -0.8904568427163632 0.5744464098174559 0.32679852465334686
Ni 0.391743020552284 0.7652964424180366 3.5841358224299866 0.33715672795921936 -0.3983970628269397 0.8868009911313308
Ni 5.287216124210764 6.585771574442233 12.731257546317435 0.49998109161902926 -0.5410133269699908 0.5674123857888099
Ni 7.062757420799143 7.169548554687768 8.419720581892998 0.23437327954238987 0.20424740669128696 -1.2336438360300626
P 3.707067496713105 5.131249410273102 6.691333091459649 -0.16427986515941387 0.015193162800670608 0.7609087246111799
Ni 5.235548569141672 1.9381290244479379 1.6496119764417192 -0.11043967941050659 0.40413499375198136 0.3789191566079861
P 2.888453702625108 3.0555069769622114 1.6303637431116316 1.6910166060602616 -0.5233138528076987 -1.4580715743239663
Ni 4.635892069242796 8.91560451180528 2.4065375655442143 0.6852331881547361 0.03787157823479284 0.3552863476803946
P 6.2078099033348 8.055427484718559 1.1288856021233076 -0.30061980937545 -1.2883692525974006 0.4228765360255427
P 4.014589946906947 4.812131090916598 11.520727930489631 -0.19010659641453065 -0.467389273725937 0.6572153627855714
P 1.4105215249464118 8.042940325220254 9.605597834620944 0.6391585052838605 0.24466720526923025 -1.3964265478186597
Ni 2.192819785256749 6.004577517210185 8.232498680532268 -0.036436902670795315 -0.4389664996088698 -0.5654161812943875
Ni 8.22429062412497 8.401621021719965 10.257365715796865 -0.006671498482904639 0.16809898179518792 -0.01775629554215652
Ni 4.1618165586757305 8.580106458831553 11.842218173514862 0.11032500820951321 0.5828107226217512 -0.8185865389386224
Ni 8.08136585244555 3.945660462684336 10.453851579768644 0.9170268798954078 0.48381090961707 -0.09219718826055089
Ni 2.4074115757611017 6.5025723500500385 5.38011677106242 -1.8832865286746985 -0.7021919274962616 -0.4043350255779295
Ni 6.880261177177174 2.2989833779906887 8.195853005538448 1.5958526218619031 0.032105622285293095 1.289026169455109
Ni 2.6074789717142597 8.072343811497031 6.97545917034294 0.294119546363087 1.0393977635258616 0.7254470413694604
Ni 0.7793842866007551 2.729049154535691 11.321739177738586 1.9925689545523102 -0.6541511220379508 -1.249198753045526
Ni 7.766703984767246 1.7807526166120693 11.006929974310921 -2.928087465494002 -1.7775702228817902 0.5709288835825006
Ni 7.660840520411634 1.2009955376762578 0.20946050471488234 0.13591596930474012 -1.6865691118118697 1.339202533199184
Ni 8.479527072894378 2.245205829473959 2.210863867153788 0.05867617368496992 0.9357298556215496 0.188931602269823
Ni 8.167220758245978 7.9580858473475855 4.258452439617666 0.7012534748423923 0.9727336865394085 1.4153930616188335
Ni 3.5818593941543675 6.9816500002559 3.442252405275371 -0.6748996674392118 -0.08063956532993853 -0.39813969540049493
Ni 7.762038352704151 1.195729648856507 5.248163965310717 -0.7455939486309805 0.13190196304934057 0.029728637412684285
Ni 0.7206855421593844 7.328944007977841 11.54138676719786 2.2261459634456497 -0.3590031344103495 1.0017971795642682
Ni 2.068130086260577 0.9179744769131742 8.216684643434197 -0.9794933738607454 -0.07220146186491436 -0.14695808605151464
Ni 0.3130248037965168 7.266053470519159 6.867146476524185 -0.0370357125970588 -0.426096328514421 0.3132462398902089
Ni 8.274866803272872 3.180205770757727 12.74934710221119 -1.3577586989348165 1.622819380258734 1.9201065257165253
Ni 5.894575919153387 2.071649773606421 12.644215769202713 -1.348429965334723 0.056188374266109675 -0.2310133619312215
Ni 5.249927446903375 4.96848888122602 5.1930958647671766 0.8725154277465941 -0.18540302029127426 -0.8081332048157824
Ni 0.3855867508768275 0.02111357667539119 1.3210623501662477 0.7484427309336852 0.33638436856956905 0.0004643412309282326
Ni 7.215249921387677 0.3446665201916724 2.461952177942732 -0.9541919189814791 -0.4602462349232525 0.8297006465739131
Ni 2.9025779260052 9.031808763014183 4.668981677693399 -0.25836038648560666 -0.6354926263964991 -0.15828739502140482
Ni 6.0036225632791425 4.389541239431759 7.381476478464479 0.4964517383095321 2.2579479384475953 0.8368251734338361
Ni 0.41012451950495815 0.5364367307039687 12.228401543228607 -0.1529793525449301 -0.8600743737697639 0.02796948862973248
P 1.3753792202840331 7.73304413239782 2.9057592868154742 0.0503069757846682 -0.21062579941380496 0.25708511931760886
Ni 7.762001973506778 6.210674765127928 11.520780680325823 -1.263694632668856 0.16216024771324974 -0.9230764285235973
P 0.030735874380566238 5.085802697954803 12.620136378461483 2.1469508438717217 0.4032852441571764 -0.08465177181312518
Ni 7.977548717942174 7.897532673320123 13.123057864105583 -1.7108899479454212 0.930399958768204 -0.4145690446011118
P 5.916839987945702 3.129856961593408 9.99458967837189 1.0331535823883626 -0.5044704948489506 0.032095852093280204
P 8.74165737956598 3.6257872749823403 4.1059462968301155 -1.366737505394659 -0.9527194482010107 -0.051491740121388734
P 6.741938373965446 8.333018950273711 6.162626940197455 0.9524427975008565 0.32760276572219704 -0.7928140579602089
Ni 8.929655976790624 4.513321458493604 1.8209661813882527 1.269239216636169 0.7301542170371426 -0.18213566239391216
