# total energy = -340875.61240937334 ev
CRYSTAL
PRIMVEC
9.17679899756887 0.00000000000000 0.00000000000000

0.00000000000000 9.17679899756887 0.00000000000000

0.00000000000000 0.00000000000000 13.43117293799988

PRIMCOORD
 96 1
Ni 7.403052273613969 8.58914437479522 2.5634066703705676 1.2928730540050248 0.7479614204218925 1.4242841934608763
Ni 7.167667377829095 1.6941564041143398 11.755029927506014 0.48928735935060885 -0.7490906489303293 -0.339785423831318
Ni 8.086237432931568 4.500605091402058 0.14405739158015365 0.373886222169769 0.263899571136281 1.6981694150549593
Ni 1.03332592729701 5.394306021062933 4.79002665074793 -0.25993570139252653 1.3906343666169148 0.2720679658796863
Ni 2.3396249193120253 0.9872308656390208 3.525159071110675 -0.022625450708999743 1.1645963464130975 -0.5832992322223954
Ni 5.528342348073999 1.0733184175827986 2.3387026510069036 0.9848734072257362 1.2337433377224043 0.7248261199560098
Ni 5.802673579052284 2.507982474792309 9.772051209024152 -0.06387365872550935 -0.21709495207791646 0.429223304179177
Ni 3.866286387057339 6.551867453979265 7.621706947039956 -0.9095130880168658 1.004282150769651 0.9843059647580402
Ni 1.5429869932658324 6.8733215481098044 11.401132177993102 0.7506790764633717 1.9785284172988442 -1.4862968877182465
Ni 5.342741587167603 0.6320345990596943 6.702934084678346 -1.2628320275582445 0.5194605404998797 1.938112475375643
Ni 0.1898404420702407 1.3103184300015174 13.286304572136748 0.0026888596860727885 -0.19352744917062153 0.19238279404321706
Ni 7.800802275095596 1.915207139773834 3.6260543060111186 -0.558992794266547 0.39213822640142143 -0.7546601725983068
Ni 8.607800807275947 7.521625694215775 5.668425267983026 -0.7867447118376774 -1.8601910803078157 0.03385114422149009
Ni 0.45444151300951174 2.3457917282776175 10.958910490606481 -0.773409685291668 -0.2271217401862992 0.1940144161093691
Ni 5.946006003507019 2.376368822732011 0.0720479670680943 -0.4513931554079968 0.027548341931913845 1.851654246481398
Ni 6.752426397346844 3.975829837388101 11.890039912896915 -1.1692811534832765 -0.35101008890254387 -1.8127048618013941
Ni 0.9082323909659573 8.719097026226391 2.0504162617042496 -0.21271584917361433 -0.0951873812371264 0.5429920479629164
Ni 2.359226562095514 2.4344579607561143 12.6804917586995 0.06811880715510849 -0.8785981436055642 0.42919450782377055
Ni 4.314664788930592 0.40151524213428064 0.5330151018862853 -0.7191599228091679 0.897604509504738 -0.9659511163999365
Ni 8.729292449977542 6.8072485949070325 1.4310245387039249 -1.8726041092601877 -0.654589238016634 -0.7134631295347067
Ni 3.94884087136458 2.8387418431655718 1.4399563172250716 -0.3804253088398674 -0.5823101288362488 0.16372013600120192
Ni 1.354789198226605 5.968773641964807 0.0096980412423179 -0.5480213828567078 -0.08805899772246124 1.523211501356409
Ni 2.7489652180013064 2.6652269266158495 10.220235980437325 0.4562913640405626 1.2795053744488674 0.7069019313774213
Ni 4.856710778767828 5.852944084280725 3.4771295402116937 -0.15832467601724345 0.7844857406001715 -0.4879442150591532
P -0.013488059252421318 7.262491242474128 3.552035162505808 1.3063399781432081 0.797085174531737 -0.2001171865729973
P 5.443401896012214 8.56208199437925 12.420544242561496 0.24473559661332042 -0.9777301113127355 -0.7448048770707818
P 2.1699734351648536 1.2604425271324808 1.3366613493715 0.9477135103459872 0.4859271846291244 -1.2177798724146123
P 5.432206201163967 8.323861467686092 3.300603715891717 -1.1364124277797139 -1.1373678497144477 0.3878228868555192
P 3.1981970621867606 4.840596319625596 9.869722634416245 -0.44185076313520033 1.076576686569004 -0.7138187131019126
P 4.887994486749529 8.379830765128274 8.370508054967342 -0.04878591115445147 -0.47909653486053616 -0.05487788298480227
P 3.3172384995404207 6.2181348027118775 5.062383952249283 -1.3677883152566768 -0.7535985641030117 0.37557569405704994
P 6.907495947794126 5.470436746031015 10.316389563265565 -0.678296866046219 0.8418884468893566 -0.5151048346343451
Ni 5.771004445510234 7.62837939763353 1.073222061192711 -0.24765945512833473 -0.9746753836468117 0.8841802656790321
Ni 8.631834844003453 2.318215447114516 7.539777402748426 -3.074571440122576 -1.8088124687255234 1.4464836123760507
Ni 6.390208961809817 6.1757196374753205 12.747834780891614 1.961223350361493 2.3732467457226156 -0.9861129360597922
Ni 8.742819051785998 0.07722368173564473 11.138162741925978 -0.024275327607596903 -0.7410235556514786 1.456108022839692
Ni 6.198285386353878 6.497412328381315 7.913163920416437 1.8121353624511694 0.6205545170294281 0.09554219347338384
Ni 5.2477158329433395 4.591207628481358 8.817994471972357 -1.626511998618973 0.5736377978732314 1.4318455507479018
Ni 3.8653687071517453 0.687710238932085 11.475835910707985 -0.22556776543561796 1.3242438550068225 0.9996665063745105
Ni 1.5466760664863204 5.985089990686269 2.3827035671203265 0.305748388851267 0.5896030629532362 0.38516153797327213
Ni 0.26267486081742913 0.22652286093655158 6.99054964997001 1.3246737434553897 -0.79150099557574 -0.949262857110978
Ni 1.2018945491555806 1.0822657966623404 9.073133345405047 -1.3013949754331071 -0.06059884462897951 0.5161533305035175
Ni 2.6553802212288256 9.079194621181497 7.76955710966993 0.08771832655359087 -2.1933492286306033 -1.5034626008642558
Ni 6.003911605550003 9.164144250042337 10.1359287275104 -0.2776043223168832 -0.38709500755055914 0.49591797729324916
Ni 4.862088383014608 5.099170986624832 6.118516978240022 0.8710288158987386 -0.866362777881637 -0.9956409301548853
Ni 2.81223007069296 4.79940166866348 12.14363433104849 -0.4171812854129783 -1.492171858441785 -0.7110892299858914
Ni 1.5307359665261517 6.918012559512234 6.614208203005986 0.6319308771871698 1.0857611812817494 -0.3856647028619358
Ni 7.9826497251881126 3.7608357891055277 9.336961729863809 -0.5758551172395243 -0.023748508569849426 0.6846084100865436
Ni 8.7253647799816 4.460713545905884 2.5348787551453653 0.2869729080159767 -0.03211487825667372 0.34012403811765934
Ni 6.7634385562139725 8.714701339478596 5.078742514246402 1.4626769343064616 2.0179601409319052 -1.0886942957681445
Ni 5.995973674366614 2.301770623206271 5.1783750215967475 -1.3119717225076888 1.186533512805821 0.18820140897201781
Ni 0.9895801261973416 4.470945676853257 10.041507724343923 1.5730428230562392 0.7114507270903683 0.008762576683978457
Ni 8.82050983259359 5.254781968216414 7.298674443471795 -0.5084217661872147 0.9856843331628056 -0.9880111815237693
Ni 4.929528679276715 4.7775425333122294 0.11364915022838928 -0.9531341671409264 -1.3493686750989082 1.0521879733119943
Ni 1.7509332598734435 3.786062809710308 1.2377859279432695 -0.3291873366004976 1.0097557722897126 -1.0408486370397751
Ni 7.314459455527919 6.157962531302076 3.660571917980133 -0.11626425651208365 1.045708793345554 -0.12001652446566426
P 0.7765673488309456 3.688862154109786 8.049208131060944 2.792309564429023 1.0737543866288604 0.8205148663095869
P 8.833026986505894 7.339080807395007 7.926876811245729 1.1609548930057683 0.41349226659716526 0.9161033396398739
P 1.596524438958189 0.2272744407792331 11.005100073294747 3.035715900707959 -0.0334366823918908 0.4489220681596849
P 3.564498173303681 5.744345844252726 1.485528301336872 -0.8777342529433722 -1.0989421987483976 0.1385858028274194
P 4.468064161949693 3.0198000885392777 12.15346543587712 -0.5797796491049112 -0.11752229728890083 -1.0247316768732544
P 7.630737834990907 1.6173007120208382 1.18958937930147 0.42197999235320227 0.13906531356699922 1.3392860940519258
P 6.823620004422831 5.96202869465869 5.798626610668614 0.2548731992679546 -0.13220021101604976 0.5568322962801184
P 4.555702592933924 2.865905168371156 3.5725581559145136 -0.1233766991871488 -1.0219705691883494 -0.4040586319880912
Ni 8.786197780923429 5.707289929664839 11.462176245313218 -1.7847929658824746 0.32461000164246034 0.4737386129827325
Ni 2.575872434208157 2.4282636213933544 7.696760315798871 1.3878568038717776 0.09698638211907813 0.6463354826482739
Ni 6.366367637862484 3.9032780640518356 3.2274572859766266 -0.29873390520664683 0.04637550194074593 -0.981141965207762
Ni 6.643048129399089 3.9785186395114915 7.1660412490363825 1.759009172050151 -0.462152707917346 -0.8624816976596759
Ni 0.14635342670394996 0.29880575406047793 4.431360636445553 0.015195219683199639 -0.20581012319271652 0.23170447446097514
Ni 4.922223947228186 7.610750766647069 5.510501733029345 -0.5449219179957776 -1.7467748347674885 0.6487399783247085
Ni 3.6355816587909957 7.79873749530801 1.8949374260190726 -1.427993266881347 0.4640301274457169 1.7424942051142633
Ni 3.6260102573756496 7.772409258816516 10.620753704514225 0.07591619171234022 -0.3193094153651533 -1.412873123410457
Ni 1.7616150539745583 6.724703287398848 8.856905017649451 -0.33155866504615156 -0.5065790565515211 1.3412331904759673
Ni 4.70680776618904 5.634976753104028 11.145455544135734 1.5643139278236737 -0.15853036427014633 -1.1312571088310195
Ni 1.1123381671686574 2.686315210846401 5.978725880540975 -0.5798902065408466 0.04942303051781811 -2.24829190341507
Ni 7.901334108753424 7.582467871956661 9.971732850401985 -0.3816630379017104 -2.0718283517052707 -1.3595921525991295
Ni 7.84991650364299 4.163155836517014 5.009196142600957 1.2778277296361285 -0.7302190088368069 0.7004759732464194
Ni 2.079407605281777 7.820569100262093 4.2653514238436845 -0.041443868967083464 0.06784806999222509 0.15734251460963225
Ni 3.9078022259864142 1.0735845447554206 9.160221168445922 1.883267502511305 -0.32186380635589085 -0.4711754802412466
Ni 4.296210246029095 0.47834799223014224 4.698304544183806 0.04052521380755601 0.344262228655749 -1.363194525238407
Ni 2.6727610786407765 4.754013220532798 6.663352714990263 -1.7934480704543112 -0.8423520167893364 0.35419208617495135
Ni 7.4768979756171206 8.827218072703483 0.26505715785235123 0.7760826041381408 0.6825450997996115 -2.3753450230125415
Ni 2.917231005491031 4.289309293139028 3.336329912296399 0.6995555183146791 0.47769348386542243 0.37772950717525916
Ni 3.497415772204756 2.6646120810791016 5.4482610111123355 0.20645649852746378 0.39104833577135234 0.3031495177758392
Ni 0.4545635644369557 2.1713958390185244 2.207789188714573 -0.8830119564025437 -0.5358042719652256 0.8264430588685638
Ni 2.054116347083605 8.744755356386802 13.39508359510615 0.03268180650373726 -0.5143800406531787 -1.5702747733927989
Ni 7.182763212276117 8.724621459258069 7.573985756589255 0.1018542517343407 0.2698272494746256 0.9008101609262293
Ni 3.7433998708992404 6.9247575068183504 12.918357143269192 0.34276610372619676 0.6583394490876855 0.6801061513408158
P 7.784651108757141 1.50939990872109 5.795551465304969 1.2790623733741777 -1.5880948322933552 -0.3105134143400781
P 9.242688473162133 7.731361436639294 12.903569649270452 0.20816396813687377 0.10673009176940329 -0.09232728608051195
P 2.352463261191286 0.5964873502366033 5.741114693305129 -0.7499622529020051 0.12719915825703257 0.13592985326181106
P 0.5079294039869664 3.9118308407719717 12.394810662648828 1.9589065293028582 -0.12851453463434642 0.0015377768007650934
P 6.756675255309744 5.481852684056605 1.5871209729655669 -0.7340347830384714 -0.05606907507942602 0.033608432083064695
P 1.0026111808567773 3.5287912481770163 3.9491143399764472 -1.0293797171682273 -1.9544083843221889 -0.8312991014092845
P 4.944771342508632 2.741779784340505 7.5844757555901 -1.4609514669749226 -0.8942579616300084 -0.36328762071831633
P 7.754018953508412 1.2479437268182898 9.648699429153917 -0.07464915207445853 1.2631804120365986 -1.471811292507562
