# total energy = -381169.5499861138 ev
CRYSTAL
PRIMVEC
9.29125090682574 0.00000000000000 0.00000000000000

0.00000000000000 9.29125090682574 0.00000000000000

0.00000000000000 0.00000000000000 13.59868487617185

PRIMCOORD
 96 1
Ni 3.220496287844303 3.937650794484361 1.1759434777174136 -0.5417707739613057 -0.7813988741447316 -0.03594916440109938
Ni 0.6501413581527492 5.6465906074855 11.342092218959476 0.46838377642872236 0.6464128728534286 1.4405726462082546
Ni 8.234724346137948 6.1793974012469866 8.676912638892633 -1.2853638901121733 2.9529356348859337 1.5582823769176133
Ni 6.298836434010155 1.2042669275404587 10.673281949991399 -0.0989033966361329 1.0809254504560029 0.3673229671299545
Ni 8.039989014540653 4.884457154318293 12.501869848905233 0.07666078318784861 -1.301610690988339 0.6385136726110099
Ni 2.881021846765509 7.416155833849507 6.118714382127359 -0.010340205583743482 -1.42364835964909 -0.7721344181236702
Ni 2.7641843643075665 8.165876175560348 8.535935556977515 -0.20813799999494478 0.34159496623623103 0.516628213257407
Ni 6.070680472241786 4.938049090605959 8.41796732926191 -0.4536433848947542 -0.0963610898302534 0.5757692423939375
Ni 9.039959913112106 0.5674789554543938 -0.03839795338003482 0.7321915591821454 1.3944431988400436 1.0323701672551187
Ni 4.9880267302195795 2.0547508873233773 1.36974132207972 -0.1900880844717694 2.090965586755354 1.6146525281772255
Ni 4.978977051657827 8.792598935340513 9.561983280858428 0.4797418817540189 -0.963165069014367 0.4171679156765396
Ni 8.190098467152223 4.6754597522977 4.306159466094592 -0.7517208874643247 -0.35569978106872935 0.1121090966931295
Ni 6.756374802690784 8.635734743186442 11.972485952045337 0.2418284502688545 -0.5205342331800326 0.7669549308052598
Ni 7.529434767139942 4.067672562239148 10.189698346255017 0.04786314222986596 -0.3613119850491842 -0.1794383180674071
Ni 3.735287345742096 0.062382388944005565 4.894356982354789 0.75934935054386 0.792726383342409 -1.0850695545313636
Ni 5.925467508954695 7.638040201132061 1.9972659168289606 0.9911304438790414 0.7120091706969995 -0.4455639503207294
Ni 8.103420385732731 4.804617433701108 7.101899706479449 0.7616970248404301 -2.545151217306823 -1.8383079070814794
Ni 7.120229486629987 1.298155019805867 1.7203699100921732 0.793480230789298 -1.4260528553255247 2.2914093034298344
Ni 8.470127483756592 8.69152870598246 6.61766385691654 0.4551456804718935 0.15762867839148334 0.43827564418943227
Ni 6.232998628785744 6.335787739595462 13.493880003542694 -0.3808351426837764 0.3312568175350166 0.020707664860996594
Ni 3.0385178439937057 0.7641533711541936 1.8997495910128706 -0.7604862923617806 -0.4431800234695851 1.4437425592958038
Ni 4.533275736865979 6.767059741444394 7.648526307112341 -0.7262116874496267 -1.615379121930605 1.1092266113935412
Ni 5.350515600248539 3.0357211774155872 6.467153951382986 -0.5138282819147667 -0.42479072232911996 -0.6647949749050421
Ni 8.542004602189564 3.1115656600640316 0.7489398766192724 0.4534762631892707 -0.0677645091394833 -1.3151256947556385
P 6.841882186472927 2.9447598292435595 8.024529301851842 1.6742877233413553 -0.12688445523009118 0.4445612200878279
Ni 2.374277012311738 2.5879943698860983 6.027630389440941 1.367509350563677 -1.7071883307241178 -0.21137527598531983
P 2.5333060659698003 5.7857456750618494 8.041283285817503 0.2436793874346642 -0.228353041490239 0.3314506787133775
Ni 7.983042936609461 8.144970860607634 3.4380332787418015 0.2877725210991367 -0.22736342388346004 -0.009663234121376907
P 0.3915927849435719 3.567701049830056 5.319397342097593 0.36273843308306564 -1.1382811055573363 -0.5867987607352216
P 3.042643159477708 1.243801200928812 7.7527323337133 1.2163927622590986 -1.9532868691232361 -2.895459652156652
P 1.776004063369443 6.903538928706795 12.939665238144519 1.0089587303097138 -1.086244291565755 -0.9219248314176575
Ni 6.484447757036979 2.451710298896588 4.240395990878901 0.825887700585726 -0.7312163397530697 0.15219825140453144
Ni 5.114880181352644 1.84137730603935 8.824077694033754 -1.151578593997191 0.2195326149851316 -1.1776086995123654
Ni 4.741288266271021 9.140203221123139 7.137773226938305 -1.2538647910626275 0.44522045093838164 -0.20319916793243067
Ni 0.9637443105711743 4.075012650600322 2.4361093591912097 0.5295009554550172 -0.48441100509491414 -0.9354927999100792
Ni 6.346221814569638 -0.08498521547087921 4.840248452506512 -0.20140299526395636 0.3355276769962286 0.07937458257458589
Ni 6.785317049836429 0.8886236163826488 7.16877813182595 0.3728053304007644 0.6996143965770725 0.004981255264675292
Ni 3.7668497256951476 7.5908313543432895 1.302103801519157 -0.41059000534870577 0.5270658636509633 -0.6008904629415974
Ni 2.174505822623609 8.049809866942882 3.5089506109371684 -1.5630877687260563 0.5981036442250796 -0.10468400787365197
Ni 0.2675527246405882 0.3343800481060951 2.447886019947905 0.05867077436833122 0.7572726705204894 -0.358792303951124
Ni 2.8045920152983888 7.0861677601337 10.849615958804764 -0.8804524232054837 0.8369293031118684 0.6551294267908201
Ni 0.907456982342271 7.017877064621502 7.296415764551019 -1.2596667424563854 0.5270344961923955 1.7972432758306855
Ni 4.654192078552472 7.81830905478208 12.297372199787574 -1.0117833442427027 -0.49031657194607164 -0.19681897543769974
Ni 8.993494366410541 2.170296885879796 9.10710778474022 -1.172255148509936 0.6638763197455148 -0.8899390225396802
Ni 2.6217123200920525 3.9769899515998226 4.172307844640469 -1.0163521945603076 0.08078817509266087 -2.2361223579320715
Ni 6.031341315126325 5.370724071369494 6.10779530384628 -0.7544390577264362 -0.7934061830182529 -0.8249204515764503
Ni 3.8388290478901124 5.366700959647483 12.662116056456098 -0.19717841565964753 0.19967418549830773 0.04571010044260515
Ni 0.0448144913828543 6.175773813321849 2.946277090546572 1.1376079907497119 1.6604037662704112 0.6665206993468973
Ni 7.68489598037941 6.718299255723576 11.01260958930297 -0.6647859760439777 -1.0026276458853636 -0.7858340270979499
Ni 4.9606175395038 5.109101023174605 2.2039525847034467 0.180683760438734 -0.1752631036437949 -0.6372594884889348
Ni 0.6841687070200034 3.3693235478054415 10.707754349785867 -0.11503372653909222 -1.1025785099494043 2.3203187873753333
Ni 7.605223502281846 5.3631888667354275 1.7676252131363954 -1.0326010523190023 -0.7022214951826165 -0.5094401801494
Ni 0.5616124595161078 4.894900520543559 9.145102497822947 0.19687142594218998 1.5115271230399452 0.6417314082173593
Ni 1.6537590727770655 -0.06378722610882791 6.0221912910528 -0.8243581513150772 3.0993579030386362 0.5298179724748037
Ni 0.5473671133447745 7.55464193134737 9.977844813649329 -0.7947071612178637 0.3476545421667496 -0.8772506284387344
Ni 2.1589243945455205 2.2174592764131176 9.177698064897218 -0.7926981012076347 1.2210708844610583 2.513676029516677
P 6.07783473558116 5.089979628431189 11.644988862746786 -0.18789416214424412 -0.7691601659866947 0.16612283190542357
Ni 3.7230136030520806 6.436811512698063 3.740495091978094 0.383519631494475 -0.6142260037082389 -0.06160311752377777
P 0.618961777744609 7.65951228240127 5.133911450960485 -1.080945762170977 -0.7287871614862867 -1.529204228604734
Ni 4.775963215339256 3.47202903735535 10.531936934533114 0.7046666142889993 0.7661177796159451 0.32229472324572234
P 3.5823440615480453 0.03656850604039515 11.137064968529682 0.37787528872450404 -0.26652878122901197 -0.07560560245045689
P 5.176564797339783 4.105868895470527 4.2123828688422655 -0.33835383359111404 1.4683210199661165 0.48974038772762757
P 7.497937425944521 8.42291863696782 9.612108651364382 -0.5139684070370568 -0.34596918404452676 -0.10540725919292168
Ni 4.921761527445023 6.1493587864727095 10.28926803856202 -0.08479832469331847 0.3222612989046256 -0.8493045368477696
Ni 1.029154718245442 7.912169273294218 1.0248853883695432 -0.07836593880441342 1.0342673842778318 0.8188464774682284
Ni 2.725774332301115 0.5677939288663479 13.247581015770699 -0.36521903341307427 -0.8465791674968066 -0.31385250601564013
Ni 5.915014851478339 3.9758006714602905 13.685716464799881 -0.19818500254729096 -0.7070381998449694 -0.16663473854483563
Ni 5.005912388568011 7.3635580614284795 5.434102482430358 1.673787900886801 0.26554919092456203 -0.10883428259659965
Ni 3.029245175405791 2.3216142011330807 11.707584021340754 -0.18836261714023045 -0.0892627882225753 -1.7950609234673862
Ni 1.499078324629167 0.15927713006216832 11.005306665946156 0.8298641687349707 0.44254187566495395 -0.001304577744036463
Ni 0.3507103510220458 5.58192349989844 0.49039873641096715 0.44918432068213615 -0.06251328804287298 -0.3046029623929141
Ni 4.146118595192818 2.2844956530281517 3.6097170163845735 -0.5191658920775962 -0.6392052993613958 0.24367115990454807
Ni 1.2190028517693492 1.9127898619178187 3.8955066086647996 1.7849665153458614 0.4775405032273259 0.5158741087002018
Ni 5.054096816721243 9.292830602780127 0.485582151845862 0.5766853264503036 -0.11985351652523875 -0.8651949828257808
Ni 3.755077710563998 3.9431883801340573 8.09487615123028 -0.09571831403993193 0.2601809846341132 0.1332340515972028
Ni 8.952538531605404 2.208651170379708 6.817768602518804 -0.8470576497951218 -0.7743070002949568 -0.6510218323803498
Ni 2.666849217887733 4.764079705195024 10.331559955273912 0.6110280655962315 -0.6734665345371111 -0.363290963152426
Ni 0.679908668395195 0.14375702424127393 8.304309312926996 0.16119994068250948 0.3015024690907195 0.48967996680333736
Ni 6.868687445867851 1.3517376648424435 13.142490462065963 -1.0559050171522655 1.7057618826902365 -1.5614877712287882
Ni 3.599356342294009 5.045307293190014 5.727902062275355 1.5900763814997583 0.67844290470578 2.0715928386556968
Ni 8.607963193678149 0.6403483795037892 10.754642648412034 -0.09062367312584392 -2.7581606864614563 -1.4002742036995242
Ni 8.676644121736128 0.8000789226191541 4.807407596403464 -0.4949908374932895 0.4272193863752707 -0.6187177209310053
Ni 1.5932916106827284 3.6294785783280963 12.88021238066922 -0.5417684599684605 0.6824751657936247 1.0247954402316544
Ni 6.33954140503586 6.294729701028333 3.6818849509766673 0.419290104225865 -1.092822201893589 1.8634394120417843
Ni 7.81433239931552 6.7032474289576225 5.627666187265194 0.8868675827032081 0.7474898801021127 -0.6556840137427093
Ni 1.1945111138958593 5.517061276038487 5.586829280474009 -0.20858897148943428 -0.09227534979665399 -1.0191428699315674
Ni 6.620415925489427 7.616131431061618 7.754555277177176 0.38057546126448655 0.6904134468040949 -0.2334795640835269
Ni 1.24065146680927 3.848882181569595 7.494058328614407 0.8588361304872886 -0.20538049185446566 -1.13946766966627
P 4.693689186936465 2.0925012405024326 12.925291672708143 0.9796340132036677 0.44530632578396856 -0.45051615211968216
Ni 9.10789754108288 7.936391564886096 12.50420845680461 0.5919777338329998 -1.7652777786676825 -1.1363260387134946
P 5.136064233838059 0.17762177621445152 2.9829663828511377 -0.31639172749772604 1.037269147218633 0.01074001212532344
Ni 8.53055778084657 2.6535534375778074 3.005976166175758 -0.7165199140831595 -0.3993064620150865 0.8208308548881089
P 7.613790035786914 7.87598914154939 0.5099094345750573 0.3778981715426395 0.7498100435948571 0.21707335481136164
P 8.620534256403046 2.1412059787167093 12.01846370806467 -0.12838392259375309 3.2690900495618735 1.7788380338506202
P 1.3994761129433508 2.178816963129413 0.9928082731060999 0.02018213137482976 -0.14933944179949765 0.42641463108578825
Ni 2.259232741314184 6.171397634058415 1.8624489343865758 -0.31305854935943506 -2.6279633648080485 0.78627034330442
