# total energy = -381173.6079929865 ev
CRYSTAL
PRIMVEC
9.20901504976947 0.00000000000000 0.00000000000000
0.00000000000000 9.20901504976947 0.00000000000000
0.00000000000000 0.00000000000000 13.47832438684386
PRIMCOORD
 96 1
Ni 9.144312296975665 0.3503284214594929 13.01111132137262 -0.249575441204125 0.37917703825506305 -0.2096007005834003
Ni 7.257569337538284 2.6685514828871852 2.7413699258936246 -0.519647202589389 -0.3583367044709442 -0.7018720822629977
Ni 9.450751474632042 3.3261027691655305 8.830957149178047 -1.2070812550501857 -1.190551889936595 0.9554890405263481
Ni 7.941495242304664 5.16778601901424 1.1208430091153985 1.3497193735701076 0.9900606078536305 -0.2548955678654578
Ni 8.293040174623888 5.327157229752347 10.165068970157574 -0.5152938107166996 -1.3199002333261463 0.2829596730915256
Ni 5.562723829236964 2.6317706776353655 11.157249149404349 0.21131254106818448 0.4958706689950815 0.1199368202676644
Ni 5.455834794044706 1.025488265004239 3.4646837080116724 0.45290316429462 -0.4780436681159896 -0.5367612365618563
Ni 5.37298128757234 1.8109343493139503 6.910471438482982 -0.17968745796373572 -0.6418288530271721 1.2335679884868045
Ni 7.115695254987072 3.0041464015118295 9.307106498528018 -0.5012992962098205 -1.0022972591291384 -0.5552361554375921
Ni 1.3238787636946432 1.766565315837919 5.388647663609997 0.6451694873646309 -0.12302780048816232 -0.23111363495451162
Ni 6.251162151272595 4.2427312698027775 7.3701771709432045 0.5816115601073274 -0.36049128892010174 -0.5158656240597697
Ni 3.098907164166118 0.8600888331550051 2.63773535654413 0.15625108131766638 -0.4050261381076831 0.47518742961411714
Ni 3.643279658119759 7.1630664272993805 11.587881101128337 1.7793777084041742 -2.4340759611948464 0.7306846356193157
Ni 4.664301550928922 1.238483569127761 0.8585122498152175 0.42503600557070675 -1.001475277448475 0.1296779588148283
Ni 2.2112410151855997 4.065595869447555 5.084212367581761 0.39715573422067085 1.2027797994613545 0.20433662397098357
Ni 1.1656586798109374 8.951272928000039 1.5481744499224486 -0.4646284231513482 -0.370225228378414 0.294827371063389
Ni 7.722624586716279 8.449970996430665 3.38026927352474 -0.7267253938612517 -0.6657987335792082 0.4266794547114006
Ni 0.9510149620319132 1.3899442361224243 7.611249840397792 0.2227323528693519 -0.23482193704403428 0.5195327884987118
Ni 0.07623314570733399 6.719136658153352 2.910657403806283 0.11291770863735393 0.819323417104647 -0.4252622626488999
Ni 9.265834456741068 0.9395681565917499 3.5324399555631976 -1.5413735169774163 1.8468182585453354 -0.9672011867569535
Ni 5.952163857603068 6.650999157387648 7.025158667437694 1.308121495523663 -0.7487371222456524 -0.38621389049718646
Ni 7.293733138796145 7.1729661182472295 9.11052534244677 -1.2801694903954275 1.096327643943686 0.304782682503888
Ni 4.085607058684462 2.739599032340814 4.469762954338123 -0.33013401678448306 -0.1700270520558362 0.18354282715408388
Ni 1.3843451551026178 3.98649043201312 0.6449570375897148 0.007701482409315769 0.8337431920744027 1.3482654147324005
P 9.188755002570378 2.232219150980203 1.6434389456882232 -0.08250850021787726 -0.5534721215586338 -0.14536297365025289
Ni 2.8221946863977934 6.829212012478591 4.923213923922274 1.1643505489508785 0.44505898565985286 0.09603353128750557
P 1.395478854038384 5.074213219273693 3.0236870100906574 0.9831319990545971 -0.4189915991488397 0.008713725723914025
Ni 3.8476921604168677 7.512548540295518 7.107052594564229 -1.0105335309960015 0.478690300561053 -0.5301738131523257
P 3.5102001847361706 1.9830876726433257 10.83568324397966 1.8066843666389272 -1.0196429494964376 1.8263414787482222
P 4.112718398359314 8.54060612043878 3.795374826236568 -1.1914564040287352 -0.09473383863947556 -0.7955489403928686
P 2.5989313307330146 5.0600681724868135 12.62812497060303 -0.522522724364971 0.3956033021318865 -1.26006757743923
Ni 4.890907778978882 5.16156072498564 12.603337986272585 -2.5518489410419734 0.26257365323600584 -0.6566119248736176
Ni 4.695602992353794 7.340837249678232 9.294369510109442 2.10009094609539 -0.6101500338666525 1.4758625797588003
Ni 3.4616778855694603 8.259114163970981 0.566644496332591 -0.9930358884318705 0.25468653717844525 -0.22977537575906232
Ni 4.6138453586468176 -0.031006752950144784 12.047559206544056 0.5549402214637281 1.4701827557652034 -0.3324950608174919
Ni 3.2256876714024245 0.6886584174901936 7.945215684298088 0.2655846721481877 0.26896233037116907 -0.07129180556645143
Ni 6.507541124284781 2.5016841340732197 5.134958643831174 0.9068543102377802 0.7245875215826425 -0.8144912858233263
Ni 2.525388138259044 6.7467268665996345 9.371398314698538 -0.8421123899747045 0.4734249383970557 0.7657938206176231
Ni 5.681391194403451 4.795262950900413 9.56291174991597 1.1490427149492144 2.124514883465709 1.9990987852510278
Ni 5.455622986703496 7.184191907331347 4.561765617049267 -0.669929210807814 -0.9770590533876399 0.5827410457260803
Ni 6.51034987380952 1.139587958812464 12.834396772995367 0.7472379119923066 0.2638260375858682 0.574854700999468
Ni 0.3261013452310282 7.298752051881333 9.806248916118536 -0.5212561989477216 0.2376123553049779 0.4414910658029364
Ni 6.98934757144802 6.085565646505889 3.1337107939328193 -0.7175599253118996 0.47994371335217983 -1.0922038515832995
Ni 2.024878181965499 1.846895552245437 0.8140004766092405 -0.29988036010626423 -1.4500016528316384 -0.6569623662345009
Ni 3.846006910702024 0.49183414341729653 5.6120371827780176 -0.3184432107101161 -0.17710581327948852 -0.5357281673116515
Ni 3.5960742480744834 5.078384902994042 3.345899388356777 0.368147777024095 0.2292711824291342 -0.20098056301455708
Ni 5.667513209046793 4.825836880153303 1.267883348989162 0.19668424963204836 0.11881813328218892 1.7948045844822056
Ni 7.6229277921103185 7.16235733315707 5.256937570732404 1.6652780636435773 -0.17399452134401647 0.6640125882130629
Ni 5.613345783786101 7.423617084031916 13.250419543584783 0.8616751425979805 -0.2588620087123736 -0.4811750146561196
Ni 8.168672429274405 3.1452745538613893 13.266323512205187 0.12583030293396394 -1.295516148054827 -0.10268446094511992
Ni 0.5759456013161508 6.172213267090359 5.311295622600184 0.031120889774520603 -0.3713264318623928 0.17006073350724907
Ni 7.293060880713175 9.42229561879125 10.930340865667796 0.1130686323929214 0.0460271174623917 -0.8644843299120015
Ni 1.3342941594732631 4.677976937959206 10.598949862315425 -0.2738391988474961 0.5575069537496399 0.07772830522041453
Ni 3.7732280664593767 3.1677261320296264 1.9267671797141617 0.49230969111670053 0.14630271185570287 0.04905973364112841
Ni 8.149932084084758 2.492263311896802 7.0693407579125696 -1.8030573114093014 -1.07722846122039 -0.21795241498220527
Ni 5.114935482874983 0.7381927873872931 9.473051104055497 0.79397619658911 0.2765087752598593 0.34828189133810344
P 1.4470861731748887 8.619711557873215 8.623324254393067 0.6558562776545156 0.6199541644412677 -0.8572957825833621
Ni 3.4749020308728187 5.6404110783867765 1.0555022861551482 -1.3217218599159175 0.03903448819464245 -1.0264946823109482
P 5.606899473401455 4.085699148832814 3.5689923772471044 0.38193994571218093 -0.18540302029127426 0.15181438570255146
Ni 0.32321800268612455 0.6996917381642561 10.037173251224724 0.5291721113606886 0.341086916251561 1.093729801309523
P 6.130689819198406 6.646772219578288 11.039421646390831 0.049454397976385796 -0.1977026635942337 0.07756092640461482
P 5.7958224127457445 8.589874349807141 7.943881298048466 0.8914009517971875 1.409016211558212 -0.9037196212635404
P 8.562643292939432 0.5074821014252817 5.657647591453834 0.6898650304997925 0.24954227397334441 0.5980162267175958
Ni 0.9793418916650124 6.736440397028707 0.5136235934188818 0.14682233180459875 0.3359555085622665 0.7766521034883657
Ni 9.014382306665718 7.560435417438599 7.292878542219437 -0.6054138047332477 -0.8231281355627179 0.12619565669318267
Ni 3.53543288538464 4.372734932231406 10.581562321405068 0.8373959583356416 -0.11672268420574092 1.1715583795532274
Ni 6.474959629797817 -0.08000239547938455 5.540656266987355 -0.42985965221159517 1.2056499219202979 1.0346250247275666
Ni 1.5354006254445318 8.667672107134978 4.057420106076857 0.513996689171831 -0.1287320499617912 0.38100637815431804
Ni 6.963746510206142 4.969626437790238 12.29383589028202 2.1019179720017993 0.09247281051944074 -0.8679758880050278
Ni 1.1854580617066344 2.485356550770396 11.861086786047416 -1.6218158786948844 2.117818702392456 -0.39360684052714795
Ni 7.242917794935468 0.3726777795630588 1.5399388279553223 0.04811768144283326 1.6365143612473234 -0.8704107226987656
Ni 8.046339876203506 0.36328182172669626 8.221427191659377 -1.6729427792776868 -0.3242724157973835 -0.20069645611523498
Ni 2.3272653930943834 2.5701807864174957 9.368809660628362 -2.2043103556277974 -0.6771290709903629 0.49689885314927973
Ni 3.7406465719724116 5.162214565038939 8.37707519769961 0.9619389099167498 1.1493327353858076 -1.538553531030118
Ni 0.07587307322727735 3.806997523860084 5.759975401598214 -0.5934993126838488 0.7822290833555109 -0.07908867590305088
Ni 4.471556870428023 5.118296773289833 5.53558854612354 0.3646852723967913 -0.7157182441174705 1.3594643687720136
Ni 4.965684979440769 7.10368669964196 2.123267296464859 0.4223900833074274 0.7131599964719911 0.41314799588386913
Ni 1.7062094326079669 8.522344644020563 6.344880453447538 0.008558431092972356 0.4883072548255268 0.38428556312622203
Ni 1.0960569456864366 5.2544336395987115 8.29656906910874 -0.7046918110999798 1.1012379367611098 -0.7128357803633529
Ni 8.594442021165404 4.4093960202903695 3.465412141085137 1.0170152820656033 -0.2622939172120579 0.42233686147198873
Ni 0.19643012823795017 5.154653963859234 12.541998580258234 -0.34746710874629194 0.12698704224622648 -0.9709683671088696
Ni 3.69072450255075 3.005205438217878 12.873645594223023 -0.4984638836435545 -0.06804938736975377 -0.3442825403707232
Ni 1.545014836932489 7.655417196448933 11.916900783160644 -1.2255618303528764 -0.05283514152316062 0.030119187982883617
Ni 6.915868842077897 4.980971944067214 5.144082935729899 -0.022618251620148144 -0.760536943094058 0.920172624613241
Ni 4.4852598845028115 3.039564272568039 8.743294695158738 1.1080613874408467 -1.562001220530097 -0.007652631449251336
Ni 2.4990779828748555 7.139030898579488 2.672778420696546 0.14349892385832058 0.09369537007263219 -1.5961061326336061
Ni 3.0844674289045124 8.854697989423213 10.229724542414084 -0.936568035252129 1.3208471706204479 -1.4411442024410082
Ni 2.2746542913408407 0.6608011476136899 12.093130016456083 0.7619862739460748 -1.3042054482987089 1.7335521654296273
P 5.832161185285474 2.996456874124431 0.2777972997159125 0.10005550796270511 -0.23886293988262736 -0.9924036541645102
Ni 1.678342953716628 2.766038113932696 3.1682961700479257 -0.47506375955205926 0.6622740082554014 -0.7248060653513516
P 8.167576556509017 5.531569732049455 7.864790595037767 -1.1373223411884927 -0.40102395892682546 -0.269867872904574
Ni 2.5600324520690965 3.5009727518712923 7.436611003964394 -0.7368709669356858 -0.7369097905934211 -3.1046623459706857
P 7.400539292854885 7.5689721741908365 1.0107298978293349 0.6379842824701012 -1.4392115041946698 0.5183724496420233
P 8.278075525516675 2.4277173269168304 10.963039314643169 0.45330965570441933 -0.5851558258151599 0.9180136692887093
P 2.37056618084953 5.85372869802953 6.748664443320963 0.5483795375270749 -0.5768164527115293 -0.7556359062480147
Ni 8.400048927009003 7.38811633184219 11.944194461329232 -1.5020304964034197 -0.26385791926506813 0.7383478085915283
