# total energy = -340869.434631888 ev
CRYSTAL
PRIMVEC
9.22522363136334 0.00000000000000 0.00000000000000

0.00000000000000 9.22522363136334 0.00000000000000

0.00000000000000 0.00000000000000 13.50204728439805

PRIMCOORD
 96 1
Ni 8.95261817769661 2.9499036030616277 4.21470481250843 -0.21075126924807575 1.0745136333923881 -0.3377545094442183
Ni 8.130327878073768 0.9280943883239628 3.711996551563934 -0.3005331631989147 -0.844922348619674 -0.6242337656532282
Ni 4.888058490801145 3.200349971538219 8.403444310860598 0.18856496295902364 -1.5370178111118817 -0.363083218016994
Ni 0.19296123307478663 3.697635646089958 6.335741454090468 -0.07566859447790839 2.7378289168826395 0.8797070603990269
Ni 0.6018618860006046 0.20033772181185316 10.132840692747248 0.09462996607175961 -1.168536562007768 -0.727959780488985
Ni 6.390109386460439 7.03210191735238 12.018239294668026 0.8974638701618156 -1.1285368816863788 -0.3225662317395541
Ni 8.530822507316225 0.8258724539207449 0.6611044264854643 -2.0769044806765975 -1.1029760024981392 -1.045760986739728
Ni 6.415432625058798 3.7486326817809332 1.5129311242942318 0.001848623172964558 -2.1472128392838568 -1.2016384867680596
Ni 4.056838174798261 4.02344286560844 2.5342131856154486 0.214996674787991 -0.08333279589138552 0.06713176065149083
Ni 2.1618850088642505 8.444723496081805 6.44320423798284 0.12092772342602401 -0.06903103455673273 0.04751295797929882
Ni 4.723618881323642 1.039784169639201 9.642986858273773 0.5871947106220596 -0.43657923032361584 0.006449355169769538
Ni 2.848813603585921 3.9930180783962776 6.894887787565762 -0.7530064390449677 1.428257062065695 0.1803708571840055
Ni 1.96027697377189 3.014618546146322 3.426279385953243 0.45953712467136987 -0.8214180948501465 0.20143770515663373
Ni 4.416483514236154 3.108051610089556 0.16352354478066547 -0.49497772486716685 -0.4779968740384542 -0.16520803340063805
Ni 6.933521178677677 7.122269252164897 8.470091015753123 1.843114070220871 -0.030832411999824314 0.5412066739277195
Ni 1.0420351241812773 1.1492137711888297 12.795984679938945 0.5738956795203084 0.8028267050012045 -0.7446503537707885
Ni 3.5651614361546464 8.331991264507327 1.9622391788173799 1.6116268539770244 0.8079128612748603 2.540002326116032
Ni 5.290084507150096 4.907735892597246 12.42438160575745 0.14885401752264688 0.37135574243843145 -0.4994424455067399
Ni 5.78407677690052 3.309964077558509 3.936400114006585 0.1884325511462174 -1.8129390892993875 -1.170283369495546
Ni 9.414063858822256 5.708060934987778 13.785319792165037 -0.1701754047082424 0.7424160651236311 0.09326882405817485
Ni 3.6322380364638143 6.619033308434308 11.714781101680831 0.00993422839457644 -0.15236691577191178 0.809118194436871
Ni 6.355920708046771 5.344347271971789 2.956597425257245 -1.0787952914868777 2.6677275320798635 -0.17739274839228805
Ni 2.143868147304107 5.188920705886125 2.0363112661316976 -0.6945030434924362 -0.6371167922634835 -0.4921641666777717
Ni 4.9238523581095714 5.9527876648738465 1.0069709720543187 0.18176465220773858 -0.5450707848688162 0.6751151258841277
P 6.862007245849088 2.0253793762449743 9.834998815847003 -0.25363958397116965 0.0959096041151316 -1.3727849971403197
P 3.719213443933878 0.7737739265399177 0.6114708788326813 -1.3441544778878205 1.0594737083401304 -1.922594839356018
P 1.5425311765225356 6.259037410502158 6.809258340209176 -1.1014929901947095 -0.6210232291357304 -1.0662012568719508
P 2.5207554295253622 4.662031289016668 13.14216396058557 -0.04441683555247835 0.4769815454000624 0.04440500847793643
P 3.666804949042339 4.715758990873441 4.90533456691158 -1.413326923118424 -2.192863804353752 -0.9837428931657187
P 4.463439902019631 8.662973834427879 11.200029311413875 -0.4686385727520058 0.05326631552330826 -0.27747525293818665
P 5.9600386905708636 7.518326548887933 2.15322529153373 -0.5684110022566533 0.022843737367392914 1.0021442784910417
P 1.4385905829751013 7.461988108771293 10.293271942599619 -0.14357451429126242 -2.060990380549502 1.1769710659283665
Ni 4.877440258514547 8.254222630123296 8.024253490323128 0.34774530210834304 1.6423728769106296 -0.8781122051080812
Ni 2.6533772430372036 8.809996221874888 9.256287628302713 1.660937270176378 3.1841662550342837 0.42385946876410224
Ni 5.721898770287428 4.6306747542276625 9.946040063947866 -0.7552029324756542 -0.7529316199429742 2.7182358252420604
Ni 3.2700465353307866 1.5281121521403007 11.61244938711757 -0.13218144196297235 -1.6245638737536667 0.3560173123091482
Ni 7.101466373097757 7.801670064483558 4.151109811560654 0.01190806429149562 -1.365027721792404 -0.4491020453809749
Ni 8.472777400845962 1.4284889632063573 11.25031046975868 -2.2835273295785963 2.9461150124196744 0.9919519113390721
Ni 4.738951202835654 8.095687163706978 13.41266319745606 0.09847916461452072 0.7920411843499263 -0.041952947393018074
Ni 3.437539693797745 3.7151635708028476 11.271846754096702 0.40341071399144723 1.239061407501208 -0.47151589429980084
Ni -0.06815502894018732 3.8191687409150137 10.348832696372417 0.3428679194113837 -0.09576947899284151 0.6430372715129765
Ni 5.616352987845234 2.661790646899391 11.53212536581487 -0.24040097379370853 -0.6652762854168348 -0.9923522321012845
Ni 4.277044260533351 0.7557764379491935 4.859630041961545 -1.0145004860635496 0.49815406571261944 0.7857715492911306
Ni 8.630233516108907 6.314850012877411 10.618522881139054 0.5737774087748893 1.0465534007340365 0.36523394581140967
Ni 1.3382570518291088 5.036833670719443 4.47783217325362 0.18369143691680623 0.26696098367042415 1.388361511422338
Ni 7.52135242220679 4.085048908362481 12.045985999488531 0.12044615580391514 0.305946363794686 0.5090043781635621
Ni 5.264475286622211 6.895891491886163 10.09010668977487 -1.0735278724403512 0.7998280273841967 -1.1120329704940848
Ni 4.064910245389724 6.3244903714694996 3.4656517174701595 0.7801493180083467 0.051686372630698085 -0.2155312071352224
Ni 9.02038666977076 8.26238695295009 2.534887549455718 0.3348432493346943 -0.8843142201537351 -0.7110082402363109
Ni 6.335357684791491 0.11715203616918647 12.225914759278107 0.6276037105667255 1.654782306318576 -0.5884524942885607
Ni 2.7952704061998106 6.906832606996419 0.5535558480142346 -2.263967662279114 -2.1478854398708496 -1.344209499495472
Ni 8.649560359410751 8.467334518961433 12.074151529457437 1.0620430117292032 -1.1114891821754729 1.0088142343120496
Ni 5.153901757354479 5.704509223927535 7.8842238223142065 0.1799445682798643 -1.3911717271776234 0.6639112867485083
Ni 6.6513031403530904 0.49745726370945537 5.367496125383395 -1.1002195227989247 0.6217768194723033 1.9013426148454606
Ni 1.799859561754819 0.12275451442083793 4.084881931816531 -0.6586346117306011 1.0635877305085037 0.2120342497255574
Ni 2.9554479624050205 6.967267046361756 8.262618506060772 -0.6354800279910088 -3.4950987591896516 1.3961866638937115
P 0.7541444959061882 7.99584256940824 0.3643123800232872 -0.9828396646251589 0.07090099788593597 0.9510379467335298
P 0.02220050043240444 1.9052946415146155 2.208273122878089 1.5756609774053765 -0.20788937431924842 1.2383605247794416
P 5.892371675955577 0.9711669570000054 3.4025290479672785 -0.3275274323995714 0.3839718885405452 -0.6543005031316216
P 1.4122986959057673 2.1367001486188886 10.34969709981747 -0.8630709945042426 1.201417629006505 2.942007418009204
P 6.891343456684345 2.173499565292423 13.153248989182941 1.5318066992245878 0.6087672945865128 0.019839660433746475
P 8.983301271167699 8.729948957278182 5.163102072784039 -0.01622520360961077 -0.4195418152253549 -0.2063405417748898
P 7.1845026101191864 5.344817758371978 0.39254525412398555 0.08582573751656832 0.7646846467138444 -1.1097624292923534
P 4.115676650492372 1.2056998148819993 7.121600423458747 0.7201929920593725 0.0489175516363093 0.7013105533325729
Ni 0.6034560046271243 3.426515551675691 12.729095351667498 0.15731140426138068 0.8268878597154663 -0.45103577206857803
Ni 1.913661919259137 7.174447116468109 3.1932345566271385 -0.7080486433873548 0.16251274595666207 0.08321889602134054
Ni 7.916265791211722 5.239069021012055 4.460927873651568 1.5852866734205988 -0.5166264134851942 0.5453019270430157
Ni 0.7230923934937744 4.97155598899923 8.3309386665022 -0.23933139487861366 0.1702049723945972 0.344811930511632
Ni 8.050123784676998 8.791481198243957 7.165077056925539 -2.086440445191491 -0.3539686573102355 -1.464153261741672
Ni 0.42357152591050645 7.957853098898936 8.214294017627335 2.144068894338236 -1.9854071466965484 1.454510082224953
Ni 7.336986329897792 7.624554997871575 0.507170501567456 1.0767929163448682 -0.06920818356454532 0.9520229363546185
Ni 2.7478712076867438 2.293556624352183 8.813487968982166 -0.043154166789970846 -0.1413415111956856 -1.6442564670865878
Ni 1.6875978165805288 0.6257118564007274 1.6092415354574394 -0.1609538861099744 -0.9784883296349988 0.2049986830350147
Ni 4.9239999616861 3.106132763594671 6.112362813982346 -0.03866013557435923 -1.480661286699024 -0.307042167962026
Ni 2.186451779132895 2.9555402146403513 1.0399105552016044 -0.2036578527364041 -0.24995879268547277 -0.09597388169416375
Ni 1.7192218828519943 1.999345795434567 5.931112079660476 1.733383758172563 -0.5045370864208278 -0.5122750784950338
Ni 3.8755902080434512 1.628870043568816 2.5585031991780998 -0.2324837758291609 0.15212394652317027 0.8382004565148081
Ni 8.56526949198882 6.297368214282187 6.514507835714874 0.04789708079159493 0.3488580755565476 0.21949070600360265
Ni 1.8172122072205794 5.395657965262889 10.954913277094708 -1.1621663968153662 -0.06202195022875126 -0.5745410264137911
Ni 5.736105614528401 1.2412169254844332 1.106798038428344 1.1731722610075666 -1.0733152422089127 1.179133620797324
Ni 2.260557999774285 8.556929889914898 12.411850984632439 1.0582650327440097 -0.5324664658412442 -1.5701418473593605
Ni 7.19028682527444 3.591766980824106 7.700852209102077 0.5743811037971592 0.612198688865565 0.37590865191643646
Ni 8.691618153498153 1.6064250747127844 6.41098791236055 -1.2789659570056295 -0.6001129613456245 -1.7444109625210023
Ni 6.460460941123857 1.281466575759347 7.710006398413972 -0.8651749282211229 -0.050252725507965064 0.5592982413221077
Ni 3.808735013099078 6.501356357046087 6.236352585834266 -0.9380361351572231 0.32120174729185974 -1.6388288683131131
Ni 5.631325525639455 5.2332755806332685 5.383617203507487 1.9832332789736808 0.4654869144969015 -0.03003279891666441
Ni 9.168608336277074 3.8599165532607147 1.8363997496470734 -0.3351564096997389 2.182237692098474 -0.3575499469035907
Ni 9.179420298257867 2.25944174772678 8.560298019026833 -0.08495130533141498 0.5007593645459505 0.7847330807242873
P 3.416626112048208 7.993084227571844 4.732224169835318 -0.3371202182943291 0.8933989560638226 -1.692252792460208
P 7.5782074748412835 5.039029273920321 9.358822297783703 2.0298507217219046 0.43168025036010166 -1.5888430233132895
P 1.132866675088177 0.7583382825243352 7.61781412703594 0.19099259856390977 -0.3549765297494596 0.7874677060466309
P 5.996109314585283 7.111651019878299 6.3161627621861705 1.659842751560619 1.5887309232154574 0.39463939555672034
P 7.121254477576255 3.2325552268922695 5.5678522976423155 1.3299439907153934 0.13254396750871367 0.4037089619581563
P 3.6236770290250977 4.657676983509045 9.229769723256817 -1.877308970935025 1.0255716562760466 0.10605646274114637
P 7.5117397392853 8.54303670327405 10.263095313900495 -0.3288914026266336 -0.7745180878644985 -0.5039123083526353
P 0.0849929069328009 5.9415974687281965 2.883726462046937 -0.047763897647840316 0.41218048976427724 -0.2697989673398514
