# total energy = -381175.0103466202 ev
CRYSTAL
PRIMVEC
9.22933740801170 0.00000000000000 0.00000000000000
0.00000000000000 9.22933740801170 0.00000000000000
0.00000000000000 0.00000000000000 13.50806821235504
PRIMCOORD
 96 1
Ni 8.344096234810534 6.677840897766123 6.656343925194856 1.0681822918577217 -0.32745929816579733 1.051111452418364
Ni 7.288601526684257 8.215522336094104 1.9349628795165605 -0.7497426806920314 0.7028056498208606 1.7869228677412838
Ni 6.4769274528477405 0.933436721583689 0.6382455955664381 -0.16308790173384172 0.6359155728665306 -1.531994903975994
Ni 5.19164993255127 4.225633650098368 10.613478615845336 -1.19537707923938 -1.4109139428015571 -0.545430225090764
Ni 0.49360988104811204 8.31950928009224 2.058764287885833 0.6229677544566109 0.08494924844888596 0.2548721708266901
Ni 6.840637179401262 3.480844584085984 8.540300871809519 0.48451462055231387 1.0656703240691452 1.2448816137274108
Ni 4.572915156156933 8.613131418758847 10.648639622373224 -0.21305523479090405 -0.005638172122383838 0.8937190584074027
Ni 1.5967953440977551 4.6892878708877825 1.9325724811411709 0.777218517514797 -0.0027834762824081095 0.23060738474205444
Ni 4.358914510866725 8.212855057598011 4.068089784352937 -0.5091676432143037 -0.7805588947419396 0.24932732974906094
Ni 0.21627567694863822 0.976251617581501 6.356423686716024 -0.35814490017511225 0.5012049367238014 2.3997733312582343
Ni 2.4239008699947022 0.4426168692185125 11.224110034040477 0.6745700520139349 0.4517183999578994 -0.4745515958023311
Ni 8.915170713094783 1.9822770774757728 9.12472743244773 -1.1265427340744856 2.0269482033631285 -2.0393329501807265
Ni 9.281021645915063 1.0560669270423935 11.038996291743059 0.2946977874640602 -0.07297562102677756 1.6603461735595988
Ni 8.780431617024064 6.133937588660051 2.529709685187054 0.1721628674519164 -1.0402369715977051 -1.3111073176248644
Ni 2.282544339039218 8.79779200059205 7.046200364479959 -2.4403319694068877 -0.450009901907225 0.20850258242321512
Ni 1.674534052653386 5.720020266885987 12.091490542294666 0.09672592936883986 0.38170314711102654 -1.3790664592736572
Ni 7.583451167219309 8.78145607347066 6.29979801029762 -1.266674027012154 0.057390364994010845 -1.7188927636452396
Ni 2.2953177419409148 0.5356375145693963 0.9924417211726547 -0.9422072358157774 -0.14528738321731108 0.21342675919770981
Ni 3.168228469139251 2.9346985460022292 0.8559951976909441 -0.5398792133655476 -0.0669191304200525 -0.5669637282871655
Ni 6.074980581625339 5.885742248463205 8.890173052864114 -1.5433686930305743 -1.054328930914397 0.42305394214367137
Ni 0.7790991276359814 8.306782023877325 12.339160733195916 1.3523424130152517 -2.095192737462824 0.21401837003512172
Ni 2.101907748293544 2.070334185196214 7.344283041891069 0.925252867349626 -0.06650081193571128 0.28888940831239923
Ni 8.575623391741148 6.115617354006966 11.554828571278675 0.9218523263085091 -0.28418711774072347 0.2469637146128908
Ni 4.390405009927845 8.787030593234118 6.6285710032210226 2.1837201901812713 0.3916713140673319 -1.6456533474341142
P 6.438828748239212 8.307852627010703 4.229497973649626 1.2225325566082492 0.12707240287118116 -0.016463287762345843
Ni 2.319489376478158 7.479630351293594 10.318435159225793 -0.3193821775846177 -0.19278440035700992 -0.414785274376976
P 0.8736444595181948 5.0080507245140895 9.669183578861471 0.49990241586229384 -0.6409173969564962 0.13007262315008566
Ni 8.516915576815068 7.3512410393242975 4.36637458425216 -0.3071249574838194 1.2553740286183026 0.3341526510255729
P 1.4120332395536286 6.861550857851585 0.5364376981182236 -0.2639687338113196 -0.7999488692327772 0.40415093459158136
P 4.602522870397282 5.211280733109008 6.96188298425646 -1.6427364308976353 0.9448454447695728 1.2215629936061285
P 1.5521345806285993 1.6383181328656269 12.748847326725661 -0.3162942826879133 1.438523991209342 0.19082676241000684
Ni 3.881730081512363 5.3352307338097225 2.8170134194992538 0.40364185616564674 -0.2739818950729475 -0.5840032002679555
Ni 4.293118564850687 2.329152492690641 2.822740223329097 -1.1447358600437447 1.2098585606850067 0.8913616139188197
Ni 4.510718651710013 9.483144134027174 1.7754060952936295 0.5719719801350343 -0.9525070750798885 0.6395230877121308
Ni 3.7520671209878396 7.266340364979855 8.215269452250528 0.37395461351385917 -0.8080686701264341 1.5310153136715439
Ni 7.738097943968466 3.2168763063465082 2.0596696858805266 -1.428624729817759 -0.6728026757008672 -0.10359000347852483
Ni 5.272886559965096 6.733263068593212 0.8789227175525015 0.09330456239211674 0.2197221052881184 -0.9697694617047621
Ni 6.751989394089991 1.5159924955396937 7.377647096435603 0.44722231185975875 -0.4290834361672029 0.6093460499081184
Ni 1.154303993867294 2.9302776934083616 5.464527289641184 -0.39311216027891654 0.33783164253905684 -1.0453830345750192
Ni 7.388582938269576 3.999708700943282 10.780816654393716 0.8607248628695692 0.25648630939134537 -0.4103372659079514
Ni 8.995779745568353 4.582439832309065 7.6390154698416906 0.20389310867566177 -1.4669393091272414 -0.6738629986445814
Ni 3.2877483879087417 5.298544117816771 0.21094019702271988 0.6480635210829743 -0.0733772273405704 0.21691857440105222
Ni 1.4040775507521381 9.75310225171116 8.972572576784886 -0.9966850551486836 -1.822663772786319 0.5069197277203915
Ni 3.0608728170059134 7.691877422486026 12.787641923370886 1.1732563360809407 -0.18808776621228898 -0.016307478910771916
Ni 8.00848061117086 3.0446476419328046 13.077012106317255 -1.4868638159653103 -0.8941592312686149 -0.5136272216475541
Ni 6.014731467360688 1.1552638449523926 5.2155594539075825 -1.2177302501235996 -0.1806531643111147 -0.08023641635424891
Ni 7.825084448555528 7.101292125029676 13.571826415890419 -0.047126778284473675 -0.16036304660351092 -0.3612366517265585
Ni 8.261004510588007 1.4555403358531946 4.384191820019303 0.3983245577177914 0.36701237786807117 -1.157641255251503
Ni 2.6869646726732195 3.5800415019959835 11.841483483174699 0.4879100193871081 -0.5457181886448279 0.4570830067039225
Ni 5.593855225219659 3.8446927506998563 0.7234499151099179 -0.6785285224410508 -0.4294516181398991 -0.2206315044762652
Ni 6.556576634236213 7.245675878638164 10.850356019641639 0.5444781455901397 1.3737471039432727 -0.5909364370526791
Ni 6.316881513744904 1.2602106400356268 2.92083608129244 0.9840892207615439 -0.6786725042180828 0.1663598876168941
Ni 1.3602012809583035 6.534029363073752 8.130573669195405 -0.1911941730517546 0.3182354655746842 -0.44220454693019323
Ni 3.0607712942949896 6.643203194666363 6.0062543209985435 0.9455854082593907 -0.20618833246774165 0.1621543341759788
Ni 1.9315434100258968 6.812903020644327 3.6812458007810682 -0.2385119843011118 0.13677086110586767 0.37337688663351826
Ni 6.634638369599328 1.4794627782818064 9.832171830713628 -0.5168498423499099 0.3804242803986029 -0.8086913913120977
P 5.71759295116117 8.21429483422566 12.777673316091896 -0.37299070693869313 0.023088763498663463 -0.04341076288546717
Ni 3.6741715136971442 0.7466580068271196 8.826333726367698 0.7110920581993689 -0.12599845308071203 -0.5798518971037433
P 4.498895870556058 1.6575428425796694 6.882711882543066 0.06384666214231584 0.7723727593867215 0.5231351611379893
Ni 0.03735020534889982 4.901876427562413 0.11233118790234368 -0.17637382020947043 0.6087832354261129 0.6751547208728115
P 2.6563325019862747 3.897244597609005 3.8419377934988757 -1.1407192826851837 -0.18769181632545096 -0.44727707635709424
P 6.151971713855077 2.6111548956251425 11.876198712708254 -0.5045512274882149 -0.5413699389784612 0.4886831501077067
P 8.094175008527982 3.113996882831179 5.764068202354657 0.0022929097992347605 0.8194817970593822 0.40085529455944513
Ni 9.210140335015472 3.9660954542901172 3.5402215259704257 -1.019865864140521 -2.158461415614483 -1.0796828362981534
Ni 3.8750295825913863 3.315565610701888 5.514222656638429 0.3887708525910853 -0.023718169552546246 -0.6890559043349359
Ni 2.159221933278759 2.6597473568082597 9.623998589030453 -0.8666160315430236 0.8472324848100893 0.7909692914419861
Ni 0.5283703343347169 2.48163037516097 1.142273552622813 0.8690788912612193 0.4245757781048365 -1.8333536483999975
Ni 2.406789678535348 4.4315863132135185 6.932961932715449 -0.352955899775005 1.0397302071646157 1.2696374805158521
Ni 7.476510835267025 5.333717122483222 4.920476311137405 -0.266311008791251 -1.2491162206340487 0.42310716397910997
Ni 4.13154978508399 3.3259024685414116 8.572152237961285 1.4739321955053066 -0.9236441281016091 -1.6691190346562221
Ni 4.280871234178322 1.9387146051520663 10.733726729332274 0.8288295568228694 0.27326712839411 0.8775856431806499
Ni 7.071278319945631 0.4875582045433124 11.759299925748072 -0.4794330922643485 -0.8991109188469354 1.1690613241629866
Ni 6.348482764854304 5.543822987408895 12.340809092847826 0.06887059771946848 -1.2587403739873742 1.6228880287131406
Ni 6.140167391375835 3.5441393796783522 3.9665356936820326 0.006528545147137143 -0.1318762520177277 -0.12289770266820126
Ni 8.807648932889023 0.3504942383924373 0.05195009411349115 -0.4905281737362456 1.2342138496009196 -0.2675333112341263
Ni 2.898722588985745 1.039232615703741 5.267470784804175 0.8140624258160238 0.5002178902201837 -0.8240691593197486
Ni 5.957777226532385 3.7670924822045757 6.500189997655347 1.6209494169295309 -1.0986676049307724 -1.1246270051090115
Ni 3.1466410490618886 7.480405615631558 1.8344627791717931 -0.554844062205496 -0.001897731243345119 -0.5475308163735345
Ni 3.128200833023167 5.162872858673024 9.408315435540116 -1.0949006816891724 0.7288069589806287 0.682923823295269
Ni 0.27924467693231436 3.5906829279682784 11.262554838799883 1.8252338475063405 0.08739436755526885 0.12617765897105365
Ni 8.272882667766103 6.141182618485074 9.28441896499607 0.5510162038189736 1.0749679473209874 -0.9147671373269535
Ni 1.546070905985236 2.061806277478607 3.076084610837255 1.0604921223023154 -0.47521262642509765 1.1851960249413203
Ni 5.735544012319985 8.686181623937266 8.58875396999855 1.257498531160473 0.029665645385232774 0.5110257794689651
Ni 5.932885703681317 7.000729265190883 6.945956839713708 0.3496008672598431 0.138826972303948 -1.1726780949799676
Ni 8.276186770539807 8.828414941941638 8.476420936228735 0.3463080554411842 0.03082726979350175 1.1943843763088076
Ni 4.394752027822858 6.131076494079468 11.23317416625851 -1.52201002484914 1.761706516376656 0.4709713346502405
Ni 4.976874022923098 5.912811894930457 4.870766177200389 0.6379014929483079 -0.6404777383159163 0.36633000708906593
Ni 6.258764376409654 6.070430518308478 2.915054824372192 0.5088328855827043 0.32236671413423834 0.32015427986395184
P 2.818067409825391 0.19325032611109955 3.1835953158381853 -0.9034391139086441 0.032366332145847485 -0.18058091631228254
Ni 0.9670222802247836 9.072927776533152 4.60546795194781 0.22133367274961235 0.2033611474315917 -2.1099876363838113
P 9.020551287033783 8.128461996808188 10.540750514540667 -0.9799078356903448 -0.6496840874055327 -1.8642629363843441
Ni 0.7356187964147498 5.2059369467794685 4.989799709891181 1.372907638761113 2.7334793816646927 2.889908640431436
P 1.1709814064708823 7.373862145185612 5.773659329735757 -2.2111464047130243 -0.7996912446960163 0.5939423137585383
P 8.379398450199977 1.009477232065684 1.9391373088030042 -0.7872383636446442 0.1878180574906701 2.1101748126939532
P 7.242334858515032 5.122134563580475 1.2210385634925107 0.1715036366013627 1.1520192810790353 -1.156201180370867
Ni 4.090073143002902 0.6375201696502001 13.071554799138228 1.376935014752951 0.6922677264040142 -1.6439188812415109
