# total energy = -340893.84641402186 ev
CRYSTAL
PRIMVEC
9.04331707285392 0.00000000000000 0.00000000000000

0.00000000000000 9.04331707285392 0.00000000000000

0.00000000000000 0.00000000000000 13.23580864862391

PRIMCOORD
 96 1
Ni 6.564073761196107 1.8910752064137413 11.466181141945338 0.053350133486366184 -0.23314172112813394 -0.8575613775399231
Ni 4.687657772093563 0.46796453929833093 5.961037330669032 -0.3588025883637691 -0.5705072226640497 0.33057367542506294
Ni 2.667335475111253 1.5415329068995842 4.841076745420369 0.3026864620964916 0.16761201485644037 -0.680722444768576
Ni 3.290121606246548 4.296516213090502 4.775889801469529 0.03214238906049949 -0.3496510037714881 0.2331556050852049
Ni 5.041405214143012 4.60792284363407 2.845778211684091 0.10913921543152817 0.3152349881854635 -0.0724616575048365
Ni 7.330223601174357 6.1869945605637495 2.4289029890285025 0.3472477936466342 -0.41749907376371326 0.3833386258319204
Ni 5.291760409727973 4.639836710315883 11.564960392265197 -0.8141549855298301 -0.2857243803208563 -0.8193347299585567
Ni 5.67905855888695 7.781819736195533 12.275246948408489 -0.22365589312488576 -0.09216504947103482 0.6275923977128159
Ni 1.9088905414557285 6.680813943966163 0.3540603408273433 -0.6994385331208406 -0.7014581346540306 0.01976998353807563
Ni 2.9662532844908696 1.7393012125002025 0.4390385846458942 -0.42586647189180205 -0.5984792823969435 -0.7383704342993477
Ni 0.7575062373218399 8.950017375816762 4.697679576303477 -0.21408444738636678 1.0517966514108466 0.021233712567795687
Ni 8.62786728434432 2.218515638495098 1.416416803664609 -0.750419909264714 0.299338114449549 -0.11195868715819428
Ni 6.809871124871848 0.9013257293557176 4.712808141781518 0.20884608180556288 -0.7895238172447113 0.4004917405724393
Ni 0.9172546284130559 7.691838729257577 2.5202432065536717 -0.10967529044065627 0.07712358175688008 -0.02659060600433485
Ni 7.643882017720695 3.7833893472948694 3.7479974207870925 -0.04908441623147675 0.2113451940783328 -0.10030953295504015
Ni 7.441501620307176 3.7551922840152163 12.730320238923902 1.6115651475011536 0.2293074349837083 0.13577404441023713
Ni 7.792707890200889 8.899085412894696 7.039504463240967 1.43382478596146 -0.6745019177801609 -0.29660220357562467
Ni 6.8617074195219345 0.6592180391302958 0.24213753317244668 -0.06565466188533209 -0.41814390643656374 0.38550683712783285
Ni 1.8369238225399243 6.13820586383709 9.159232712430654 0.49052123175771 0.5665220127640567 -0.15738468070147735
Ni 0.11153665800703218 4.7229176661690495 1.3305161414834779 -0.41129345917363364 0.34228145078029437 0.7422492005284637
Ni 6.3190541228064605 2.0378663325058914 7.165495959588665 0.03122656211444945 0.0034517059940263137 -1.2982248052352416
Ni 3.673033746524631 4.549249801120155 0.8440797223086175 0.26538926830793 -0.16833423773444559 -0.756504167785581
Ni 6.172516209598156 5.865405154762681 4.630203768749018 0.06349802055364548 -1.2427463125519629 1.4081014130534266
Ni 5.404729529192188 2.7966187389489425 9.462253474860296 0.2569532217254349 0.36439653751177886 0.0693688775121257
P 0.10450367015822332 5.576733423861527 12.56076979623268 0.5042424379985445 -0.6705483324490517 -0.16109915343858708
P 3.980370884292111 6.14877750173764 12.705516228287777 0.2589633101769282 0.8466809831819934 -0.9701458712075743
P 2.586036052762286 8.700919201333749 1.377172423995468 -0.7217863046884214 -0.0412266107499548 0.839938008031205
P 6.376913266765158 7.940104918550813 5.820473432856024 -0.5855569179083205 -0.8584008427220831 -0.9211776688389878
P 4.676290322272356 1.0053998419431316 12.418656778169575 0.9869282328722359 -0.496829433363925 0.2985145901069891
P 3.7889690740567508 6.005540399336606 8.06124286651423 0.8022091260218636 -0.53080244787526 0.7919470819742233
P 4.57752825425533 1.0991338255523688 3.783429137890902 0.6628244814422326 -0.3012746693506295 0.27282412731942046
P 0.1949033826862521 5.807690703880466 3.4298480928794097 -0.017285783663641197 -0.6514728038748394 1.1334443462903254
Ni 1.5536690386896082 1.3025722910876705 2.436910846480117 0.15530928622968737 -0.917629546476413 0.5924495312630957
Ni 1.4258688788858704 6.597326038835388 5.267905043074542 0.7794648903468124 0.06408654606726381 -2.0581824787870624
Ni 5.990655099093403 5.558990435357781 8.978921626507727 -0.5214112364683472 0.2991913044590395 1.3957279790897381
Ni 8.794770748067629 2.4826347629805188 9.959032736008517 -0.468910852576786 -1.4437320177728425 1.5531969919749058
Ni 2.0851719251986 5.094127753886557 6.956979671400533 0.8159933242901496 -0.6459043086481263 -0.3698503615374985
Ni 0.38352618152140766 0.0849900001310152 9.117712129802086 0.251660862978244 0.44015177816622264 0.7721963817098572
Ni 1.631251657636414 1.0576069126017063 11.519971697459674 -0.762852478601112 1.100556080202737 -0.9711578574118563
Ni 3.92744034825112 6.910324293220271 1.752355240994166 0.23981450516261926 0.39641962738559466 0.4137817728131261
Ni 5.786502211492966 8.023755603392631 7.947984360897048 -1.0350533705142368 -0.10714892447437675 0.620136712765719
Ni 5.460083674264271 3.023000100424103 4.744759990395909 -1.055180480281415 -0.30530101690120326 0.23420152985121603
Ni 0.8391836703331191 7.538219898618878 7.398354144899902 -0.08652687734865099 0.193810270518363 -0.13147953079994132
Ni 5.023237189727096 4.2890464330170595 7.233383238079372 -0.11794781486209363 0.17374435300642335 -1.0185800554495619
Ni 8.198400146707787 7.101952186387636 9.17663748086812 -0.32378570596895206 -0.4968996244802281 0.10084483663321987
Ni 4.604585859557678 0.04003566993115815 10.42248465998403 -0.04766799549992436 0.6687639868551192 -0.6826926811210694
Ni 8.079010271974632 7.489666328141503 4.4926702865566055 -0.429399424745725 -0.5018873075028066 0.09382006857595455
Ni 7.238225934482918 6.108408133398842 6.9716443147021 -0.8116345331008216 0.8015612080252195 -0.6371656432235479
Ni 2.179276684816325 5.3538066095874015 2.698132492108962 0.7305506811446127 0.4432013636258238 0.07672480365656463
Ni 2.436902707494564 5.200920287648398 11.461296846282304 0.017948356948304576 -0.4216802017245963 0.5594764187711848
Ni 1.0020628578667392 3.3920669219462045 3.55834097078681 0.105751787016534 0.04869232299938066 0.5549908721960055
Ni 3.6833159982722146 2.670283596544597 2.5662384225724795 0.28421051477949116 0.24238920786833096 0.7345158364399479
Ni 1.1348006689054642 3.209120613367828 8.268952490800968 0.19729617218443443 0.42798583222765 -0.8526276876837316
Ni 3.4938132846656957 2.442554780794687 6.968931319518042 0.24725219238758706 0.6311042675208163 0.33385800260328957
Ni 4.205269141733319 6.971086342025911 6.097207984947318 0.021332185818872938 -0.2945432641640669 -0.0072512822457746085
Ni 0.7220573379151976 7.0969874052008075 11.160460949307557 0.28393694940313036 0.7824008330466848 0.3023496475823632
P 0.07757538429298204 5.477935182575378 7.742908150602303 1.1126976006612772 0.49206106544100414 1.6795697976759008
P 8.386058023589145 1.6669004143549488 7.854751377065134 0.9036923675700307 0.997563601098895 1.5402005797152378
P 1.8548295907547137 3.2775604385443557 10.50526176037658 0.023872435742223405 -1.0521560916327943 -0.5127687303020009
P 3.962202859876196 6.197303942263174 4.034076432624015 -0.12488336563966235 0.00466089581077907 -1.0550120730243506
P 7.080863170490217 3.8211090236705694 10.386311390863243 0.037207719398548826 1.1342966669882917 0.0666530212428594
P 6.253625722284238 7.475377886838793 10.091655696917783 0.30714398364721296 0.5934142091692103 0.7165340551505467
P 2.4198560544213943 8.350906649321022 6.077261140022389 -0.09576253701430604 1.1752121742557309 0.3250604589163176
P 6.818905398834764 3.982206677699991 1.7214885904533994 0.4353134762373148 -0.7264639126697489 -0.5193957487002151
Ni 5.312153090194816 2.863267987303991 0.1034492193633524 0.05545072476913677 0.11127863037203416 1.7325651189260096
Ni 1.3461520370609377 1.078153329462313 6.933221068242 -0.14011535209806836 -0.33217187315011826 -0.049987644772036495
Ni 6.909067272118325 0.8178170245951987 9.351773980643319 -0.02991375684029687 -0.9684492002314419 -0.48661726871761357
Ni 2.61383521008161 1.2296831538092863 9.107428069391048 -0.1179357306772356 2.551273013933845 1.1881713055195602
Ni 6.337077454145892 1.9700685828562583 2.5913064980731844 0.2217640754188116 0.7747525724728076 -0.5914766258268652
Ni 4.067846892343452 6.643564520089034 10.268910141600003 0.14954744404524567 0.2914489415094593 0.11324166763567595
Ni 8.210147415854763 7.333452065443388 0.20155112521892457 -1.4251745664856295 -1.1209343867487729 0.507128758407404
Ni 7.571237050008876 3.920232824378804 8.110282063129551 1.0274490758044177 -0.5366679055171014 0.4812585755088615
Ni 3.0536026861002883 8.489197057169786 12.522994051289844 1.0725485392462173 -0.7872463340644441 -1.2037331645135592
Ni 0.2609422071248874 4.810683060373357 10.329000271931726 -1.2373382541625142 -0.2033855729116239 0.16238059125417198
Ni 8.566381770156264 2.434714224712757 5.7816794103874365 0.2799977622497242 -0.21694737075645862 -0.13635614216595227
Ni 3.7804683558133663 2.7945026027053763 11.508694680811269 -0.9630419131729415 -0.16815348918220718 -0.8699445816956243
Ni 1.0210357375205916 3.3241696958064884 12.749088739607222 -0.1467775946095924 0.22409709442736245 -1.5205848623668394
Ni 3.2909897647054476 8.351675331289838 8.217147847761362 0.6049258093532356 -2.06131793909225 -1.5199012060362536
Ni 5.47702180753008 7.887120122606141 3.7255627592783807 -0.35854419249605995 1.425843567528196 -0.6981002739253913
Ni 2.985461290394007 8.363196517504809 3.941358917877071 0.7962814476835189 -0.8735089020081149 -0.8971779634902808
Ni 3.4787561613941684 3.9150329169426907 9.153673785298517 -0.9632170052982251 1.2496093582203833 0.0043305090545538326
Ni 7.269045559773828 5.906687898146778 11.390988671755688 0.511063574685436 0.442741907490902 -0.3067225798390782
Ni 0.5759969118592869 9.04106549419378 0.2708672478399031 0.836260559179618 0.827791088256026 0.48014425939876015
Ni 4.788002420634625 0.5127542811236884 1.5947962370164859 -0.5502356168992072 -1.5026141368210313 -0.11474267766123465
Ni 6.067414776167711 5.514985653472344 0.446299464090164 -0.8985789576028653 1.4418682250912263 -0.15887720608660383
Ni 8.084788951716677 8.762332368983564 11.389823892489998 -0.46743272536936276 0.3160466854534815 -0.48543713236658337
Ni 8.886216772404975 4.882785429048364 5.637541593585296 0.40190147643577234 -0.3511039341679308 -0.8050813053633361
Ni 7.8017059908946855 8.890910254073399 2.353790100030918 -0.16065898057737493 -0.07204668145460495 0.182933218594543
P 8.66281970563228 1.5192863463903008 3.674975346744689 -0.1190032527098015 0.31481024194321916 -0.6323535665468851
P 1.982910093394137 3.421864652384452 1.408197332588638 -1.2298473451021077 -0.30262912649599494 1.6347001908567202
P 4.739901016021258 1.1278463579169928 8.29019614742388 -0.5850591523362957 -1.1255528593573905 0.16332135790088645
P 8.60946413367912 1.6452235828343178 12.383780320746768 -0.23488544329211808 -0.3085110391980687 0.18765273555739942
P 6.01164463850074 7.576608780473313 1.4727620963106016 1.286077114129114 1.2356678084386266 -0.7397110074876422
P 1.7094492221582738 3.1629002187487436 5.873615582521371 -0.9429109467510213 0.46031282649512983 0.19746637921371152
P 6.883556074070889 4.000157662501181 6.001645442584025 -0.5404402280753402 0.6193427561095141 -0.7120392526039866
P 2.2725313726097123 8.31125170304736 10.129775087917267 -0.17638616150464462 0.06377544258474822 0.9180481220710706
