# total energy = -340896.57894336584 ev
CRYSTAL
PRIMVEC
9.00296320915750 0.00000000000000 0.00000000000000

0.00000000000000 9.00296320915750 0.00000000000000

0.00000000000000 0.00000000000000 13.17674669007589

PRIMCOORD
 96 1
Ni 6.476875834383956 1.9834788530926013 11.324754591748471 -0.5213513297646892 -0.15019664759347034 1.1285818759917015
Ni 4.967249947851912 0.30093485134509795 5.814845630136797 -1.4308749593045165 -0.4753614932981362 1.0825118211065163
Ni 3.071135850473477 1.5098149487610202 4.9057426029875675 -1.1218664116447388 0.30124227345079735 0.31931147224768236
Ni 3.427275072087342 4.172612396496278 4.8390153400107865 -0.9349022175139318 0.9569077752507456 0.17794322157911935
Ni 5.080750305981393 4.456998000731547 2.6701096545150436 -0.15764976143740592 0.08205418628927803 -0.08627362368726432
Ni 7.245944970011207 5.992264326698249 2.474883096576569 -0.1289621636947263 0.5923158338987089 0.06683968333236874
Ni 4.9109454154697625 4.485969536581525 11.3838923566763 0.9453671216009977 0.5081273748752475 0.2293336602359534
Ni 5.574220729539187 7.714117066739156 12.289450917180364 -0.006341111726679402 0.5066124808926179 0.8543994348721736
Ni 1.9449101583811952 6.516821982477912 0.3115484447613623 0.07070328005283308 -0.4801416882955989 0.07661810287537127
Ni 2.7946638509654083 1.5268035404791394 0.4020129207344298 -0.09130475835326857 0.37147169919100537 0.8329680044712751
Ni 0.6328272922407656 0.06377789220473187 4.834653404299377 0.08119338095087951 -0.4491645231877942 -0.3550503204101885
Ni 8.628295964588267 2.254044908685945 1.3563225274248316 -0.11839518681215738 1.129330581232268 0.4937235407450916
Ni 7.030684117875419 0.6729543998967431 4.7899716975177 0.328562301421989 0.42587829896634394 -0.9670242948594571
Ni 0.6038989706145542 7.246395118175439 2.343286782244958 -0.4722466018182383 0.3276603584330099 0.400865064751458
Ni 7.549317823813786 3.816806284523944 3.7381113824528893 1.3425981891442944 -0.042131124842095184 0.48238574713476917
Ni 7.650637172619146 3.975555536122035 12.43336778676701 0.7726023588990242 -0.8108593454976939 1.3157746411935467
Ni 7.8128075502654015 8.811542279283868 7.0195690594042 0.007408633759245306 -0.20195372556110383 -0.5383008131348342
Ni 6.74339055649921 0.7180934572132808 0.4564871506808127 0.7792558596597998 0.19602579011244303 -1.220128575152447
Ni 1.8468408793215907 6.346539934912194 9.182110550154029 -0.12643348373560162 0.57654211600422 -0.360051887389838
Ni 0.16051383240188088 4.965386334451992 1.2352551786546093 -0.43711144867800206 -0.7689696472424434 0.037841753438121926
Ni 6.433391521719136 1.9853964842722298 6.9030076937579405 -0.08216500083552947 -0.605502507792312 0.3868312123662112
Ni 3.451997209266969 4.13029846905846 0.5187093308299584 -0.9213784719958841 1.8779180652739336 -0.6820933569741737
Ni 6.033831008183442 5.692933803410475 4.692700981301444 -0.27615987656087276 -0.41542110818876204 0.44956227284684513
Ni 5.2262381926612065 2.6695856820518773 9.44552735260304 -0.18527343669194543 0.21282872060239477 -0.9242185125478406
P 0.19337644898348086 5.760059897660765 12.321562686624027 0.14337653934784342 -0.7260450799647753 -0.24505132808152633
P 4.0053193327410614 6.134160031027491 12.604889542377022 -0.9215705334020323 -0.1121674607348907 -0.4737147017233325
P 2.294585252356687 8.280646537351819 1.5037964678052371 0.6190866742346499 1.1126927155652708 -0.7045383162412512
P 6.237577070278173 7.620918390816543 5.841765390654205 0.6336972250589732 -0.3527448122054635 -0.104284201332072
P 4.776018004722833 1.017118780045706 12.639162023008996 0.24689686593069735 -0.2912190848868404 -0.5139979747234116
P 3.89749984444419 5.885552202885389 8.053245189226692 -0.10815062626601374 1.926305969659018 0.1745395952142091
P 4.87791354317841 1.05649774145273 3.726976517462444 -0.27117964973746195 0.1708760303196928 0.18266942341019507
P 0.16301305500969748 5.484488194481161 3.565193267237429 0.49091126810727714 0.03678734403167858 0.2188607857290876
Ni 1.6033647402517344 1.0273641522636285 2.581218896524132 -0.6441261337017811 0.4949491856220766 -0.07205310921250817
Ni 1.809748670588866 6.498771041092205 4.828974335059426 0.07889687160721896 -0.5455736926471636 -0.7465732818251142
Ni 5.894699213582585 5.536102182992013 9.175430351396825 0.6053955499008026 -0.6312302515757192 -0.021083303032860462
Ni 8.73784402183579 2.2273781314368355 10.177732054468667 -0.19669581959627416 0.12869116942152675 0.1425951810971286
Ni 2.0671974086764866 5.083199111994816 7.019767124596462 0.5404695386513788 0.5610674174073885 -0.2564600841391002
Ni 0.5166476522377753 8.928112647893412 9.032238220354596 0.9048398509109127 0.39745269663579935 0.9500097625793317
Ni 1.5820637291202715 1.2431291703433571 11.524251255172853 -0.404050147347659 -1.0139088752261378 -1.144430927208816
Ni 4.03237323741141 6.888005155740414 1.8149127703289365 0.3278657895755966 0.12135118411668776 -1.7830371595336325
Ni 5.331293771229694 7.7119923674039805 8.055222239963998 0.6168811819428989 0.5616397449710907 -0.6574927848166741
Ni 5.352450734948602 2.986868114129228 4.811857901262664 0.7096298718315456 -0.7944387380478254 0.01943342613426331
Ni 0.7294461939152143 7.433593733752998 6.852646017439982 -0.15694142251647164 -0.6847205101843756 0.4137385782800165
Ni 5.090788610043769 4.595238501967224 6.859023716630823 0.5986451185508465 -0.40014978385198824 -0.3650413701846294
Ni 8.012250195910074 7.217567629738015 8.928075735743946 -0.5113181138984032 0.07799261462539471 1.1574293963510132
Ni 4.731057206079331 0.24506696268225248 10.485726129325254 -1.1749121265168088 0.5217462512102627 -0.3417520606393856
Ni 7.986816824630961 7.286890447029759 4.577259584287794 0.6893934901800126 -0.1444538315724222 0.0430081281304098
Ni 7.153907676352313 6.028636298368204 7.021492992658128 0.06176586835388717 -0.302229319954415 -0.13789726140082703
Ni 2.3228005392907556 5.214075189263656 2.5047675329036094 -0.448038380003151 0.17754650036133293 0.6503482033520929
Ni 2.2937029619547924 5.428849881382074 11.28083723654966 -0.14569567439932324 -1.1288816666203076 1.076129057508624
Ni 1.340127096772089 3.2542561236830934 3.6851406473750417 -1.3236519870590946 0.3310938095945911 1.0310090252415343
Ni 3.4891614417059706 2.648563762782239 2.693484948387288 1.288854162653619 -0.20723605700596567 0.09154669916074556
Ni 0.9888584782952152 3.3538559065010873 8.360606355764366 4.010920931605995e-05 -0.2177806652910314 -1.1011227513394843
Ni 3.738993672854784 2.769311506355856 7.170535249242718 -0.2027857345440959 -0.34854440097087075 0.1623595082082494
Ni 4.017482336138613 6.71726395704718 5.976853954443928 0.31116698876367704 0.3205641137078608 -0.3438637076657497
Ni 0.7971988944101156 7.564694885103955 11.207851113497396 -0.24676188301472984 0.26207357367113576 0.2941581129105063
P 0.06768967975190879 5.538902104573536 8.164786502545434 0.47442818285058935 -0.4510018335068491 -1.4124326934389286
P 8.448371743344698 1.6420594764491254 8.08451428130691 -0.13487750073789675 -0.05336864542912745 -0.7133862535501844
P 1.8819614390949788 3.2506099235528136 10.33590601671287 -0.3091311892805708 0.2484045608244754 1.505957856482284
P 3.9936604952874504 6.056302404541908 3.7301788715027913 -0.2788353665105069 -0.12524306297192625 1.593444783751359
P 6.938601809400101 3.877027105934914 10.408812913688228 -1.1468120258464831 1.0567208281853413 -0.6007243696773783
P 6.2297895070369576 7.675422330541766 10.106947155939498 0.325687036756723 -0.7614424856274629 0.29986339082539976
P 2.541077384126899 8.390212600525912 5.864218781086102 -0.846127938892001 1.0500863535879592 -0.752545183137833
P 6.929643860931883 3.9928412256285477 1.4911202955004612 0.8159012787969755 0.05806733645637741 -0.10111377402389038
Ni 5.292824109114419 3.0137329565706 0.37150277845910673 1.423757888643761 -1.4047726057905097 -0.46214885126260413
Ni 1.3271268177890663 1.053328698376536 7.039163108696894 1.0311221537806305 0.20075096350225427 -0.13620598974133316
Ni 6.74781101147197 0.6514427194244197 9.113855484307846 -0.11276652777147031 0.20748134024755235 -0.3786167948762189
Ni 2.7006188964940385 1.5928492791352726 9.19465527919485 0.6324458691503753 -1.0731146961623326 -0.2543556362015878
Ni 6.299823558428187 2.183344638011652 2.5362995115117393 0.35313973365103696 -0.9816865248573222 -0.07085780335282636
Ni 4.212882651268481 6.7482701625994865 10.298062060545877 -1.0996600507510286 0.768808696184547 0.2340925150771775
Ni 8.05258347142527 7.400012680701285 0.05154196480457502 -0.4643304322949551 -0.15299606471547844 1.0203685148085524
Ni 7.396051376856042 3.7047644064465755 8.256549205824147 0.8862947409188736 0.480183854387444 0.2637810432805457
Ni 3.1249915768422047 8.415141805861085 12.445661333132188 0.23241178494064488 -0.48047001816929513 -0.4126348036928765
Ni 0.049365048282348604 4.753555611327652 10.227474326912644 -0.18125608800243623 0.059967124582251556 0.6729875380181636
Ni 8.76792292216978 2.253288659770035 5.704055163955993 -0.2529268741748612 1.2036236355188885 0.06277476923437575
Ni 3.709968119225098 2.5189571033365334 11.506172404600962 -0.4014718450975215 0.24208607480561528 -0.5529913252674734
Ni 1.1544589849529188 3.317582967427265 12.680062485211124 -0.3478394044840461 0.6705527033244257 -1.1830841208046396
Ni 2.959301040551655 8.109725279392892 7.945920863910475 0.2845874385029357 0.4698680742837327 0.4734907586379845
Ni 5.569215081952926 7.915774441351852 3.5299322612368 -0.03357757884512927 -0.03435379488952148 0.7110308659441303
Ni 2.9487315616554852 8.393417655455243 3.6311165655928903 1.1787384422414344 -0.7611997734890374 0.22983476824208804
Ni 3.519825534653461 4.345442282671549 9.359720109537118 -0.3235298812044041 -0.9997559807645234 0.12068321151538572
Ni 7.133524967475883 6.03838650760547 11.44557255843571 0.1076862850350855 0.33792368803223094 -1.452833980074111
Ni 0.5135929467952964 9.217503899714943 0.40889838705452386 0.3791749813725341 -0.7019597568807975 -0.10990514706327523
Ni 4.696044681865359 0.3885750977357732 1.5845827582473144 -1.2913861850468533 -0.33713950156803874 0.7606099624238384
Ni 5.856139521834464 5.558699620836465 0.42745799586581323 -0.06627815440194391 0.7845703298941777 -0.10698488809268673
Ni 7.686802076133553 8.892884052560609 11.221409576204067 0.9774784003132456 -0.5080073043576154 0.41824469368048617
Ni -0.05748932235040948 5.070189830048509 5.739395396033527 0.0341031123312961 -0.9150602430873402 -0.21243765581156318
Ni 7.751695435489252 8.863498380399538 2.482051255943801 0.698074048673146 -0.023446918169030585 0.3118401035713016
P 8.704208951004368 1.6231082387349542 3.5397878051444973 -0.8615725555818452 0.051436975624053353 0.38233563848870283
P 1.7958931100938018 3.246099438947208 1.524760768109854 -0.6334802239521606 -0.40641864757983553 0.3598166314505803
P 4.7352255780801205 1.039725220853442 8.023782091581372 -0.27670135088663955 -0.8429428562957998 0.6508228289956661
P 8.472202587159146 1.7175583265541325 12.33516076236915 -0.1196146610415553 -0.37604466327366853 0.5190440217877513
P 6.164085880985641 7.723579181151315 1.4033765150320126 1.0774292643772863 -0.7459693296925282 -0.5492583405876024
P 1.8998143152884237 3.1159165898512855 6.156821389911264 -0.9648131461407511 -0.4296115407565311 -1.1668794860203193
P 7.031926526808699 3.8343350540391423 6.025212471431054 -0.005231166491952282 1.3995884904864089 -1.2480839227147924
P 2.5043723028154132 8.455250007294165 10.140363454763104 -0.18745064684892232 0.3091653849526159 0.4886661808268422
