# total energy = -381171.2515963974 ev
CRYSTAL
PRIMVEC
9.19888021978092 0.00000000000000 0.00000000000000
0.00000000000000 9.19888021978092 0.00000000000000
0.00000000000000 0.00000000000000 13.46349103870742
PRIMCOORD
 96 1
Ni 2.449588161831105 8.084932456799324 10.972826094793739 1.0150902971287485 -0.9862234934957272 1.0217371130213047
Ni 0.616988201482403 1.7922361946505259 5.573871859257598 -1.299267644677459 0.7827882982930906 -0.5493223610563185
Ni 4.042107472078363 7.960232439067727 7.367680142505818 1.1931489612398096 0.00841007844056616 0.017993351253627075
Ni 5.524442597286591 7.540340361067101 3.7894611518514116 1.8632445224221585 -0.5752637635124287 -0.7350004893858504
Ni 8.382323049396314 5.472735692619336 13.09863023743627 -1.8404447509188238 -1.1742058444784036 -0.268010507980861
Ni 1.3813406213224806 0.9179764760604223 10.606752984316016 -0.4558429636492343 0.18149545770675193 0.9374820624259661
Ni 1.8242207005263569 7.6729330178672805 8.672453885871013 0.7612270271825471 -0.6969067678379223 -1.2145369399972825
Ni 0.9115105832850063 7.004569991286825 5.518617866449497 2.0375398628360455 -0.6149713665146956 0.018534568469077757
Ni 3.3787762328761297 8.25668474590132 2.23440060098781 -1.3787491851435545 1.4257780043975832 0.3890395328714397
Ni 3.1688485916358835 5.943893129045618 6.434458362566184 -0.8694272757395737 1.6044534761570366 0.8776285806034435
Ni 1.173215960568764 5.614987173454496 7.418221549072851 -0.41374192071412613 -0.3526213992537217 0.44463063987318263
Ni 2.905696230522886 3.041085346853193 10.346598538205875 -0.5057197938750193 0.6605459698207011 -1.727284844363677
Ni 6.863587955896264 2.048268622617739 1.8866930544965985 -0.2401073538126897 -0.5346945838408146 0.6917550484336538
Ni 2.0370091934569636 4.494903943958151 5.122064266981391 0.025259545897737143 -0.7275250069444116 -0.5623506549951863
Ni 5.152743451780495 0.6017861323393492 2.628894571216457 0.6204452451450735 0.004425125650889153 0.7212751693799578
Ni 1.2943468128474354 4.163633876198467 0.553729343269313 3.0809544608307844 -0.306672186217117 -2.271865834080268
Ni 5.089694328032165 0.8699178472143795 6.535797824453182 0.9964724249172452 0.09189174120499012 -0.40554652938752733
Ni 8.84252461970292 2.28383354251083 9.64494844433687 1.5162918914184402 1.091698629812107 -0.10273845411150695
Ni 8.613168943832315 7.607593372990655 3.7410732031001763 -0.4420595367118968 1.2501832284459824 -0.23728119721780427
Ni 3.354859144789515 2.0218126436419297 12.309777520515466 1.1458162375921168 -0.899341803910819 1.3886800711040215
Ni 7.9181751595554175 5.2810678282452175 7.979757061938434 -1.551134195908606 -0.28699656216506053 -1.29672199543747
Ni 1.8924947881336092 0.13841094842125082 0.061431040750470546 0.6892261113642131 -0.33149721568059687 -1.263835272011778
Ni 3.39884818910882 1.8020238030059712 3.8259337912954963 -0.37798430349854256 1.6339229463710634 0.15561036240987394
Ni 7.197323323504875 3.09510117040881 11.381267406928895 1.221153931093168 0.43312829566053795 -0.5748981526428938
P 7.564579409954882 2.8149584778742818 13.5057662284947 -0.31282149364796447 0.3639458231276055 -1.1855426096474615
Ni 2.784077837602448 4.28085520446298 2.279261699134273 1.1504565645776057 0.13543311613105063 0.9216124423835611
P 4.063448873755649 0.5316869869334874 0.67231854499478 -1.3356760081031642 -0.30781118491756665 -0.4180428620823252
Ni 0.9935342368780524 2.005889382304264 12.639821377566706 -0.8107755275346359 1.0975275777890583 -0.3518055882206457
P 6.64328397797844 8.28628674184852 7.351039368525553 -0.3576507341475131 1.0464940082510106 -1.2030901316129217
P 7.440182955264384 1.9623418842265583 5.54068413987341 1.8839627288061167 0.09990741242061504 0.8960096542137923
P 0.29449570505050676 4.314375923304374 8.873611314887498 1.6751305309576248 -1.0781720560805819 2.5177501995860507
Ni 0.4904438083041265 4.076051339401289 11.648140715015368 -0.03213236175817046 -0.476123054054509 -1.035847584280758
Ni 8.693843121724473 7.608577653154219 0.2395940293476821 0.224933988506361 1.8692009971159098 0.3800949220836422
Ni 4.261509959752922 7.041117141659179 9.554743306842196 -0.29859866518036315 0.3570663223989528 -0.5132533832479031
Ni 5.892581776219796 1.0662697813014619 13.187179576524947 0.5515936735889985 1.43234177365803 -1.9323115524231496
Ni 2.2645342922009384 9.077059265032279 6.642846111288854 -1.1145904468086159 1.3090185534166359 -0.1375964423309566
Ni 4.3882153333317815 5.963578732316909 11.655155780928771 0.5934255220231199 0.6362904397074461 -1.854277028816226
Ni 5.525785633771455 0.4489734173379428 8.751605649117659 0.3598955643176318 -0.4976670987738719 0.4767234066426693
Ni 8.697127121896367 3.990832914772673 1.4655950033236051 -3.3814634556599827 -2.059121445661564 0.9188924723492368
Ni 4.38252122659116 2.349513545948688 8.079292623450899 -0.3614865629538355 1.440157927268339 1.0643729454139603
Ni 8.795334365132021 1.3757201056221262 3.3164887763945576 -0.603944933497205 -1.5232410690427638 0.39477669246553304
Ni 5.74370710176065 2.4358174384212345 4.48444665713628 -1.9979854975821913 -1.8240938203646262 -0.42193834048198947
Ni 1.0885126732220138 3.1017151651527617 3.370409851485831 -0.9555486901196898 1.1436701377833915 1.304555889659592
Ni 3.527641708455241 6.539152656001332 3.8473267067009704 -2.100768945999021 -1.1877876969278962 0.8657171738778381
Ni 6.079162659935492 6.176551202848182 13.45632776764366 0.047533269694272975 -0.9525587542534305 -0.9642937833021714
Ni 8.88808667250792 1.1980437377786768 0.890638324489418 -0.5348501355820724 -0.25749649582341455 -0.27932310478020284
Ni 5.47574372639023 3.4922444180870507 12.829184922492482 -0.42127551008700986 1.0080573015413674 -0.3132069020118412
Ni 1.8801222944888027 5.662536184346693 10.279523064666963 0.24809988509986303 0.03862516857136574 -0.9586867215280391
Ni 3.6301908230666196 4.850799413567015 8.586138954742427 -2.570070606256322 1.2576872501325114 -0.0009315106753338795
Ni 7.8802573760581 1.0187759636894644 7.75666674325852 1.8583051761390126 -3.2155938774159463 -1.2018570305367688
Ni 7.602791557613266 6.264805257887791 2.108207605026806 -1.7020715783228426 0.37092251155575473 -1.0283253077617838
Ni 5.0155605538436925 4.407266213880773 3.5309082307550708 -0.7457777825070124 0.06647073002872422 -0.37010541497109806
Ni 5.373930522181517 4.2368201657435085 9.938034880966274 0.7505631197107978 -0.5238851519301365 2.5680273505740483
Ni 4.712273479145347 8.693622348603673 11.19594309022575 0.7612447677943599 0.9014326250015765 0.277314044769974
Ni 7.253215718587288 0.8741953264298703 10.498736055412836 -0.3673576770226319 -0.09372056688361279 1.4915367959609476
Ni 2.2211339762037654 3.185250194735281 7.605094957173607 -1.0879049670976295 0.44288486082666956 0.6755990074990816
P 2.6820346613929025 4.453711359168973 11.984068175735919 -0.6703855816189422 -0.499958723021526 -0.20365373897134606
Ni 6.7563014180677285 -0.0850454856839895 4.938691032733312 0.3021275042692281 1.6300086989183218 0.13814023064956854
P 2.6125831171413862 2.088587313803752 5.880933234433611 2.0600336730631876 -0.41989071392434135 -0.8216204406689398
Ni 0.2856868575306058 7.737003217299309 10.355955638975761 -1.0861622733749101 1.7444407873176733 1.1116907566633178
P 1.4505897902132643 7.233309342195198 3.3570677958855133 2.1550649883384243 -0.34843641463809666 0.29519118216071094
P 5.414893134969862 4.288987014412429 7.880127671849629 2.110417267722062 -1.1567184863269175 -2.5845654574383876
P 6.793492490042415 5.593774556097675 4.048014072947753 0.6158493982442749 -0.2623543381363482 0.14728101660857215
Ni 9.019354690583304 4.959557772200879 4.9858536906641095 -1.5598728613331845 -0.1573592267801806 1.4132400198315724
Ni 0.3764614056993429 5.441312318425538 2.84190015771585 1.2963191035720965 -0.18644483129222728 1.0741423660958986
Ni 6.744655635945554 4.115091386262671 6.004326091312474 0.5888425306381277 -0.2951158488380853 0.4505781157058692
Ni 4.2762005711661235 9.124902640085542 4.7580783823832276 -1.708558214488451 -0.9848757212185811 -0.10817376619446531
Ni 3.8221714493618713 5.143480179586948 0.12347012747114311 -0.5193381559894024 -1.187528786839555 2.6531995136670177
Ni 3.135852208956388 0.4862932736330955 9.122390425948444 -0.15386612602525757 -0.3193631514212242 -0.5217881601917918
Ni 2.0532636144758283 1.8525532510289622 1.8874197660192302 0.2258865822276174 -0.9158506001991195 -1.7829224883326389
Ni 7.0212199641471225 2.8173225900428434 8.275267403456615 -2.410762483279887 2.8969730034773846 1.1066722204028037
Ni 3.351924702058888 7.538509783940471 13.274826505482359 1.046658558853333 0.09862031817807532 -0.21462155083675938
Ni 5.809966634640608 6.33961974919873 7.687451610223859 -0.26904691966517535 0.718590166348627 0.5254103303254113
Ni 6.253315856726183 4.3453485523765405 1.5363592277558755 -0.3279256962792546 0.2698673586839417 -0.3369027029668843
Ni 1.857125094405519 6.369010170905166 1.3203189307334926 0.7349814632224568 0.7827456179806132 0.2394218977098909
Ni 7.00277620968033 8.04627876289934 9.561205520065599 -0.37596367352408805 -2.266469345655045 0.44194100885616144
Ni 7.602865148653532 3.485014098380867 3.6495618246407706 0.8762844078707231 1.0213241938536022 -0.1493893212008266
Ni 1.144460261584626 6.268392821100783 12.548551929652179 1.6015936381107385 0.8076135848668866 -1.053238783174012
Ni 6.072346289830807 8.397418411530982 0.8999604695151779 -0.1407910380088543 -1.6736768292302335 -0.6801717144714287
Ni 4.1429363961235115 3.8246183514507326 6.00622474015135 0.20445720870924788 -1.9856660567848898 -0.022354970656432466
Ni 6.938052889765936 7.733516841766683 12.039794071089727 0.6875433243451514 1.2945668967676802 -0.8583746174698378
Ni 5.100668591911908 5.778110913085244 5.538866441178827 1.8892005801662883 1.7695332115099265 -1.2239844585634276
Ni 9.051725549420533 3.390578395958871 7.056188586705761 -0.566758811365211 -0.4714673004500526 -1.175750049037072
Ni 4.770612776316621 6.618511394048727 1.775201708604836 0.06705488466696839 -2.214646961667115 0.025436180684917483
Ni 9.03145121782711 8.884011568653163 5.921539850564666 -1.0022931453640802 0.8279281280545224 0.49418736775538763
Ni 4.5143595752286085 2.594461323475758 1.2977522382357682 -1.0471388409238611 0.34746813718755637 1.2002277224634619
Ni 8.505109700080983 5.785994353273793 10.204828158796458 -0.2772965612684773 -0.5953926730518199 0.7653387353580755
Ni 8.55327503593541 7.452702630989723 7.918929467718149 1.4919258038692498 0.7427130275387596 -0.023055339157566745
P 7.329612417263956 8.758851606919901 2.457464242915628 0.9485594032860504 1.1508622846564567 0.8908214251446336
Ni 1.5909922961617275 0.06417230700039794 4.289494792590268 1.0021350225196612 -0.18815564333574694 -0.6897570441670184
P 4.60300918210965 1.632672421592671 10.282700357830468 0.11193143346468465 0.3626217049995432 1.2788641413204425
Ni 7.580889024253946 7.01984933102216 5.6346056249015435 -1.3484155671570197 -1.9491309379733335 1.6660367961864726
P 9.00113170923731 9.272379084779622 12.07619955870957 -0.2511255593000643 -0.28039988278414935 -0.05758679727553308
P 0.8778776381072058 0.48531083324553764 8.583217390443846 -0.4314131127416441 -0.5904828944550283 -0.8568982900346276
P 6.562269441525048 5.823277414048812 11.041933600932008 -0.8843530438114705 -0.1335335851154926 0.6134135351092727
Ni 0.9407510632468997 8.716904713967992 1.9579687366587208 -0.7891828889655247 -0.08462194701645426 0.7960546763846935
