# total energy = -340892.6747304728 ev
CRYSTAL
PRIMVEC
9.04367178495864 0.00000000000000 0.00000000000000
0.00000000000000 9.04367178495864 0.00000000000000
0.00000000000000 0.00000000000000 13.23632780564245
PRIMCOORD
 96 1
Ni 6.524267643480243 1.808888108206321 11.412401206764677 0.4259253501541955 0.1794043795056781 0.008871077237384723
Ni 4.49440645780594 0.40305655733721474 5.95837253992575 0.5380277619791056 -1.0249008554612673 -0.2832034136712155
Ni 2.7057128687936114 1.716696917582248 4.927077422914157 -0.38708163781412047 -0.7758578897218444 -0.5147369097719651
Ni 3.507778035957414 4.313976161147035 5.208733538354232 0.020603792293280646 0.16658845868793246 -1.2193796128015646
Ni 5.156963943336728 4.675804427350541 2.5558022514557828 -1.6593897231836003 -1.4860446624981245 0.7503972835568947
Ni 6.994511447568915 5.973734120894364 2.6281651915949356 1.5898390686779715 1.5253745704459987 -0.6802521900003768
Ni 5.068996147456763 4.560597091921851 11.359760706150048 0.09993183790064725 0.37879342966339924 0.39700378202383885
Ni 5.473456282661828 7.861618702526355 12.765670936964067 0.9297175879891988 -0.3998510216646468 -0.61961863547872
Ni 1.8855151396128125 6.5642316292922676 0.46378210056690516 -0.6196592589086682 -0.03668629967744004 0.08282294613450251
Ni 2.7789846979515707 1.6624891486396647 0.3888001130660956 0.43627892547437763 -0.502863555373147 -1.0280882520503132
Ni 0.5082823921683192 0.016649399837053037 4.347736188084416 1.234856111170609 -0.16341751715911856 2.032893622313286
Ni 8.72135536494322 2.2310919275397385 1.1758690636031723 0.8367565249794299 0.902291373457446 2.0839228209759595
Ni 6.845607390905647 0.7382421663327046 4.672026885627599 -0.3377123433523732 0.05051394958915171 -0.08737405584029467
Ni 0.824467246651235 7.547206407721908 2.5437045316502283 0.4116066195386782 -0.5796256400255502 -0.22306633917000293
Ni 7.532609921390021 3.9877166562466955 3.760401251725088 0.6681793179962427 -1.0978978166442832 0.2648506221956407
Ni 7.570837522210893 3.671586063794753 12.727827692195925 0.9246622849534785 -0.27825378297542397 -0.6842859937501183
Ni 8.074805178549632 8.993018223012331 6.639964241554878 -0.16989464024303 -0.19810221302549755 0.5345030366552987
Ni 6.994619971630863 0.851248272038234 0.5265370437550065 -0.9399721758376715 -1.4993717186243338 -0.18254575334813722
Ni 1.9715204587059 6.36984694700133 9.331518337733124 0.7343934519294707 0.48527515286742234 -0.5902702642235899
Ni 0.14003040586472668 4.765065468302042 1.305085951062052 -0.5144880269859528 0.09971817922794439 0.27107012074279124
Ni 6.744481052514595 1.9583890472102992 6.93537216437802 -1.6401789545831045 -0.038964811298971606 0.6404764527643356
Ni 3.6041564466382794 4.263096463437496 0.25889319344666883 -0.575328298201777 -0.3201257406188616 0.6709566236310639
Ni 5.7666973417147585 5.740986182705121 4.856713134249198 0.040806749603716816 -1.1323835091259788 -0.63700212106249
Ni 5.404733420433818 2.9688294569843885 9.34482067462629 0.7826039501964264 -0.8576415959585553 -0.8098468450727796
P 0.15610191507191132 5.695803998247806 12.458282862069147 -0.1461016515884903 -0.6567631057395013 0.5377981624668029
P 3.7844691755634092 6.24553263404091 12.809112214594313 1.6034648869915225 -0.3971009697233355 -0.8599861849313318
P 2.5605981106266626 8.538962591497437 1.5590937529867348 -0.9489679515783787 0.7172020277518487 -1.6122814568418877
P 6.045378089123116 7.789368808285064 5.718716140826389 1.0348014024044307 0.0933528991315489 0.877242143798302
P 4.6688498437140975 0.9483917773558272 12.389878337089515 0.37902174362412144 0.8150854677638995 1.0820996732697623
P 4.007377598802781 6.217415858324779 8.300964801811501 0.216024344721557 0.26325011047774016 0.2046986352960926
P 4.560027340596628 1.0349578041023082 3.8432738428966355 0.29853464471164715 -0.2713701684817133 -1.029763325759891
P 0.2076834017153745 5.660850206629006 3.4391419929789615 -1.2498615834405056 -0.22086958862900025 -0.04531697876924454
Ni 1.6994415917326569 1.4527302242395517 2.4976550590645195 -1.0912641133778498 -1.6174208349509822 1.0585607096075575
Ni 1.7491094374171192 6.356923539957794 4.779876289656274 1.70468510468629 0.27877828802032634 -1.294264535035913
Ni 6.12594816144702 5.681822481600285 9.100782616525816 -0.6927755192783681 -0.2157970592020993 1.3716611679485216
Ni 8.622417595134767 2.4800370819745883 10.119808183967105 0.45537913663893836 -0.600827728024462 0.9328214237255031
Ni 2.4085739871824137 5.258587683678371 7.092302479789461 -1.3012039424682236 -0.19689456587064155 0.6432128778588923
Ni 0.6825069212182157 8.710077906172549 8.903468688929488 0.43578115990235267 0.6154871298088497 -0.16126164715838032
Ni 1.3878509225388354 1.0254619486819359 11.377602966301335 0.48317970379097425 0.04823698062951692 -0.2032919847565531
Ni 4.321952679700148 6.831137515979365 1.7272346039973128 -0.24694674533202632 0.29460805596373135 -1.2124900847705828
Ni 5.641243526103895 7.9441783826526216 8.077085088217704 -0.5436281388850185 0.31207870194466897 -0.49164094718445006
Ni 5.2841541439387445 2.6887198094270595 5.077150826344906 -0.08197371076032979 0.833847578862751 0.14327832320708228
Ni 0.4625991882916816 7.1622986910109825 6.418758741720894 -0.10595156173216591 0.822348577084216 2.393727896395103
Ni 5.010058538147651 4.592792563632829 7.290410441772368 0.44928562214669077 -0.6701420981495685 -1.0201574272390108
Ni 7.8885236262174105 7.2844063480451435 9.040491169543914 0.9180144406196578 -1.0289845386123375 -0.2179344172600763
Ni 4.822972099022657 0.5364317251030346 10.172051667388446 -0.5743538501036496 -0.9507132164042594 -0.2953063675823366
Ni 7.923405068461578 7.172020638227079 4.567843786158369 -0.18055880482509548 0.31809096957701993 0.18382899093593505
Ni 7.032458694563091 6.122602002870318 6.7946435870481 0.9149355445840178 0.02242567599336783 1.0566624641435802
Ni 2.2017904308140177 5.3007492817448245 2.535907982166511 1.2147688535024306 0.08732700465244314 -0.25629013422013924
Ni 2.3067603297323633 5.231239620067698 11.42599565425792 0.2945095827126541 -0.02067989694685471 1.1093888480030183
Ni 1.0859279385301361 3.5746107707731776 3.843499030325176 0.04569313116174066 -0.7272573551053217 0.0036321974359485834
Ni 3.5789607769228913 2.842950588797566 2.9626472029221347 0.5790566548959576 0.8140678251326625 0.08612269993169684
Ni 1.1278815321445246 3.549686411212657 8.31903224939133 0.44052278835239617 -0.6081502298278042 0.07650883099101662
Ni 3.587072950553438 2.6036550322041796 7.176313669244269 -0.27460744447208835 0.6625226339310977 0.13611008759341722
Ni 3.8279421060450574 6.778738481402567 5.9573795447589335 0.9326224203408195 1.4658224219139788 0.31729495603828584
Ni 0.9837254031914416 7.367436299106515 11.388072825177684 -0.15033523005386368 0.49313912899653134 -0.3117269750322051
P 0.2796809775126385 5.716242696581179 8.150586626640118 -0.7025619092411706 -0.06432771554379245 -0.642108846161436
P 8.558062826400128 1.7101583428499343 8.085424258011157 1.1056594628675733 -0.6551695360001363 -0.4400800443880227
P 1.833278891128935 3.248070912046141 10.584164557695146 -0.927940441484118 -1.1181305987513903 -1.1865522818588985
P 3.883678255526729 6.035782753312626 3.7445178508919446 -0.17503993188939532 -0.19562572646054696 0.8199862474996265
P 7.02951045754686 3.9906558495910964 10.482073259519948 -0.7044570693813544 -0.2013492592078855 -0.6208535363270856
P 6.270782565787273 7.846045499636944 10.466070482218663 0.20702985453243056 -1.0937251733238327 -0.10046559891693019
P 2.1843813625433346 8.495001302737027 5.838703056816668 0.03528967644022954 -0.2197640142696473 -0.6785280082204186
P 7.029528544890518 3.8492670842176646 1.6188425796589012 0.407253484776305 0.012666282613758831 -0.08439003351130626
Ni 5.466456480666238 2.7368411872287752 0.38208518673311787 -1.2041381132614615 -0.04751064398645366 -1.1300425196976278
Ni 1.3842967595100675 1.2385037259559493 6.894366347571302 -0.5485813691252359 -0.15685760455341372 0.908741499958164
Ni 7.215602092770673 0.4828235516027091 9.304225440520606 -0.3841549510856287 0.8362286775004178 -0.05238519846993559
Ni 2.6398297195198843 1.3774145252482546 9.213927090410328 0.05556925262487204 0.9155068437064555 0.35146054617640116
Ni 5.914742249554279 2.226977056857577 2.5795219939286906 1.202689296630077 -0.548589596655352 1.1088985386301613
Ni 4.196236597606245 6.8099391492123615 10.63302028164937 0.44517751351558815 0.556787559085112 -0.528001230981039
Ni 8.133236342236323 7.187584797444661 0.6559022474318806 -0.25512799559123805 -1.558058433832265 -0.2315790046267044
Ni 7.776318789835924 3.8988083184965223 8.083001458328187 -0.5170295624608837 0.7822581368212335 0.23136560306431767
Ni 3.1612064441293057 8.340345470790561 12.492234614849302 -0.877953825153346 0.8661861430944566 -0.11665634974417974
Ni 0.0933225539698718 4.8386176512866985 10.366467098163602 -0.09520229363546186 0.6135500606871369 -0.22493630249920618
Ni 8.620391812645089 2.3327880172560125 5.5373778595158605 0.7820946146601756 0.579717171298092 -0.06679366058578175
Ni 3.751396467685026 2.697211817274421 11.368086310435757 -0.2065158910104895 -1.3541018189085197 0.7082707867004899
Ni 1.037661861979157 3.350969810115663 12.610685915363026 0.11688157838110838 0.08048401358868075 0.08043567684924857
Ni 3.1476499800577455 8.550665102844068 7.809698078189307 -0.03858300247952065 -0.9155145570159395 0.7311867720667149
Ni 5.556757543878066 7.971770625402676 3.525866283982449 0.08031457789035201 0.3762467519821456 0.8032848755845455
Ni 3.1836799686241872 8.156912675084453 3.5534241607795525 -0.9177478172218323 0.883312518362098 1.6114738733389278
Ni 3.446290111192545 4.157014192884193 9.514245727036576 -0.14618649799281275 1.126617296066163 -1.7723693954071411
Ni 7.080136932445189 5.833186417001023 11.658147614473638 0.8475800979574951 1.8704004167406498 -0.7140578256959121
Ni 0.6035565705188732 8.784416888606321 0.23105496282286836 1.5097309503714706 1.3004706638466248 0.7189614336451166
Ni 4.655890261983246 0.42430104683054515 1.461873376458596 -0.13752239455991153 -0.5675795074942934 0.27218803639731837
Ni 6.000512433179814 5.261119911790471 0.4272474751124093 -1.0574790465076047 1.3870132249245595 -0.7076064136436137
Ni 7.940289603766184 8.419197245466968 11.760318496960931 -0.7808118912930101 0.520649161491342 -0.6077951604812306
Ni 8.995957416356733 5.060051956017956 5.584552364877087 -0.48810670877894646 -1.8082272856460149 0.7700770213740091
Ni 7.935623069102458 8.788206187102642 2.6876499430496974 -0.6697371494016658 0.7966401165745183 -0.8899757893148866
P 8.624995041606011 1.6910400206035847 3.428817737219059 -0.2895779497389916 0.7929755232387375 -0.18154636554934542
P 2.0292552596617646 3.3578520443774758 1.5758643380262956 -0.9823861220275081 0.21280583778425932 -1.2233185428446545
P 4.909321077645243 1.121207302334777 7.965781001550377 0.29957414171975505 0.0010081295495401991 1.4431818016963274
P 8.637683313181993 1.4310796738811025 12.463154688083389 -0.6351876935615706 0.28747298758084683 -1.505756281994439
P 6.362304524696005 7.919588638949771 1.5405894960575692 -0.5544923352930321 -0.38556263006643277 -0.5795243385609955
P 1.7181077303875605 3.325665616338328 6.072297482689098 -0.5266259479000672 0.3107157601588713 -0.13861434207250967
P 6.977391776796759 3.9448225207620986 5.900675722391567 -0.5987178807703107 0.7625058938949706 0.6398449898279238
P 2.547973144753482 8.388005621329002 10.19349421329483 -0.31521493358080555 0.8472031742340507 -0.15645548401898862
