# total energy = -381174.4658909115 ev
CRYSTAL
PRIMVEC
9.16533368699338 0.00000000000000 0.00000000000000
0.00000000000000 9.16533368699338 0.00000000000000
0.00000000000000 0.00000000000000 13.41439229703690
PRIMCOORD
 96 1
Ni 1.316288593747801 9.207677745174047 6.584333715051868 -0.9326321905328325 0.7456363718331417 -0.838194542977537
Ni 3.218636133225992 3.9348794817081205 3.0809774006767277 -0.5232567743175183 -0.9903051197642688 0.43563049325710135
Ni 5.424548696890352 3.3979650563631734 9.734824674179052 1.2985649621834796 0.21213915073453787 -0.4158669374769289
Ni 2.896877921243272 1.5030047760104333 5.364939198254984 0.2758400313276088 -0.577698083985534 0.1555121462691128
Ni 1.0936717985889028 9.115648627458599 10.830740146507297 0.24295639322571058 -0.5164778037224718 -1.5152567652857065
Ni 0.18785176713315757 1.6657261141162045 0.49463840618607136 1.6314739706099384 0.584734164896709 -0.27960772590015714
Ni 4.374192266324874 2.7139470218823902 1.486086486159727 -0.7552558972007767 -1.150165258589432 -0.1060711180291657
Ni 1.8824495995757669 0.058596729239136426 12.93677348396868 1.0905791714956832 -0.5408114953718299 2.0912972590631593
Ni 2.5851374192160326 4.284335332744329 11.92059275045901 -1.2268476390438356 -0.18143066590708753 -0.32858518424012445
Ni 8.795246884893455 7.374840098012752 10.856093293148517 0.9095477979095433 -2.3018448969408616 0.3039398748876185
Ni 4.927677615365621 5.791601989019446 10.307700203624023 -0.20317679933492747 0.8774416614036179 0.26331850182183036
Ni 8.402805617854314 2.581718749670384 2.9297842195535764 0.9102931607160001 -0.29988190276816096 -0.23302910680966962
Ni 4.5542085895047455 8.319841015368484 8.734687857665785 0.43987281347322316 -0.6560501388328766 0.38119561134698865
Ni 1.6214575513669158 3.83390499810379 1.0243085516144474 -0.7008698662507284 -1.6190051487189665 0.20341822592177228
Ni 5.827328460571563 6.575201376351373 12.4065020926363 1.3302247551806057 -0.036092374847183 0.3515780455908719
Ni 7.1289433547413905 0.9027973043346861 3.880059786570223 -1.401448169402967 0.8056158377105674 0.3691489645950997
Ni 8.724023075136785 3.4298237570084176 7.378130452883766 -1.3800465637987391 -0.8733962876896507 1.0349271293490176
Ni 3.2952949859868723 4.330473623609738 9.531086633792615 -1.049619955474502 -0.8178666300534623 -0.13345336669686048
Ni 1.0969804841277213 3.356299448442207 9.56727870430698 -0.9524705654149985 0.16873353005539327 0.6649093889957194
Ni 0.7113123988425599 8.494083178189753 2.0510743292481672 1.0258051124430914 0.8024364115413213 0.32531731212213005
Ni 2.528963087727339 1.4330457823323128 9.234306706294499 0.7361783117440354 1.2444355273289278 -0.6995092384577759
Ni 6.8926243853981894 6.81726701005147 9.253999342717504 -0.22653167201078403 0.6326340739017814 -0.19071800474628442
Ni 0.23061538205564872 3.4120613399052866 12.383174484787542 -0.7920692093743842 1.8539569264726459 -0.5086747627382853
Ni 7.284240772386102 5.478230057557554 2.582082613426315 0.8603070586058604 1.1688309533197354 0.19883163499235434
P 8.808389973709705 8.044789344953129 8.77058480442849 0.6913542134508093 -0.9653818741600276 -0.626818752771585
Ni 9.069235376576115 5.61982530101796 8.907237183315255 0.9327692303313291 -0.6051962894058028 1.328305426670706
P 2.09568109281846 6.006446581028987 4.8323737238467945 -1.8829486857193054 0.6446138719714769 -1.8754485206875182
Ni 0.5965514199820224 2.9310737820336645 5.0386606435915295 -0.20679871235823094 -3.4236213199749552 -0.08841303862777032
P 3.9219655262394357 2.654647311532929 11.00679062970754 0.32123105786789835 -0.7914786269782369 0.432710491396829
P 4.777659430048776 1.0906197423993556 7.758630206381282 -0.8991939654790448 -0.4853294031441255 0.23968723555613558
P 1.725108312470789 2.12367202255683 7.199195639104393 -0.44731795689735865 0.8598218914393256 0.3624944353930596
Ni 7.5237767739290975 0.010510804919437794 10.3557503831415 0.48917603058372533 0.8152574745653896 0.7499283143402762
Ni 6.849189868034031 2.3088759247255433 11.700610072263704 -0.06122542246938487 0.45840661061135246 0.7800199915193341
Ni 3.642138716860856 0.13927458091628256 10.866570186332515 -1.476721842435302 -1.2543126772333237 1.3251820505503757
Ni 5.597480216963558 5.165646344811281 7.017458066217623 1.4273044683444387 0.5037706405684486 1.1371649896750222
Ni 5.151458407930142 7.034384604868842 5.1015604970979105 0.4487580317779949 0.2700275384108898 0.6870121344320297
Ni 1.4820344920414121 4.536473668403323 7.355862357634144 2.5817704111917537 -0.5563630699531839 1.1869718858948204
Ni 4.064266500410339 7.808158754257241 0.14583970959067502 -0.40326878909694414 -0.07187467465311492 0.14500584742115027
Ni 1.8042326400514541 6.983462009706306 12.724262385970729 -0.3724428048550231 -1.2167421751787175 0.10166013344566363
Ni 1.2157907075064027 6.886978539714222 7.019295715665083 0.2489385789510745 -0.11427088023113868 -0.5248688559996444
Ni 0.0757954783072608 4.947850515285121 5.649806941279963 -0.4958734972085589 1.6396750183634923 -1.264538725836706
Ni 2.66996258448408 6.640165263052607 2.602767855510967 -0.28809185211176835 0.857029159185537 1.8258090032835201
Ni 7.9528152192410975 8.121420701712301 5.681974513677724 -0.08625254064134177 0.47079624252495694 -0.7345235497494318
Ni 7.9169329370126365 0.4674164479621246 1.558510954657632 -1.3976858741470575 -1.2428293591840724 1.5452576825231712
Ni 8.669498503750548 5.923252845195592 12.767161647834978 -0.1880402008038052 0.10313928909435141 1.039606537102558
Ni 4.454636401987504 1.0229704128646762 13.03806508812604 -0.9997827202374009 0.971520640067914 -0.8708956327549839
Ni 4.981294818695505 3.5515760525698155 12.83089371365971 -0.3884687479696342 0.35460629089423445 -1.967183167489354
Ni 5.422917267455699 0.32377000277432844 1.6114169280766784 0.7684721387807345 0.41847840695784705 0.47541908600894894
Ni 3.667270062421632 8.457357685242258 6.596393461400836 0.13476437219880016 0.31489791656101895 -0.7263489843584394
Ni 5.930768418995678 3.289795785645346 2.98509151045509 1.2837893465362018 -0.2260310782252817 1.0454056602828383
Ni 7.042780050723572 0.060360139481985944 8.053746625776085 0.7598759124712913 2.8834795969766405 0.9543896368145822
Ni 3.596687826038139 5.784526351246682 6.21384158964254 -0.3071442407575291 0.6092244367285895 1.6056066159248734
Ni 2.030616387444298 1.9484674996757936 11.704915946131118 0.40210073693077203 0.6659519713276207 -0.12956971537173814
Ni 9.226649986352314 9.258453694994142 4.1727208130125355 0.529304523173495 0.5438621092726956 0.08710177601551451
Ni 6.941768905783632 5.775086057327061 4.714864061348884 0.6898192648635217 -0.4719833208545226 1.723526148652193
Ni 5.267647345812697 3.763836020418839 5.293038070322915 -1.5277885792041301 -0.8092619191035869 -0.6565273355796113
P 7.18524600090472 4.34694372863261 12.796512713124486 -1.4234683824278 -0.950428595284305 0.5905356020698346
Ni 3.9432016048916307 3.162718431086569 7.497210137079182 -0.9256526738912059 -0.4689820721343536 -0.38854870927795016
P 5.500162701586342 8.042965443506523 10.650812727066281 0.9148584114891792 -0.6724105824687711 1.233702971402772
Ni 9.132952777866603 6.617783517662594 3.9591511189488386 0.3897596988669158 1.6710391344970705 -0.2133552825298261
P 9.014142554487922 1.499494453125759 11.557277081495373 -1.6758764079847137 -0.49746758116855616 -0.2661847676260319
P 2.626509736452118 1.7393970680248558 0.7062302211935991 -1.233846438959172 0.17708524445419824 0.6581491874537504
P 6.865687469058612 7.5211096617634565 0.7744331368959922 0.135969705360811 0.587823345344994 0.3741291914185105
Ni 5.684715865047974 4.817785261874115 1.172070231724486 0.2953505905567107 0.5801462884157105 -0.536156770208638
Ni 3.109504502448397 9.141577357068897 2.08415385236923 0.37217361035403645 -0.9278219136283827 -0.7500082756485922
Ni 2.6290210379414147 3.8194421012055755 5.354824335760136 0.8538597603186198 0.638565608894868 -0.37090554227489025
Ni 7.034732887557139 8.000126672846031 2.9989219993140295 2.025776037431898 -1.0013433798563012 1.2299345054992754
Ni 1.721854618935386 1.504141277414349 3.0204110411819345 -0.6056189787655183 1.3209970659347507 0.1097789058980561
Ni 6.812858484444346 2.134074676536218 0.5773555446565336 -0.7231407618337868 1.4506963649058178 0.7852565573279251
Ni 4.788850302743782 5.480503060365385 3.495629937895295 0.21034657761048933 -1.002458724407667 0.19226452329779792
Ni 0.11234774644399768 0.98083737291468 8.60649966463802 0.8980074013701115 0.10998896502633317 -0.44121004422740784
Ni 3.330993961537282 5.2062212779978445 1.0767397607373426 1.284627269056465 0.6428701498074928 -1.3048415392208108
Ni 2.603009820325994 6.97652385194208 10.463158931145417 0.08529094805902085 -1.2866898080124485 0.5916967122574712
Ni 5.496643213367765 1.0312650400464787 10.086456375483726 0.34647980513235815 1.5061787142438383 -1.1484331063896738
Ni 8.05127840135613 6.2662196398288 7.029812019784862 -1.3298570874285418 -0.3241849982898997 -0.24661173059011074
Ni 8.772993454178078 8.412795831808088 13.197092796669088 0.31294799192349976 -0.8454249992877054 -0.3653689287273772
Ni 2.32222981622155 8.432822086385146 4.431256551735505 -1.3927868941835433 -0.9554970109461481 -0.0939103142969157
Ni 2.2432338033155204 8.321811562157531 8.664718782120373 -1.148163911888687 0.08351740109836583 -0.36410985950929553
Ni 6.309745810531982 2.539613205722095 7.436134185019407 0.2636424608201524 1.6558346588424901 0.9170057968494851
Ni 8.337126835108682 4.08217556285591 1.2207326555466549 0.6672223533996122 -0.14192360895140074 -1.0628626794170213
Ni 0.5863247404135634 6.380621337600358 1.4683121541225228 -0.5736848490610829 -1.5225748962136745 -0.1204261011992571
Ni 5.130268155947459 7.281555329552656 2.2764086459091697 -1.434649081634968 -0.5085850312379563 -1.0858565692090332
Ni 5.749129831715055 0.9572091421139208 5.7844603608425835 -1.140234115518649 -0.3581590412424993 -0.005049389498449368
Ni 4.508858517354957 8.881556834253715 4.182111614129082 0.6167886222290926 0.9603867349382815 -1.6104094366301556
Ni 7.818066480205891 2.4400135222031465 9.724763887154229 0.25566818436542416 0.9543017050864662 -1.5145286288704305
Ni 6.211264297749144 7.624925398877576 7.113101991624234 -2.588053158876672 -2.289067028449903 -2.224636725889975
Ni 0.8733555022395431 4.540818036673128 3.3288355254032327 -0.06113132009368181 -0.15244173487390522 -0.6731834560790535
Ni 6.559079554016797 0.07265451837885885 12.601400168473733 -0.413849392826268 -1.1962671951538173 0.056484822460605946
P 4.427470352300364 1.855998445933024 3.860353402146362 0.4847388207479781 1.0700599684964087 -0.5293921977912946
Ni 7.4439925423074484 3.2753787154166436 4.975868024491809 0.3685959203051071 0.742771905801153 0.0875378351116686
P 0.6454640574197306 5.240948728154584 11.078141837605457 0.6129738764686927 0.33130798248792614 -1.1667799843279776
Ni 7.929104500435216 1.457865506540403 6.290626007477885 2.389733944744362 -1.7279222208373595 -0.7263438421521169
P 2.8680346154519647 6.0072989570819235 8.385229257029406 -0.18021581966337993 1.5852195676280894 -0.64419992436251
P 3.75069293160259 5.856510883717265 12.469053663454384 1.1865085731051568 1.7090145852995793 -0.32250246838115426
P 6.937818646871635 4.477879688764357 8.564808393782126 1.362504698260234 0.27157354274177103 0.22019004606347242
Ni 7.4957216868534084 5.0028333533664835 10.72091653302006 -0.37139688008901195 -0.9051802649694669 0.28596220736327527
