# total energy = -340890.60796668346 ev
CRYSTAL
PRIMVEC
9.09085354882218 0.00000000000000 0.00000000000000
0.00000000000000 9.09085354882218 0.00000000000000
0.00000000000000 0.00000000000000 13.30538308626094
PRIMCOORD
 96 1
Ni 6.505378235756627 2.206486451142362 11.042376740102576 0.05368951910365592 -0.6093928439856537 0.5646582200824404
Ni 4.610980777332957 0.6391415299178662 5.941811696318466 0.0994618402427642 -0.12569352024578354 -0.1391337049110894
Ni 2.493921049796006 1.6088446663966725 4.607308072612352 3.10096484251444 1.2884474141335034 0.2013924537409951
Ni 3.54543277484095 4.527054019955183 4.916791626784199 1.0794362675049862 0.2851929332974185 -0.7637505649353491
Ni 3.7304225480082285 2.9275002055992476 2.5956540614714227 -0.36473335202590734 -0.2211524099767417 -0.19350739456596353
Ni 5.426293952747343 4.66224409891585 2.86036425420899 -0.27492677548472005 0.6847387650168207 -0.5306988324178603
Ni 5.078196090230843 4.62177162016305 11.807449314926812 0.9242899892157244 0.02609258332199377 -0.9227252158317657
Ni 5.661765234116395 7.9234968005733935 12.31837617759718 -0.13357652253828609 0.5283437019221223 -0.40272191545453867
Ni 1.7633982628199316 6.328352050052838 0.36122414555135296 1.6036183818502512 1.4782084542831573 0.010313209000549979
Ni 2.9184457157435 1.4593183118310726 0.14490092842242275 -0.7065010963945768 0.9931402752202186 -0.04137342074046423
Ni 8.239149407773464 -0.048993335521667514 6.606015799613151 -0.5975544565898289 0.7753243858158776 0.06420481681268297
Ni 8.6845103094131 2.297467710656742 1.2056980509961426 0.7800444169993662 0.5970222382354428 0.6668328312706774
Ni 6.7783129234464985 0.8177286151279124 4.590397267361688 -0.00786526168068968 0.1491167842657303 0.16141925578216715
Ni 1.1745291514786562 7.673816515545171 2.5558970328708797 -1.146042237559994 -1.2535125499295314 -0.1994425291034759
Ni 8.023350732878145 4.180174331776706 3.4561660502530698 0.8789832948591249 0.3914437714375581 1.291901434120375
Ni 7.484617677314428 3.867830795166487 12.679443960472309 0.335708425548467 0.3534163843511913 -0.20350487209830756
Ni 8.463666210953585 7.086738302297854 9.149366545887727 -0.7086613372706893 0.598294420079647 0.21530057918165502
Ni 6.758731225505454 0.8565911037668037 0.38406218713329004 -0.3370086324171293 -0.5321875011482448 -0.2610325340011311
Ni 1.8119616009819837 6.687368027345194 9.29822744999405 0.06825610406392116 -0.8373823314888869 -1.4104262045318612
Ni 0.32281074506394164 4.79585236940774 1.4582828636437537 -0.21271096407760784 -0.6554418158249163 -0.555329743592663
Ni 6.369360889148497 2.2160773013409703 6.886506804540067 0.969215646083821 -0.6811387063703883 -0.6769642632777245
Ni 3.2987615622447084 4.12993827661319 0.2735146841284223 0.3843678384273832 0.7365621774460154 -0.1616930782688441
Ni 6.605413985126755 5.938627170418398 4.638908787660108 -0.9141323319564322 0.2422143728533635 0.11561633851543959
Ni 5.31440373071467 3.2880161736809597 8.798769607807628 1.500671925492996 -0.7286758327194032 1.4013332410916575
P 0.15410087193047156 5.734892057810807 12.39826205069696 -0.2622126703521613 -1.3462990350346489 -0.3245884043759055
P 3.9520393689955937 6.206261890652545 12.684753018781302 -0.23149441533269807 0.5385854342547886 0.14245659863673532
P 2.3469401341456764 8.563611051791025 1.0339391056763092 0.9693380305942982 0.07751156122391813 -0.40154614997888266
P 6.524923570284596 8.011696258987515 5.52977059007972 0.34841378893027736 -0.46456903066832245 1.0389349649568302
P 4.871442814338002 1.1497474854678449 12.34124785533621 0.09062830111153425 -0.29471398541397636 1.3057709930136157
P 4.25042844583817 6.397933440972408 7.953359344476151 -0.35729412213904277 -0.9950470053246283 1.2047988867739123
P 4.807779568896436 1.2746012642618592 3.551805462982395 -0.6661463467266141 -1.8745131533574426 -0.8878682560535806
P 0.5344821725752151 5.805491624296486 3.4098372438244944 -0.45288413813122647 -0.7727476262276369 0.9707385104862507
Ni 0.8819854932879336 0.18760702982337232 4.644190573409294 -1.514509859817353 -1.5969944487758303 0.4613752063213732
Ni 1.963878849957284 6.706140639345313 4.829122165115652 0.9234618368874742 0.5509154165750513 -0.2469727134739553
Ni 6.12297149300359 5.8089097851255636 9.073991554179935 0.3000883623520122 0.1672741719010474 0.9358692094128913
Ni 8.69176481032162 2.337740190637628 9.974886022267022 0.6452432780253596 0.7685392445732441 0.8668859973749587
Ni 2.440375924042639 5.49767533261414 6.880532295771797 -0.30262295584840787 -0.2635473300031848 0.696416201354749
Ni 0.4748979929953689 0.13352099830051017 8.799926873428749 0.48730118215851564 -0.404698065344303 0.6163294232044869
Ni 1.6475262470555143 1.1609201441352284 11.326166815680748 -0.5516384107840048 0.2746719791614366 -0.008954123869494256
Ni 4.306373556854506 6.884003183549833 1.7090495056376005 -0.4897195617920211 0.3918104107483575 -1.7029233848001768
Ni 5.900827402526632 7.969114702276348 7.845385462031686 -0.8321028282575024 0.7516599523194023 0.11808665443280308
Ni 5.448575634109227 2.915773004882466 4.578222796664081 -0.33457302639244313 1.5963311041602184 1.7532640420362577
Ni 0.9269124901424567 7.567998983496073 6.873760519171851 -0.025432838250807815 -0.3989030559290807 0.3160420574677912
Ni 5.6133018953402996 4.988996637957152 6.851194294102652 -1.7617682228525269 -0.5882851154727611 -0.7340358114797358
Ni 0.9457305564089202 7.519572008133053 11.377180138798748 -0.5389813841416266 -0.03431497123178606 0.9052368292390153
Ni 4.898542647932364 0.2897445844692519 10.32900839324477 -0.7879860404439462 -0.3688311762443648 -0.7864215241703036
Ni 8.448057215891016 7.530826484479856 4.416002883679223 0.15933254845646755 0.26634134780855423 1.555533353417566
Ni 7.528826496760715 6.505150964424906 6.932476522264525 1.1081182088207109 -0.2434256195526453 -0.514966509284268
Ni 2.592765897387918 5.520975189542134 2.71139789620475 -0.8756686286635952 -1.3813120607747242 -1.3305515423924053
Ni 2.3783126687763847 5.303194708634211 11.388210071069812 -0.3090036625637711 -0.5181551914248947 0.21836790525306907
Ni 1.4816999925789147 3.525523806182228 3.618212327940493 -0.9719872952916871 0.3278413640955644 -0.2716792150816999
Ni 1.3686006870614884 0.8877490942603674 2.457171275456789 -0.22083847828074868 2.459050371751997 -0.8390926293117743
Ni 1.3467099123901627 3.3445976444261136 8.313003499729382 -0.8129563372360388 0.9501172346914734 -0.38523327175147204
Ni 3.7037136211044266 2.7012288677382443 7.210506633211572 0.5603289965794672 0.5982815645638406 -1.1041540819666402
Ni 4.436345486038868 7.203264859497627 5.94230351148031 -0.07987337658787534 -0.5199948157367947 -1.27639973894035
Ni 0.39777301203332877 9.188761758528171 0.11091204622094751 1.7133044709241851 1.1325604010234753 -0.24539277058134512
P 0.3627732269483604 5.530720584246312 7.8916351780368235 0.14348452568061743 0.42628530459677544 -0.184480765587321
P 8.685719392897855 1.8872429569011067 7.865064432102708 -0.5920744073118642 -0.05895102461291137 -0.9843165062810016
P 1.9493698481402426 3.257852722535005 10.630534723550415 0.2855076363243599 -0.1473373237678043 -1.912722060326996
P 4.094793037875921 6.440714996455489 3.769840487781845 1.3143641339992655 -0.05663728887807021 1.511964981908312
P 6.996111586060958 4.149919972098063 10.319522087858754 -0.08855059264689912 0.6562301160541666 -0.5784303341658683
P 6.545377990139448 7.950996631711583 10.1150442525391 0.416572705294702 -1.005489797924507 0.17137893809804033
P 2.683647157516341 8.625910669242268 5.8393595981494855 -1.1552588710622556 0.41812822270727984 -1.000210808913755
P 7.174419582075652 4.454890826707267 1.4598137633342234 -0.6706622323190966 -0.6986481760090614 0.26634726134582515
Ni 5.312812831392626 2.724655996612001 0.6582677761101429 -0.5213456733377343 0.9025798512321422 -0.9422494019076224
Ni 1.6072537670746287 1.227928823579722 6.875170510513845 -0.09196578897603518 0.1503249456412185 0.027166018891830634
Ni 7.077556540496343 0.6947775519230627 8.95148867004124 -0.34474045384374824 0.4231261901425036 0.11077777947621567
Ni 2.7282377927999173 1.5777357665107605 9.01370465164241 0.9304714354360878 -1.0221798569856784 1.734507330254045
Ni 6.71543149138605 2.4964210344449325 2.5624306291151826 -0.9264923961836818 -1.4709425167493635 -0.27967688857519574
Ni 4.021529851382477 6.704622466849419 10.273844186524226 0.7492058343519549 0.9484388185477859 0.21611998975915683
Ni 8.230522188021352 7.410718131092167 13.436307494794796 -1.0860234338042005 -1.2298527444187466 -0.3493440140540306
Ni 7.547135475244124 4.07224772176924 7.828195567585669 2.097876969163206 -0.07299618985206782 0.688242150184389
Ni 3.2420255469939843 8.468084365642232 12.203377792831896 -0.2210122848544516 -0.8081907975265953 0.12824971100873397
Ni 0.1991696860959882 4.951596867609215 10.092625299292855 -0.4870163039282451 -0.9281520432742918 0.65383770456259
Ni 8.962190422509298 2.394167116877212 5.509905257516688 -0.2665526924884119 0.6946112869355263 0.4840327958198889
Ni 4.11456564373561 2.708947002163475 11.081521045192801 -1.794566757439787 -0.3202080159200227 -0.6986070383584807
Ni 0.9696758639189998 3.308906954492715 12.536996653347142 -0.7271807362311153 0.5367116142708434 0.6211145032979561
Ni 3.123680819140447 8.305085366532238 7.934039463109247 0.8947151037720849 0.583518290211737 0.6772763952015046
Ni 5.850691346749074 7.982560074260936 3.3056024293294977 -1.1039589352366987 0.4289096295935001 1.346870334157087
Ni 3.1496988411958187 8.586238185577125 3.373393831240437 1.5917982492868714 0.12327591194322642 0.5765022639052201
Ni 3.4646969069605333 4.571735563771448 8.937637846000861 -0.6468484177289505 0.38613444340950276 1.0195323920605024
Ni 7.295818836627513 6.25442523127077 11.37729922897657 0.38059603008977677 -0.6966853958557356 -0.4534788342924319
Ni 8.101313890511571 -0.2609911246652918 2.108437053211472 0.10700468558702862 1.9945900987473968 0.9502018239854796
Ni 4.631244289269163 0.3823912883024803 1.3703615853396596 -0.4284368037221396 -0.40046834353367156 0.9735045032671623
Ni 6.062371865113616 5.90408192799687 0.2705819748639 0.2926840994681411 -0.08022716038286828 0.6640403561272047
Ni 8.300467213071675 9.117034926237158 11.101718193900144 -0.5869429996225698 -0.11066953603312554 -0.100711139268833
Ni 9.360033434112795 5.044550842282929 5.620859121662672 -0.5769082410943871 -0.5070395411277074 -0.0278869562182552
Ni 7.742043369327688 6.636950155116301 2.475679343626786 -0.5504374484973682 -2.792455345978268 -1.5460452114214727
P 8.485738802690287 1.5624904055789444 3.5473882173790736 0.7988440662043726 0.24516008574524875 -1.2436037754562517
P 1.8436159520640252 3.0324904700008837 1.3909050955565456 -0.6692249856519378 -0.3166429242765837 0.5583872994720641
P 4.9698331192664735 1.0454753984744456 8.224575860898215 -0.5569932473380149 0.9030400786980125 -0.5328117649958051
P 8.232785810485288 1.6916077945560366 12.490814209656195 1.5028686760339987 0.9509546429911041 -1.8616188138932777
P 6.22677085562701 7.934460369615595 1.2335724252890075 1.3060072773941378 -0.2886613514619932 -0.8489625801273186
P 2.0930962383203333 3.3491703436203313 5.948078021476666 -1.4170115710588629 -0.05681855165094086 -0.16394073665244024
P 7.170465060903714 4.056147820630154 5.584562071816243 0.3228074012160828 -0.5013064952986722 0.10830129291126508
P 2.2582134062419645 8.634183345716897 10.04986192551631 1.0745365162105236 0.5304193535042284 -0.05525300693603387
