# total energy = -340887.0318935554 ev
CRYSTAL
PRIMVEC
9.13104242803117 0.00000000000000 0.00000000000000
0.00000000000000 9.13104242803117 0.00000000000000
0.00000000000000 0.00000000000000 13.36420357334124
PRIMCOORD
 96 1
Ni 6.778246527440877 1.9811713487335476 11.241954661680591 -0.5276286781329688 0.6707396225242512 0.580924818452948
Ni 4.867155927293683 0.546813372921005 6.1346240193195785 0.6155128408404626 -0.6973327996317474 -1.1909912914668586
Ni 2.897562740020396 1.6396703719088352 4.7635368608496504 0.6525570380779536 -0.5761430807935883 -1.0141063359489244
Ni 3.711978652452208 4.479269256290641 4.516338548152012 1.4273718312472643 1.5466805310126266 -0.04006575767263423
Ni 3.9206229658330813 2.8961748216119108 2.7543222554309676 0.16759478846525974 -0.43437270959060026 -0.7033424961609371
Ni 5.124423040182354 4.978390282900064 2.266195003583495 -0.28173788486928253 0.12630261458469214 1.609486924815886
Ni 5.340244352701843 3.0335604819676494 0.4226238946964716 -1.34407348813824 -1.4307991117612586 -1.1477386514258103
Ni 5.874802953938451 7.908897823037668 12.4365004247996 -1.9789619052918368 1.2742132728119926 -0.3421174143986043
Ni 2.0368159196632214 6.873309807379969 0.24609802211722687 0.36574122446513135 -0.21023344907139277 -2.0170911080633904
Ni 0.6845021838764916 0.5320402598085797 0.32275859968486204 0.2648220829505504 -0.8143149081464621 -0.5548985695925153
Ni 8.118902661700544 -0.10007439587709849 6.959743339372618 0.22470875986943237 0.09287621660544651 0.2943992823870349
Ni 9.056450677674635 2.6072960407615517 1.470891275499058 -0.3134799531675698 0.41183004840339393 0.22427038678043312
Ni 7.273149012571876 1.0512934081747711 4.7552641366517046 -0.8678373055446343 -0.7570158173146769 -0.12179624207390637
Ni 0.5688529693852244 7.684849441531037 2.0537704387479305 0.5407970971941267 -0.05720010336007568 0.11114030502195697
Ni 7.810172995191978 4.193275884763186 3.562682460701545 1.3077800530238446 0.1466796355791474 -1.2066110002819865
Ni 8.051159459907428 4.130445183652736 12.563139761635954 -0.9152289074547205 -0.11273361765100585 0.19450061171716823
Ni 8.64505157310679 7.349521049207222 9.23239216355557 -0.08222902130424549 0.6969707883066384 -0.3966651677374975
Ni 7.126330985663733 0.6707161364216803 0.39002059555608876 -1.0460214394899663 1.0007319715245473 -0.48756472023254743
Ni 2.093601870863031 6.555640850595698 9.154198484009088 1.0775552484321893 0.847517620150676 0.33433931311508225
Ni 0.2590522316311632 5.110863442573137 1.1211778393546623 -0.11305397710490207 -0.06044200733614106 1.5638120484865905
Ni 6.603359676929546 2.2567644632395227 6.816291927709267 -0.3388289734553197 -0.49694384745460224 0.4047736557772449
Ni 3.4844422128400416 4.4817894239271014 0.18983710584167965 -0.06068574791583097 0.2414597540755261 -0.367213952355916
Ni 6.127833263264376 5.665492074479818 4.646091570365297 -0.3662513313323305 1.0261419269572198 0.0948845052847269
Ni 5.591676729649578 3.1671932839951804 9.290927622433443 0.023843639386817 -0.22534279390900547 -0.7914793983091852
P 0.33336065273810195 5.91665052016272 12.518449701986937 -0.37851395074976746 0.6293965408010902 -1.3411969379213933
P 3.9141216638143863 6.481286774277954 12.269635194826785 0.7378664980797357 -0.010485987132988393 1.5246518333473613
P 2.4580035014277533 8.589123939870122 1.4028266610218716 0.8788241435734413 0.8764535864587357 -0.3907434029364238
P 6.59064013519915 7.979444254774238 5.734285346121459 -2.7659590994599528 0.4200436945624379 1.1251103725033333
P 5.231995847882138 1.1927058581235497 12.451909058446436 -1.912627957951293 -0.2789639216685712 1.02748609968994
P 4.25881850539548 6.168347697333127 8.035200224418277 0.30151558171684206 0.15164752110738397 1.230603763652158
P 5.164727460281399 1.2364070259065196 3.6275256435042995 -0.6396958658445693 -0.4256854662292475 1.2825968688899974
P 0.24406453902795242 6.015329692797604 3.4148481488008726 0.8114689540572346 -0.32370703021221664 -0.6016679645375703
Ni 0.6725186041442791 0.18839074876336323 5.169835365266311 0.848197676936836 1.1095387433173214 -0.8414189634521059
Ni 2.146571046439506 6.518039218976336 4.579003977399347 0.6803830591512863 0.8042868344864987 -1.11689801189587
Ni 6.748926751061621 5.937524082542968 9.398054835275767 -1.0046981552611471 -0.4028859518362287 -3.3038678193626905
Ni 8.85837098007414 2.7862644671188876 10.429731112471655 1.04789603080486 0.010872166827813534 -0.5196965677700855
Ni 2.6473630537644084 5.69109551669951 6.79060539300591 -0.48892534802549986 -1.9276722538789255 -0.1743832721420029
Ni 1.0373137826261445 -0.12048318821134754 8.656622429733321 -0.5930262297021722 0.42643005770475595 0.35440471640638965
Ni 1.87667570224205 1.4053586990131413 11.427529397041473 -0.6356597481019827 0.0765805647692165 -0.6460202654007002
Ni 4.4083210586989825 7.312923832225578 1.2630979752475977 -0.8278185990598517 -0.24153431606720338 0.02743264228965598
Ni 5.663793700637855 7.7829624895519345 7.8186338188584426 1.1724649505278968 0.8339619929534282 1.1542111465240315
Ni 5.893010252007662 3.1538163072291856 4.4532996592802885 -1.079112051396348 -0.14376297615298467 0.7949239052143601
Ni 1.0387473562454355 7.433873616691357 6.64045910123005 0.050596996221261244 0.9823272437651147 0.24545062040247406
Ni 5.5687486827830845 4.619321180957417 7.122665785340272 -0.21344887068489687 0.15271041515425957 -0.00013781112944492396
Ni 1.0760841876421265 7.95731973961792 11.299928561465558 0.21137141933057793 -1.4511715047700235 0.4788484234054721
Ni 4.852071445643565 0.3538479720349364 10.352312658404651 1.114014776810804 1.7540068337395534 -0.399397479066996
Ni 8.3139873774722 7.555051677211164 4.877773503118598 1.4631510457294028 -0.7756635143228512 -1.7387149405774893
Ni 7.435827659713831 6.257247523813485 7.005167534811385 1.1934806335476156 -0.2801150045538789 -0.372918458939861
Ni 2.658776856465769 5.6966106661648075 2.151168526167614 -0.36661539953996863 -0.4947051879320706 1.5732986478207873
Ni 2.3068299674087713 5.261196920713299 11.479302406094845 0.36940247536680254 1.7577274771242504 -0.5508336554945223
Ni 1.4322861423461914 3.9332511971418667 3.719004076290949 -0.803251708353765 -0.5094270675232776 -0.4918900870807787
Ni 1.9079586526859393 1.2983246228008614 2.342825448711998 -0.5489320675964353 1.015740786228554 1.1316175774942316
Ni 1.5019651250774584 3.759670085659573 8.142554800210412 -0.6734094560469306 0.5727296842366653 0.13110029308365165
Ni 4.103599919699135 2.664620723448866 6.861141780596102 -0.21281303687311093 1.3182799241139038 -0.01458432557207811
Ni 4.331766401220416 7.225740641671504 5.913847290219266 -0.06893564662944902 -0.07292291341197119 -1.1573260380039294
Ni 8.20325522918468 7.782049385335825 -0.30806857905610274 1.5639058937519776 -0.3157029289608176 0.7982884508112187
P 0.5378676909157865 5.795874225498001 7.9239567377697355 -1.352436772501271 -0.8475173630403599 -0.21021056625325732
P 8.938961558187907 1.7873558478222815 8.220240793812737 0.7295620919790984 0.05293824275992818 -0.542465228925169
P 1.8918971495245844 3.3509920316557325 10.344828856249423 0.1128932831573217 -0.3079942474626502 0.18385598751912852
P 4.2313614616170865 6.6836945858628045 3.5252497533621625 -0.8947827237852267 -1.400614360647762 0.6807088179218213
P 7.147578920772586 4.108987234574178 10.455872373074635 0.5725648765240269 0.43046668966797474 -0.054516642990641594
P 6.851943168723022 8.166484522401976 10.23673923156332 -0.6459199923774102 -0.8179311647428107 0.48105468702817145
P 2.7027702175978936 8.944549755990494 5.915731024217099 -0.38217545876175474 -0.8419442398279564 0.7121564949081413
P 6.832494048919903 3.9947578971389595 1.3699375602618464 3.0111880907699238 1.004158223597277 0.948943011877714
Ni 3.0445086015187943 1.7465035651935714 0.22395159245972263 0.08722467474662397 0.9562596001437855 -0.31575640790657233
Ni 1.855665174229385 1.6187876784864255 7.232533223935138 -0.2678816957124806 -0.468187087036884 -1.616199046728739
Ni 7.184587034651478 0.7865315358802792 9.086281792414912 -0.8908116549526207 0.6762620950043772 -0.9801407776367571
Ni 3.2731955524432577 1.8908653417603816 9.191564534740694 -0.2686376000418986 0.20910010679789792 0.37172032486670176
Ni 6.71939696071266 1.9941282975601322 2.354170768597151 -0.25132327713316716 1.3750573381142641 -0.0335814354998712
Ni 4.485916654983914 7.278819389753913 10.345016042613725 -0.4554763243384349 -1.4548576953723587 -1.4365105603237387
Ni 7.254512555521095 6.421058420183413 11.463666409498199 2.048569895397962 -1.2188324820488428 1.3135562933859894
Ni 7.886006300339819 3.7978652350194064 8.054525162048005 0.8968758588688295 0.7907898284413284 0.8063308614997209
Ni 3.3663869687393273 8.88486926442562 12.240313592239097 0.6304681765987142 -1.1086666251250132 0.9888933270184067
Ni 0.2083292924263162 5.25390121802659 10.213592039684961 -0.5534384401072211 -0.7318341758427267 0.2328722695168312
Ni 8.825490097252061 2.4857344764709794 5.935015785261317 1.5961362145405928 0.13911596429927653 -0.11347743779556586
Ni 4.12973296236417 3.0368020019348356 11.348814334987594 -0.5589724825515728 -1.124549614903857 1.0216941755985114
Ni 1.3726513059921222 3.5643205696652442 12.568204750722709 -1.037957174424593 -1.5113612868860422 1.5655130903380974
Ni 3.385379536434392 8.690834618502487 8.108890473970911 0.7791818118887549 -0.2623198853539869 -0.8288161870864306
Ni 5.8621838536718265 8.115058492950725 3.4497150332929896 -0.36979379726795025 1.091096991672366 0.7334668263501432
Ni 2.9928908201821605 8.690670259743587 3.6105135988539754 1.0402426280246602 -1.0558510239858785 -0.17807537628160944
Ni 3.509945213595962 4.496554319101582 9.519201850252227 0.9223292659449277 0.8282777980844575 -1.4896724890586988
Ni 5.316503643083013 5.086483560003031 11.046195161893227 -1.0758161542538958 -0.6239637998212931 0.9247741279409945
Ni 8.073393547569678 9.310923691662012 2.648812150155373 0.8486643321606094 -0.8815135174801463 -0.32229806567983205
Ni 4.628808333762788 0.632121047415191 1.596487847320615 0.36104639009262335 -0.3739525566313302 -0.1726758025325929
Ni 5.796568184702244 5.58649029770208 13.529117277378592 0.8358977765235603 0.5147731623265392 -1.298079023685997
Ni 8.669157524412064 0.41956499557250687 10.832875754925878 -0.07360065620528614 -0.25013234214885954 0.9191452117899912
Ni 0.2861769054748929 5.393387018079379 5.436424359097238 -0.865243319565213 -1.552491738377765 1.6310757067302555
Ni 7.513843283938171 6.7090240968176635 2.5483131608177843 -0.1619764138372178 -1.4709641140159184 -0.20519357265464014
P 9.227009414201609 1.7769008045478352 3.703487696346611 -0.39969701258528584 0.231648167301743 0.026714533176708834
P 2.116064234579309 3.491272232376536 1.6366206038270317 -0.32846357106059565 0.03660890947228534 -1.3706314411324265
P 5.201452511853296 1.226554631414705 8.208894560823367 -0.5574586170102077 -0.27640361714056266 0.17804015216829983
P 8.489467745724001 1.9212534500724845 12.670734483836924 1.6728527906670416 0.3759179078878171 -1.1213375357244624
P 6.462942510576326 7.937395805622426 1.1559780672390032 0.5736599093604184 -0.29276920298277964 0.5800848390501557
P 2.3901598581708656 3.395405420727267 5.654581392201534 -1.8842080120477034 1.3808387206827317 2.7752289547976527
P 7.45411713716249 4.143557360196059 5.786940413847593 -1.1830668944134592 1.0494343218262572 0.4223944541828016
P 2.6543756941441243 8.82152722495415 10.112452051187663 0.07641652838752645 0.2843110449130975 0.5422335725303371
