# total energy = -381176.37054995645 ev
CRYSTAL
PRIMVEC
9.16950204330306 0.00000000000000 0.00000000000000
0.00000000000000 9.16950204330306 0.00000000000000
0.00000000000000 0.00000000000000 13.42049310784875
PRIMCOORD
 96 1
Ni 4.538362603918522 3.262930691039922 7.367596012317447 -0.658174384264731 0.4822217107530792 -0.4510067186028555
Ni 2.9545053139840642 8.096184486720734 9.275265104052076 -0.7867295423290257 -1.1121795233742782 1.2020475492810203
Ni 2.3586985674934446 2.6989787953012367 8.83463017602279 -0.320638418589222 -0.16181134901426328 0.13652403520238424
Ni 8.525051275586222 7.903845007914583 11.977643033830498 0.14653899623622504 -0.7892566796262537 0.6844142917978664
Ni 3.272265244311502 5.502352373507128 8.941255898820348 0.9639700814141656 -0.3791109609038181 0.761994501476191
Ni 9.020910447754423 3.1337415741015233 7.579330822243485 -0.16810386689119436 1.3571316068737789 -1.1529047690077823
Ni 8.096111130702882 4.73899131274187 4.447887125401154 -0.07847932445382613 -0.40305924418929945 -1.311190364256974
Ni 3.7216258706642007 1.3513370523502484 2.5115110730306363 1.0174192023722415 1.206562149321922 -1.4780171642079576
Ni 3.765795362912925 7.8241987115325164 11.497913933037577 0.9375712797056627 -0.6380285054444753 1.342657324517004
Ni 5.555984792058671 1.0623693590294518 6.575612350336829 2.335582655512939 1.2845827889717747 1.3697976323772216
Ni 1.0296434055655335 6.3116618099540025 12.928256333563915 -2.048592521105782 0.28133190768011546 1.7799700905725344
Ni 8.996061096707288 7.041820103139306 4.406793084200847 -0.6261039860927475 0.4765197752722954 1.309397019801977
Ni 8.297225823144496 8.125022571238532 6.757124480908126 0.855840023973442 -0.23806384102009967 0.3842171717821318
Ni 8.860077378615411 6.16793903197881 2.32052409580362 0.6089940658853383 -0.8062226180566309 -1.4144417534491573
Ni 2.0027935078833226 5.167784745589506 1.6232889003802087 0.3527427553229344 -0.5068415661842884 -0.6660049360527434
Ni 1.09237197033064 4.825734803851051 9.3039179646248 -1.2074406952721335 -1.0758912304662054 0.799944755467719
Ni 5.755870771201275 2.099320857873423 0.25109856605527764 0.4292130197665318 -0.0837652554431138 0.8646663640158205
Ni 7.19703226741046 4.175864672204012 2.042478196590661 0.01248784805436559 -0.7981007602804449 0.1970812279601509
Ni 6.767771189949022 6.369154588944971 5.379014315942594 0.5673082561107777 -0.46303922428735733 0.7752145997108907
Ni 6.452101906130347 6.334062903905347 2.680247336142903 0.784320675777217 0.38255881024310245 1.4810819191762106
Ni 3.8631112900949267 2.4406555784378274 12.37236626418709 0.4101855708214356 -0.8554684995666364 -0.34252056337429393
Ni 1.9838859942821456 3.1633223883000663 0.08100796746343135 0.1301602977678855 0.20191438768273612 0.685239101692007
Ni 0.5364149635875248 9.27825252787907 0.3737571635044631 -0.899389883539935 -0.06539806578983576 0.45259231792242055
Ni 6.346276680877591 8.552550612778234 10.729792066713769 -0.0008579771249211031 0.45358604929425755 -0.45333356696381927
P 9.038259145976259 2.839134636908407 4.921885287299441 -0.3365406916417752 -1.1843987258510056 0.26467450162909256
Ni 2.7772863443575164 0.4338843404865173 0.18422997103268746 0.5029522584322113 0.7841342707980238 -0.032422639305079645
P 8.453309090127634 2.1536501585945538 12.2671498938825 0.07203485438006303 -0.24778183963881198 0.09615283047418925
Ni 0.5623829939068906 0.14581250753373015 5.233039508219368 -0.9593762913958962 0.14375680550539757 0.973684223378136
P 2.0219210895380533 7.369831536961466 1.253455366880568 -0.10967914709539821 0.13886939550610924 -0.854667858042212
P 6.845592755387036 0.12284840614537569 8.362725411483936 0.770448288670499 0.5457199884170407 0.6111838744478054
P 1.807602313883202 0.6768688140172163 9.446376268242279 -1.5177826170313538 0.6680044829812753 0.33947612012101536
Ni 7.026241118848133 3.872812623455763 12.392738147294624 0.07208781910518552 0.42893302663226773 -0.45199762176121516
Ni 2.647088582173662 3.9750709123404975 11.043576100873667 0.3269422493200627 1.1163048583965614 -0.22159618238237966
Ni 3.197552140129937 5.789678725928501 12.901831662033425 1.9352662641760994 -0.3284725699216601 0.0962829282941503
Ni 6.664733493374617 2.526913085928743 4.429648985462871 -0.8691958764550579 0.8776488923184177 0.3266941378649987
Ni 9.211498551634373 0.8577601692874457 8.12814845454922 -0.25105691084565795 -0.4813408508100227 0.3692996312403511
Ni 4.527744320334543 8.031282749926781 0.629059029382621 -0.8452954156883765 -0.4859354121592405 -1.2056198400133107
Ni 4.839140616113379 0.392653673702962 4.625896506120051 -2.5623971488714647 1.1944291135038139 -2.1945221658927823
Ni 9.117263577202126 4.306355858459272 0.38924170192265267 -1.309256380459055 0.5514571480111341 1.4128404704003086
Ni 8.589320316726205 0.6985225935367015 10.538670297803952 -0.36484776611658454 0.9057050271246854 0.541241640930713
Ni 5.823239104095477 5.453937401725258 0.43255751351363164 -0.19062441659121362 0.02640162992198034 0.6285185090715111
Ni 9.242766554243495 7.865910777183221 9.789404595868826 0.7739215919310801 -0.6496640328008747 -1.3512445519653826
Ni 5.508807703078042 4.73983490694716 4.187650233422049 0.9152703022156173 0.19860074992847085 -0.19946386925971454
Ni 0.9441653057642877 8.41315583985627 2.9517434599119623 -0.6110596901651154 1.632182823751505 -1.1824359456976796
Ni 1.8907055126065115 1.5512963875107042 3.8444073394432876 -0.9068010884023415 0.5290363571137727 0.8231667021101371
Ni 1.8054658198632825 6.606837256285466 10.920014307454686 0.6436687344493882 -2.4540048389082902 -1.8824244377847195
Ni 4.694400023390502 7.1594464777638915 4.6306206336696745 0.3957449699160733 0.8451223804456219 -1.3127564231925133
Ni 6.0182560775532 4.859405216044806 9.669841622372966 0.4103552636300804 -0.8205053532278902 1.3523149022114258
Ni 6.319547581873018 1.773996088205068 11.174627543715266 -0.36282790747307836 0.8105086470264944 -0.4708384086168021
Ni 7.999684645237327 1.8201553624380087 1.270575744496842 0.5624933512206377 0.6661057232966657 -0.3721576695144365
Ni 7.210337215148242 0.3610005520001192 12.892168840581961 -0.012752928790294164 0.4906613568800002 -0.4695112051649462
Ni 6.872743651494255 3.865357818141623 6.406513891886423 0.02900615742436295 0.34381717069853046 0.042693682213784535
Ni 1.3519514089997529 4.4117592866093815 4.938446325279598 1.1295383263676997 1.1188641344833055 -0.9719926946083259
Ni 5.718908507706443 6.446361797733481 11.744716587297436 0.11913206497818192 -0.604670755919636 -0.5422878228070401
Ni 2.341184818231443 4.419865126581952 7.146466130405101 -0.6730387029710732 1.551817595128876 0.6796011866799392
Ni 4.306429214477123 6.2578918488689865 2.0481146896123117 -1.2755160507838164 -1.4979033616089235 0.9308393602984679
P 7.833450739284014 8.155896285251705 2.680099707156977 0.6982583967698104 0.16746803307940836 1.3284648350667059
Ni 6.532426745677538 2.547058482331161 8.493548533719972 -0.7057279656739781 -1.3502960720091843 -0.5131237996485744
P 3.4309984974395182 4.735791156463107 3.5375618676219016 0.08109027971411195 -0.7502427602569014 -0.7203066348191015
Ni 8.360532066550181 2.9179556780896463 9.677423883768121 0.4604930608267359 1.0498644673851403 2.2515078392492063
P 4.876212913634988 0.3487491800687263 12.564305952695952 0.6546247192402597 0.3277968840108742 -0.9311597197523641
P 4.8010413343418525 4.343987495616997 12.12599274263166 -0.04144669718056088 0.2931324998594693 -0.4987109666573541
P 3.5947933157992753 1.3921596762845054 6.165038718423014 -2.2665644764720128 0.3888652120771045 -0.05533065425150471
Ni 6.77716076023399 7.803182212418115 0.8982123453315539 1.762879453638835 -1.52576100725114 -2.1047220171094976
Ni 1.2231840891639991 6.689078521799023 7.9730747497617624 0.8331868053503005 0.4762796342370313 0.8467470605332384
Ni 2.7392787576083033 8.683591969167377 4.922650023785541 -0.314896116788806 -0.7449881967261814 0.9624042795889425
Ni 4.881613750449292 7.093068451110682 9.52209526681863 1.17015558566843 -0.6038793703665923 -0.4108260326189118
Ni 7.762836402599891 1.3365649842554395 6.16576402604952 1.6474418067931045 0.4608964669127418 0.2890025368514958
Ni 4.233916790831097 1.0719789973679743 8.46556688071059 -0.43753233826550453 -0.5558221098480493 -0.5124396290973562
Ni 6.723675053718148 8.689909756204822 4.710901459606156 2.8888927975724115 -1.175148410897331 -0.2285276193948903
Ni 3.849256172223259 7.226521386586689 7.22415748891143 0.13856831932592265 0.013453297291428443 0.30250211399982746
Ni 3.8708778584849344 5.434094598896477 5.780582579714937 0.10026839530445958 -1.9320485285697502 -0.2844246876728263
Ni -0.006613961959519275 5.813060956618607 6.3695002791790944 -1.0683522417766826 -1.1900911482500924 0.379898746912436
Ni 0.3717160323077502 3.9545770748532862 11.632735875196735 -0.017983066840981932 0.6355101098979958 -0.9806863657275819
Ni 2.1731170118318466 6.441777046617773 3.54050069308707 -0.5247868378087994 0.20321485166171455 1.8575988941006072
Ni 1.5989411211051339 8.697722172105987 11.568787766634848 -0.8206007411551738 0.7307735957886963 0.1598961342694214
Ni 3.6397880632488264 0.7496930007391102 10.646356932009683 0.6731076085357955 1.3582076135467769 0.7895965794641756
Ni 8.189676731472236 1.0880806432863381 3.5901966443306677 1.276707499988756 -0.698947452417035 -0.7424957693216309
Ni 7.1581627474514935 6.9392225426720096 9.005030703790059 0.3127762422323258 0.8058773189020701 -1.1122358305335103
Ni 6.028012427927426 7.9757797529200305 6.845484555260706 -1.3619634810447834 -0.701898821735875 0.8758419210166657
Ni 1.5077320824092537 1.835890228267116 11.589374216094598 -0.38493348112286613 0.06945038148233847 -0.5314868755367943
Ni 5.758080621239046 9.096421298630121 2.4213115965304355 0.15000252930479327 1.0046130517465086 0.7248371756996033
Ni 1.6618989234260257 2.55145984340224 6.298921703553674 0.467991168975994 -3.0928838652785187 -0.6847889015284658
Ni 0.5671282113116476 3.5865866113021596 2.708644367603371 -1.0568406415926572 -0.07116093641554196 0.3542730759245318
Ni 4.197935664075027 2.8311388309626135 4.3188217967428795 -0.9057682762624529 -0.431206910268109 0.9087150175956028
Ni 8.088995596971305 5.767754446093188 10.834927745398721 0.7665432971891379 -0.2632956190036949 -0.29342354873732696
Ni 3.324458051012713 8.310732499931369 2.6789718583825133 0.9099740868136843 0.6250400636046074 0.04537071482531541
Ni 5.647294695279096 5.551519244471971 7.598415307237728 -0.36102710681891376 0.4794536610896387 -1.1587797397313204
P 7.703234638095696 6.117919397306444 12.952936965769991 0.6551214563710201 -0.6019464150099375 0.5976285043608739
Ni 4.268770068812704 3.7222127188070115 1.1809016804745007 -0.48946039459336343 0.24214083930295074 0.7572593007840507
P 8.192913565759925 5.025263172406631 8.536131702082663 -0.45570206719599576 -0.308659648960791 -0.29675672687561794
Ni 2.092251171653002 -0.43268588654487145 7.383042955776488 -1.0419395561111087 2.3831645190569604 -2.3524966576594584
P 6.03044234601875 2.2424476182035717 2.4443820641446745 -0.7411112302692784 0.08264939667111572 -0.7858898200365497
P 1.46563489766483 1.8967757230837081 1.7854222049356336 0.21377025858005763 -1.3532037325742825 -1.2849250028025418
P 2.114239638003934 6.700476213072671 5.881503955174331 -1.1004961734990788 0.3748228750514255 0.01252255794704295
Ni 4.562460055782679 2.984416230262938 9.911570791048185 -0.02335718666870171 0.6152297623824049 0.3093242791279834
