# total energy = -381173.62856520084 ev
CRYSTAL
PRIMVEC
9.19886636853150 0.00000000000000 0.00000000000000

0.00000000000000 9.19886636853150 0.00000000000000

0.00000000000000 0.00000000000000 13.46347076601509

PRIMCOORD
 96 1
Ni 0.7765333352188393 2.403976519034026 7.194488506645235 -1.390348974166012 0.8034715376740549 0.579167469442209
Ni 5.688054568900551 5.928816495908432 9.385533348698875 0.2730938360410394 -0.2377013154743584 -0.4117326035935812
Ni 5.824317375027772 7.782047692209534 7.788684674226734 1.1353747305438189 -1.1916572071856315 -0.5547134501649027
Ni 7.947112148642859 6.118993857271704 0.5752952570468604 0.05370006062661719 0.378554831290032 -0.5323412531172896
Ni 1.8006412778086067 7.59753683247148 8.165756321579837 0.38558602710520046 0.21731683828073542 -0.28820626620244555
Ni 1.4093675008139859 3.6944946675788097 9.164072482908583 1.7279967828290368 -0.9410116728457794 -1.3379645470270247
Ni 8.175630384639106 3.6388967198144866 0.7708052011895798 -0.28685078061581565 -1.3222041988689746 -0.29985439196433517
Ni 0.710170874139855 5.910289979231175 9.358229273822293 -0.19979297046435915 0.29507393985655633 -0.21755183710967696
Ni 8.062116374809234 5.864636005909808 5.411991992563486 -0.5265233608839319 -1.2673491987023078 -0.8636826599463125
Ni 3.521160430364524 4.200478307019015 13.208593211106232 -0.4634781115969889 -0.1831977851098393 -2.566222693265142
Ni 7.709965376080937 2.519587870374531 8.617980866624032 0.8213404475346757 -0.004706661447049959 0.44882745156334963
Ni 1.767552955818489 0.8939633024218541 8.792360095047124 -0.08560770796849128 -0.2067686304512439 0.8098478735140441
Ni 6.258724635984489 7.099556206690268 4.335398998556756 0.6656051295111632 0.07064851555549767 -1.4136454828001075
Ni 4.642695405442958 5.8453183867329255 2.802906512429085 -0.1936917426626277 0.17723462554786892 0.5873847151456787
Ni 1.1945463767007758 8.075923873087566 3.059438975778322 0.8804894470910062 -0.6677789972340306 -1.097983177269238
Ni 5.810712251807482 5.082612787298224 6.881772127749977 0.3646963281403848 -0.7830222686807676 1.6312453995389002
Ni 7.7114371946848905 1.076911274779835 6.678177300038417 0.9309535172788288 -1.191927687238199 -0.0002967053048123922
Ni 5.825945574358395 0.9795412752620717 12.192721013492209 1.0347314683984437 -0.3440007474642463 2.6305709776342243
Ni 0.7321984793212661 3.007385351189643 12.277958628280263 0.846674041203458 0.39785070340516643 -0.09525165881615853
Ni 0.7231495545668377 8.905017690426822 6.317235864698012 -0.24866012847870725 1.1796817799913102 -0.016806530034377508
Ni 8.080780874480611 1.759669527421066 2.997776215479085 0.2807426108355488 0.6640465267747919 -2.183962388099064
Ni 6.708641185480361 8.32057692052965 -0.037741108551863904 0.9196761445927969 -0.05272946918323177 -0.3831139114156241
Ni 3.5910810129185644 3.8303803201887674 1.8561683943026148 0.37686844472654446 -0.23013764419448748 2.509578462408536
Ni 5.604620851788967 8.071526815008257 10.274566978684115 1.0941908001063414 0.0546066316012866 0.25161329756976025
P 2.0867812121496123 2.609589578006255 1.015801366343708 -1.2665115332923607 -0.8287673361263662 -0.7435224108139324
Ni 9.156523893243559 1.2484517330705531 -0.05015129904306981 -0.08885398281993084 -0.5595628078374041 0.7127406495463854
P 7.8029015220542925 8.635895658694022 11.153085384630739 -0.3503827397311901 0.031410138880165264 -0.1088499663258835
Ni 7.472524239798225 2.7426051843385046 11.634417902227984 -0.868866261029781 -1.1350960229611355 0.436761521537751
P 8.04737059217088 3.93136547415249 4.068243684433488 -0.3965474112127106 0.13486387389114193 -0.6153133232351468
P 2.9929431311383543 4.806701992254692 3.917843140728672 1.0417022432893221 0.7393934762472234 0.054867855682473245
P 0.825681957837966 6.656529608034151 1.087305993670253 0.12695618900829103 2.2810086769218003 0.9718762236351198
Ni 5.562020902070804 4.257842437108081 4.685880403056193 -0.02519963919407918 0.14859356477240862 0.7324774658536806
Ni 3.657184065968602 4.793538414615588 9.497132154570354 -0.5503322903780716 0.8517000336631396 0.21093201780031412
Ni 3.7675060692011515 8.875958471865026 7.936567488232162 -0.6094236972235891 -0.5473665228815282 -1.1983739570841747
Ni 0.9198847876973482 8.267766229246561 10.43914389520488 -1.275047852898146 -1.9532488167964488 -0.6954751775977184
Ni 8.8008313309995 7.027271515503629 7.2604995710325255 0.6294384497826192 -0.14718819978444972 0.05114258431208612
Ni 2.031440832640981 0.3805451392584314 11.769214409071019 1.7435689262356813 1.1245588708752374 0.9805997195510466
Ni 3.5281515687333007 4.00691576286665 7.352536067884214 0.9290958952448 -0.7104683085724409 -1.152296703110138
Ni 8.369652872105206 6.575156436968102 2.9733265488075435 -0.9136440794661039 0.8225689206251382 -0.019521357862379282
Ni 4.082843205098074 0.44417737682708286 10.00339911909182 -0.9360746405554781 -0.8420283149013303 1.310520591883459
Ni 5.50552146541156 5.500121730908307 0.31985561901105836 -0.5611381227443238 0.8360983225701407 0.0810206028184411
Ni 4.5447734739487125 6.386828047726046 5.660769811643146 -1.9222467119879798 0.6769280107231503 -1.0646974186329148
Ni 4.472617566889918 8.418820812343508 12.594914764641533 -1.86610616024067 -1.1047343799501426 -1.2878953982847754
Ni 6.68570841185752 4.750395731787216 2.3514353545327875 0.9887318617398777 -0.06381092380837397 0.7037603004246461
Ni 1.1733797854026773 1.044807231481111 2.4511059905058548 0.15838046895584337 1.2034984227949337 0.476822908335011
Ni 3.712772814866651 1.139187599459595 2.7617480250561677 -0.8255411158795848 0.054211710155713085 -0.07395444000027908
Ni 0.19355794471922697 1.8506463148779086 5.0343417365217045 0.5549394501327797 -1.045041077854568 -1.3359166633590605
Ni 2.95927528057293 6.142239392347887 1.0789709009387418 0.3477175341942011 0.4681672895425421 0.6310962971010163
Ni 0.9548883136458595 6.857110887154117 4.9388455460640985 -0.47698437361353985 0.21165655467116454 0.8541518376377419
Ni 6.322077228018389 1.1931389501607457 10.128488062355157 1.6323275768594856 -0.009210977075306718 -1.2204013691978595
Ni 1.1078102665965726 3.989971451188642 4.884816004999613 -0.12867574280255903 0.730061143102704 0.22468947659572272
Ni 3.3252153798470108 2.7884983281830125 4.627529234615849 1.622381264280051 1.2634642618256047 0.018852356819812694
Ni 7.641213049543784 5.039976042114962 8.329378395781287 1.3182632119433557 -0.4700241402456228 0.17811831370440293
Ni 5.415363377053166 4.591890067007757 11.43264077049231 -1.68149915348813 -0.5676196167036095 -0.37006042066577555
Ni 4.282568989654492 2.2879972130425323 11.267591952131651 -0.2538393586868015 2.280961368623633 0.17498979537775025
Ni 2.1640332911245936 5.655490582288092 6.539059165819528 0.17214178440599387 0.7512308352017836 0.1765247439650379
P 7.465735476487492 8.149330825959721 5.9502884895668515 0.1331556329507836 -0.07430385291989783 0.3463491930917648
Ni 2.857958967423318 1.6876424044901177 6.741227249371881 0.7056552034545137 -1.3419633837737728 -0.3816884918230072
P 7.226334981688268 4.58927758898574 12.51977566524985 1.1964518003607976 0.6636035257001023 0.6515656206989616
Ni 6.754488334993496 6.508795815662372 11.671940077762512 0.4798156724147479 1.1989123460861482 0.03671998112885289
P 2.1620279382767076 2.4716065838856647 10.773590755900878 0.1863918665671048 -0.40773248129525264 -0.592799715513663
P 4.008562359929823 6.310541849709908 11.981896796775358 0.5795914443535051 -1.1206083708679218 0.13775327962379502
P 7.1705438577321745 1.3969398324768578 1.0337400754660122 -0.9067296117344578 0.9150705274999853 -1.3270327306058691
Ni 3.7418320334284467 2.331103100405805 9.000195600111322 -1.502733178897399 0.6208090562423954 -1.2326706734835158
Ni 8.866170878148738 3.9697431442505637 10.410884058122356 -1.1920493004177277 0.36871701926400374 -0.4232606588378388
Ni 5.8023044880324 0.9223243270334003 7.902074499361897 -0.8114252453034928 1.1957205786217278 -0.10283178515626162
Ni 4.041586289856018 8.01261727538504 3.6006036792861402 0.05557645171372365 0.30170224380635136 -0.6094383525116085
Ni 2.9044960319070556 8.243508818880162 5.532826460174769 -0.6299233598388377 0.5559223828713393 0.9394589836466788
Ni 2.0956213226396048 5.087561777354017 11.270608260383128 0.5619169098918775 -0.7711635695699687 -0.12285707923825291
Ni 9.20926099359645 7.987191609001753 12.812027326343772 -0.6498550657657582 1.1890079424882425 0.35090390234198277
Ni 2.2762870562748314 9.042743116291721 0.6961269649982613 0.09899184258488113 -0.43839185805232245 0.38611284614294794
Ni 9.188131197763449 5.878986237298349 11.664643537033413 -1.0109266526693623 0.687300612206726 0.18275735513831107
Ni 3.1717414949198157 7.484050419240432 10.300160984320229 0.30388433905933476 -0.7746597556486852 -0.4422371999403416
Ni 8.66446733734326 0.13195957648391296 8.845230578960997 -0.1849844446966169 1.2818095971020118 -1.5679422686048803
Ni 7.853394099036153 7.338505957042033 9.262463556582839 -1.11013189681663 -1.1101401243467461 2.1570995022699493
Ni 9.27300913688016 1.2732518765471608 10.800732930731025 -1.028369530736158 0.3212755379525887 -0.39236294081771783
Ni 5.443990248900051 2.826222878775582 2.922420942729948 0.43515663894447637 -1.2665842955118252 -0.9151232351147917
Ni 0.5617306088381787 3.3863418462424324 2.5325729900079064 0.44169958226931677 -0.0675811894840836 -0.12802551081306984
Ni 8.321423216226922 8.988782566724295 1.737070672643996 0.39280105679640087 -1.7942093741003677 -0.9668376327699477
Ni 7.674798110312735 3.4686716994010514 6.336340070177322 0.30988195140366637 1.029959243820781 0.4498906027205413
Ni 4.828917254308108 8.755747687387167 1.3182996445810236 0.10865739069910318 -0.029950780725819387 1.50255911521338
Ni 5.7850934092324255 3.0316427615560424 0.3092704835887541 -0.17643629801628968 -0.4291919367206092 0.027945577370332514
Ni 6.894817040014137 2.080342005757318 4.722150612890731 -2.470642704575287 0.267132733361598 1.6780592745686453
Ni 0.9362606094395798 4.8289448509069315 13.580333195566515 1.039050664599088 -0.3895331846784066 0.8228993073813635
Ni 3.735034071251439 1.6367450773921695 -0.0887938964898549 -0.17907707807324644 -0.3683894607212559 1.3698133161065054
Ni 5.399384946334001 8.944361241483739 5.643658080598938 -0.7891024134365764 0.4122308833862384 1.309262808216958
Ni 2.131073753262322 7.1751892852009025 12.567920691558408 -0.030015058304851537 0.07773550430926612 -0.38917785822151685
Ni 8.207164098228798 8.841775484788217 3.983504648197524 1.000987282068463 -0.6113666798825729 2.1985760242471817
P 3.9997866415037535 6.44725540028459 7.794636340706469 -0.5635390188763326 -0.22517001577656703 0.5783647710352555
Ni 1.2010223785581688 5.547118738705779 3.013326898916475 1.1652031267591612 0.3312766150293585 -1.0411818520094778
P 2.3152258572156623 0.9829356569174382 4.605799672701739 -1.4762703567201803 -1.977432098910872 -0.42344295005197397
Ni 5.622954192274457 3.391235643100576 9.380377384151902 1.5854381113967986 0.5731282052266645 -0.18136587410742314
P 6.39279811193833 7.115599029473357 1.861634360643045 -0.27166481690399663 -0.07616327472613979 0.5703822670504113
P 0.2650552129527521 4.650505242910183 6.783125325593283 -0.4241991114917082 0.4344889234534904 1.926184099369173
P 4.952255653319366 2.3199540744808607 6.375249434746073 0.559818632601952 0.7470345377322489 -0.359168199233304
Ni 5.995618662795347 0.33194660884253196 3.575776859097336 -0.5975459719493967 -0.13880331815486419 -2.3037860798276326
