# total energy = -381173.76362781617 ev
CRYSTAL
PRIMVEC
9.18129348070484 0.00000000000000 0.00000000000000
0.00000000000000 9.18129348070484 0.00000000000000
0.00000000000000 0.00000000000000 13.43775106837565
PRIMCOORD
 96 1
Ni 1.189969069539909 3.5819438842120266 13.24776806346861 0.1457337267261103 -1.1949374205988001 -0.1984706521085098
Ni 2.15797119085751 1.9658159021685346 11.580855593474173 1.6187220702609089 0.6119179244003526 0.6450360471105601
Ni 7.973604392250234 1.1712667749697219 3.870434811588849 1.869627028909735 -1.3230392931757602 -0.5766552445433166
Ni 4.373509091069499 1.3294971847009944 5.744060429020661 -0.004787651196630465 -0.08987059700990328 -0.40082906930719997
Ni 7.795147593251351 3.0916628188963737 11.884897795540725 0.33641933557256254 -0.7495917569364638 0.4931578980496088
Ni 4.704356997223985 1.40820841265888 12.087431618241553 -0.803307758402681 -0.6015401807104543 0.031186195794817257
Ni 4.73813497548796 6.628801991521502 6.73748646977582 0.21572172587947366 -2.029949709193614 -1.7385686448076123
Ni 2.851709716985801 5.350600692811491 5.7022157664123725 -1.5081553783542347 0.5149017174846037 -0.7231351054068321
Ni 6.2790498023429535 2.4846324272407614 6.375420329945561 -0.5944603910455375 0.45965231009299545 -0.3855127506651038
Ni 7.972980064301892 4.103395440477991 7.290369265723463 -0.7560279994801109 0.7108719717687628 0.4209062996730493
Ni 1.9869787833586579 5.87877295581549 9.664873915394033 -0.22117632123614167 0.6614291437566028 0.6602374374413469
Ni 6.073930527432523 3.3890081855876235 2.5840933781876614 -0.05747829672212682 -1.2792240957630225 -0.9059569952344915
Ni 5.21236714001388 4.16032864059077 7.7743840983223 0.2440223725963797 0.9087646398866156 0.05846508611542834
Ni 3.6893099287401396 0.4632981622659118 9.951622233291511 -0.06741766732302583 1.224309446003014 0.2583290190270389
Ni 1.1295286153643855 4.246559347808834 7.39506263575507 -1.0030138255801888 -0.28813324687266506 -0.16150718751028315
Ni 8.323071961334685 2.505180161775901 5.589217916538479 1.1611806358633292 0.41519793643436237 -0.38938817446011004
Ni 6.605582500619193 6.830744538930075 12.74519600073464 0.6689442211867254 0.7545560429202748 -1.3600801479791416
Ni 6.750812198955579 8.060358433189702 2.9786117175210047 1.455903877248686 0.6851820232018264 0.7545161908212747
Ni 5.4652750468525495 8.58736467193724 5.320892781893105 0.07311985991412567 1.2503961157877368 -0.6420448256927199
Ni 8.761818427032047 5.197787246161421 13.049614635828872 -1.0897481909539555 0.20608548834129023 -0.8995672896580637
Ni 0.46016642310150785 7.483984380056356 5.414365693311936 2.0826583524412388 2.4156907738194393 0.3710461816178126
Ni 4.5261297305590515 8.636071433201275 2.89785122488562 -1.3263279912293608 0.7903486271388518 1.5104480310431536
Ni 8.17371986228057 2.8417204698123286 0.9372888587765167 0.4727749635178826 0.16349747846743454 -0.12047238105616025
Ni 6.7942948042989295 5.5216665506572085 2.8037870381745353 0.18866677864421055 1.1389331373190386 -0.1370084310379705
P 2.1438411803795927 8.321759036384496 9.65807424953312 -1.367433245910103 -1.778543899648969 -0.8875103584935295
Ni 8.969425832442488 5.811272087047688 9.127350505104939 -1.113324949832631 -0.2690078388971238 -0.4318823390685788
P 0.7838565929541197 4.605685637505871 11.266734167559237 -1.2069197897716568 -0.5951697584077362 -1.0321878760409837
Ni 1.5001774282256761 3.236433452564861 5.089051352664299 0.21812930687970175 -0.47009433136192585 -0.36448266946768193
P 0.7447139849810818 2.164618447248681 6.9794741462945185 0.6668487721102774 -0.7961930017347708 0.43769868864003975
P 1.46970471557057 4.9438877596400905 3.673867911441368 0.05090655704188007 0.3274580126142167 -0.22068781163549733
P 7.618940211125172 1.5820562023920615 10.316940387229165 0.6839885171143575 -0.929469733644451 -0.07415550026749165
Ni 2.378202874635161 2.466352472165041 8.909779560142429 -0.8734993889264182 -0.5946277698613371 -0.33375284448399295
Ni 5.88117845467528 1.4408662731331832 3.8639307833740624 -2.437861139268892 -0.1395006013322049 1.0775971574137184
Ni 0.9998887531498347 9.279625009834897 7.988460643032767 0.00391347612179326 -0.13130546711592225 0.009354958852338727
Ni 2.9162083028255474 6.6473482041046035 2.955297659297109 -0.834869335259046 -0.18590798495215077 -0.08561285017481383
Ni 4.931107399285795 4.9094487282543415 10.095460047554829 -0.41364139058051985 0.47687767283234644 -1.5910503153772533
Ni 6.952093693242378 3.4312054098608584 9.32504670433545 -1.6170107439967571 -0.11816661574111906 0.20945106237941347
Ni 3.516297636702534 6.470746026364031 11.206116514421906 0.4148438955290533 2.3637388062321807 -0.39992146989126615
Ni 8.176703782621912 9.026478389368918 6.069187471283795 -1.0247543025810737 1.2272600439909058 0.5447095448746554
Ni 2.939739957702027 4.38219459458614 11.536658683507572 -0.6567191398754432 -1.0231075110062704 0.2534174406580345
Ni 7.394448407229422 5.128220586388076 11.02132095048868 -0.3757453868656948 1.93719150622327 -0.5558478208796621
Ni 1.2318449485456149 6.485335101509847 12.249585194624686 1.7124593493150702 0.13933553650925035 0.8580858825848253
Ni -0.011266365079566248 2.9726089879235635 9.424445222487517 1.3061407176482085 1.2477867031893477 0.47329998278341723
Ni 8.926237028486591 7.620859101436987 11.035013931402757 -0.352181997723458 0.27017923349740564 0.21061448655989534
Ni 3.2318887123526654 7.524005637803751 0.5365345849944393 -0.7994752720304682 1.2562947406603588 0.39085318904141075
Ni 8.012817696182129 6.788969654151306 1.2627794802566266 -0.7214224935910996 0.6110558335103734 -0.4116148470687943
Ni 8.055767786510717 1.4171693549762598 7.882356108212039 -0.9467136083265631 0.37739500665397585 0.5066921850906176
Ni 6.715978371955437 4.815909711523332 0.5192535546360662 -1.496680544945416 -1.0958067384432097 0.12136558229439097
Ni 4.374252775831494 4.860806236043811 2.1381074626775396 0.24029941521883774 0.9326666433151938 -0.5685500989376789
Ni 3.648664343044402 3.3488033019730685 0.0997226178076023 0.6190439939221727 -0.6252910032731489 0.26189822443553606
Ni 3.2561548706977828 7.872582621432478 5.006005636112115 -1.2035436742105725 -0.38643371981747643 -0.36544194805715774
Ni 4.1111903585389085 3.320901351458194 4.1718300467803 0.17636944933409626 0.26358615366092025 -0.2732398747006004
Ni 6.606216009860893 5.955895820022447 8.63258621424259 0.4198426342952254 0.6923402315131625 -0.34240383529077156
Ni -0.04315299691179962 5.390300605291357 5.38230278064723 0.2838778140304208 -2.4079404404500595 0.7580913097670428
Ni 5.427797007365312 7.209124000798777 1.3630043148109097 0.3943663444009918 -2.502883052666231 -0.28173351399390834
Ni 0.6625661989193076 0.8248079157186778 10.288224055993439 -1.0674706105026777 -0.9824979650150241 -1.1851916540659457
P 4.8171308235399435 4.651463566188713 5.62837521458089 1.981635338358942 -0.10599629892717229 0.18057525988532772
Ni 5.143920598030205 6.4882731153843975 4.099387805927237 -1.6651477087133002 -1.0296000607091493 -0.15134104561055872
P 3.8141296119417563 8.605901703226984 6.9518054006309375 0.5138156835092763 1.3343225793990632 0.6928968753475808
Ni 2.778856154190301 1.4724407409912454 3.8145069630987685 0.36755256664225733 0.06681628629360105 1.8173883833199926
P 6.058606948818069 2.524084444799963 0.11033894731742422 0.3536920066100812 -0.15611609840169888 0.9513197396400066
P 3.890921949587826 2.804343424552029 10.308851667780793 0.9773218201307232 -0.7695198633189586 0.3924714413711241
P 5.763850706853767 6.9024045335890385 10.46733639933808 0.3784774410848772 0.716574678580495 1.1941113251530788
Ni 0.06982557224604126 1.3163312100256641 12.452589099545438 -0.1785533443592925 -0.8176380589824241 1.1509659001138564
Ni 0.3291741563753279 4.8831167789036805 1.7199518835941001 -0.4124635682223348 -0.22323834597149295 1.5455081079710804
Ni 8.22707235798374 3.7297443446886445 3.3463629141985196 1.1439192776797202 -0.7567826182579482 0.3656255248228735
Ni 4.314243842443796 7.319492328254946 8.797063575974626 -1.6450306262484509 0.2520745534768949 2.1376966722633055
Ni 0.731689402223464 2.2153083678780394 2.8689062794452806 -0.54006767522727 -0.20960738545161967 -0.08398019966739731
Ni 2.4963569388588907 3.451147179034371 2.1304750535090586 -0.7983799820837605 0.5066986128485209 0.7937777074250588
Ni 8.09091377748503 8.386817681119078 9.042182073528393 -0.22088475813765182 -0.048495119386910035 -0.7410207274380012
Ni 7.000653553812687 4.624231850088972 4.994986247823879 -1.9843709921225503 -0.181581589662655 1.0297787523788589
Ni 2.180245008543948 0.6516826937727687 5.986867076906892 -1.1522416815024865 0.1550184944621459 0.12320469238565877
Ni 2.2676233774317582 0.4112319657621939 2.0213875164763255 -0.38534228652551056 -0.879577476799698 -2.191154277861813
Ni 2.2697809813708814 5.515854791961613 0.7876952917070873 0.8652291784978259 -0.7304069564778969 -0.25456492399891645
Ni 6.988984129954705 7.114070070663702 5.223764797588465 3.1103329139929015 -1.8220089128111394 0.8903455139494796
Ni 1.463066640472757 6.81972698690051 7.399618393519295 0.1036941331565569 0.011850471580682816 0.4765287741333599
Ni 4.948808932879963 0.13302408694629902 0.7745182994797273 0.7949904967862372 -0.2469223198519941 -1.3799509187611394
Ni 5.427696013138374 3.5470366068650208 11.728871814344703 0.6867545098952689 0.5974235874389195 0.9749247806534564
Ni 2.134173278473649 8.638816639915309 11.815236568445792 -0.14263426186518013 -0.27509029764577786 -0.01352708795215735
Ni 6.827769799882092 1.0749733702313218 1.8156283054188447 -0.6722465460870809 0.11420968797590009 -0.7383565503422768
Ni 3.432995762065663 3.046922376362981 6.920038125612358 -1.21683961998853 0.4213313030256099 -1.0672811201996908
Ni 8.944452714508806 6.722368552132584 3.4557323169373424 -0.07063540292937512 -0.20964775177125183 -1.4352730883722122
Ni 4.180050058723691 1.8020399912490475 1.8938226265606763 0.5657748501853869 1.781475214363151 0.8284276933987604
Ni 4.62614155910743 8.111406424260021 12.278086683595836 1.343239679383035 0.5501751959749169 -1.6012344549991067
Ni 5.922889070400542 0.22741971834760655 10.239942388611876 1.2962802799143611 -1.0659636869398479 -0.1798823475833612
Ni 5.055633281099957 1.5126088994323688 8.076263187673716 -0.25279806190648074 -0.38402485326566765 0.9474949665772779
Ni 6.079925911995278 8.277477658519 7.67443378443942 1.276311807212234 1.425158111425397 -0.19982382370229457
Ni -0.11237811257222957 0.5608778662037637 1.428499989109332 -0.271993403888009 -0.4274664693890703 -0.44995359474799285
P 1.4933832711407773 8.598795382167914 3.785146105069313 0.055826620051316764 -0.637298055036354 0.0358828299395382
Ni 4.437089547573448 5.606235443777479 13.12399321145113 0.7288326700122415 -0.16962441730077885 0.24434967402881147
P 2.9640061160471447 0.6878248550764217 13.366328858988096 -0.020857303064983432 0.5697924559852123 0.31997867351803605
Ni 1.0120264229690725 7.562025373599109 1.4576597768142479 -0.02110644296131204 -0.3653398752616547 -0.3102935850197882
P 8.55468844887622 8.24717020914434 13.114089350305887 0.9720633999452615 -0.2537753382180855 0.7172308241072551
P 2.890069160635404 5.024554603083224 8.019797315392857 2.982334399763025 0.3586166976052082 -0.6042598936344625
P 8.219938493044596 6.982887751165013 7.216878521168919 0.046373959278849165 -0.20107749360373758 0.47502622144590445
Ni 6.945345442624269 0.4019579413413074 12.641537362464476 -0.6762160722577902 0.658594245410969 -0.15560573442418366
