# total energy = -340855.39545607945 ev
CRYSTAL
PRIMVEC
9.41698173269296 0.00000000000000 0.00000000000000
0.00000000000000 9.41698173269296 0.00000000000000
0.00000000000000 0.00000000000000 13.78270464889266
PRIMCOORD
 96 1
Ni 6.118787302185742 4.42477592107347 0.2616771979168909 0.5831753050500215 2.1506545179755543 -2.4871239900597617
Ni 7.691705718471245 4.932671400112818 2.7951465589306093 -0.9091379640656342 0.6297007023050704 1.2856716511605792
Ni 2.949973034808195 4.7087544145267755 5.7533556857395425 0.6834881804391713 0.5870034205468599 -0.8957741411642186
Ni 4.3148797472241505 4.511694660116247 1.5983386160874609 -1.104023727036363 -0.5657136579301483 1.7129596859902563
Ni 5.7795876293449115 8.653066523606576 7.177921800913646 0.9928260864139097 -1.0440221496717503 1.2072272937097468
Ni 1.4447156304427746 6.775678262171442 3.5902015877665616 -0.24345184480489038 1.7209691865582941 -1.8652638668450325
Ni 5.4095755931077685 2.1087540793703456 0.012903148021279983 -0.36395122244424416 0.921511912249955 1.0478152981655955
Ni 0.3752620034111785 9.071472427659627 9.903176465012013 -0.886171585077448 -0.6745574536084447 0.023350244690166236
Ni 0.5159093302772032 5.027688743226754 1.8379094499845336 0.07313425809182889 -1.6255180101368196 0.5821517488815134
Ni 5.00423104236483 8.448237759476623 1.7721525517193213 0.1637011098378084 -1.655769867042826 0.9750263392283273
Ni 5.328325876914802 3.216982127637981 5.595019500865072 0.349006942429586 0.2707325348977144 1.4379596340654397
Ni 5.6084057400361775 9.313366430887346 12.980633769976157 -1.6682533442218173 -1.9072165571277346 -1.0572468758921405
Ni 9.590348107102429 0.1815396272364862 4.831596112814027 -1.7836889341850184 -1.3945020771024372 -0.0940427261097219
Ni 2.1630241436285833 8.735615783243519 4.5510906021298405 1.5883915375981679 -0.5459483023777629 -0.603153033723529
Ni 1.9910418108942112 3.971602521403307 0.34117441385678543 0.9114175041284304 -0.17261846693209626 -0.008837395785971877
Ni 6.035767193474893 1.468719516230428 11.272625929293 -0.16391014052482095 0.5791134762758221 0.07547421907891518
Ni 7.3202811350123875 2.8689022412633114 4.206908404388953 1.173816836570101 3.374819982201536 0.5718678504570023
Ni 3.5825493486174653 0.5255457274237335 0.61543081563211 0.7332120300268598 0.5771157291195029 0.06056516317756666
Ni 4.519039905669159 7.261745178144575 11.866329885258857 -0.050216987174023196 0.37424129151634256 -1.2765984852147174
Ni 0.6123401623110006 7.017892442769415 0.9724088078054274 0.7460369497056699 2.35229199784782 -0.8302593472908605
Ni 0.20957398109676245 5.062023057695872 10.982968054310259 0.6593894876187547 -0.29523309114223995 -1.853280983451544
Ni 8.292961151884384 5.075385754413284 6.416345082930454 1.9903925157262818 -1.4145260856328477 0.2524936432921845
Ni 3.734322839099854 6.312259186653116 3.3155948742802517 -0.6751305525030953 -0.7902295850624843 -0.14255172945370287
Ni 3.910043713481028 5.280223935524714 13.2070010541428 0.9442777451915607 -1.0244244300454808 -1.876731758275316
P 7.6462216979320665 5.828113334901514 10.941344996177095 1.0377214042647032 0.3816805214032072 0.015181078615812563
P 5.771630279995925 6.151520729803585 2.6255636730768543 0.26691676069605 -0.1463093967239222 0.2539216339879627
P -0.013965383532008623 8.386613032683996 12.308850795481003 0.6839342668376543 0.35950372819585186 -0.10478376667630984
P 2.8873501079788917 6.78856069283347 7.120365210119555 -0.9582113245535175 -1.1816450743652682 1.262836912654251
P 7.1846766017278805 6.725947182985644 6.341408511120399 -0.29099668446338917 3.812363119100318 -0.5278125120090007
P 2.790986136513588 4.279358893088792 3.324181277991975 0.873790952024908 1.3349864382353072 -0.49018364591263325
P 7.297661545502014 1.5073668082165126 5.706797187613714 -0.04680359061710004 -0.14841127355827344 1.6167706029614932
P 5.838669771138453 3.797717958410361 8.10148755088666 -0.22614574942627505 1.1661711470993852 -0.11317507606379863
Ni 1.5872887300210692 6.819617897748214 9.631849686174522 1.2677078675933071 1.372591650182591 1.4131598014129403
Ni 5.882986085974348 5.357396098737667 10.08481873734661 -1.4048631086217869 -0.749242086906529 -0.574024748899005
Ni 4.042446473062984 8.026658332665455 8.899506103793767 -1.1680881616164398 -2.5588438843025676 -1.0800808430675206
Ni 2.2001082166893045 7.940040937029976 12.46555972595606 -0.1698095367283914 2.257600839520822 -0.8099787426649535
Ni 8.257911146822929 8.666466888249898 6.902626706081288 0.44057883840131223 -0.26800716554675136 2.333857702402032
Ni 5.116114199306026 0.7490464824284445 5.6150739046208145 -0.4040540040024008 0.7859340430109238 -2.607150284717439
Ni 5.323108869175939 7.732603669030593 4.179784672637608 1.2920225330792716 1.5704997449194116 -0.8746219325666356
Ni 9.157157542128774 5.4131257951250085 13.269656940407275 0.49910974475766945 -0.5308806094113632 0.2967883514445018
Ni 1.0171564203930192 6.623076077318982 5.910699320766223 -0.375693707692153 -1.9027855179395745 -1.5060627574912642
Ni 7.3196690312163115 3.3012076099780248 11.97397257544047 -0.28294758890666755 2.806453460029573 -1.413364718334895
Ni 0.44480358653243535 2.3352795688258197 4.730196881352388 0.13070562874839428 0.9684659124019902 -0.8017355288195548
Ni 3.7620181816269187 0.3105503900900342 11.566431984616841 -0.7737444429232675 0.9517815097677738 0.1463533625879802
Ni 6.974385988340636 3.0517800215678346 1.7368963147634973 0.5742972858341012 -2.3126440444388945 0.6554875814611872
Ni 7.5035638455204685 8.945934647575198 11.354853128163393 0.2954254096587041 -0.3140078006465818 -2.419860588926413
Ni 1.9298785161940117 3.562265170513657 9.152915191972895 -0.1675816758391372 -0.37947220089797873 0.5910081708308789
Ni 0.9449187554745848 4.720987073466815 4.224798785801029 -0.3837697998320681 -2.3049783003635205 0.7404329732553312
Ni 3.666040306402218 2.574339060628632 4.226865813235471 -0.3692086141884416 -0.9769922047054463 0.015454129771541125
Ni 7.1690820804001625 8.975871231694049 5.057618735458569 -0.8322018157292119 -0.9306259587360811 -1.2961524960872453
Ni 5.7320695408064655 6.0843211499759295 7.59636537289261 0.4282730244507656 -0.8305959046946728 1.5763682878850465
Ni 5.610420974072489 1.742461750817049 7.530634842175536 1.271708761222584 0.27450254346310793 1.5011146694573696
Ni 5.6253374727337855 9.098367326761053 9.937909117797654 0.940377124585574 0.28840989757281943 -0.5690807746301683
Ni 7.510070979721829 6.867748090082736 12.786724937568199 -1.1151563466144148 -0.6004595460517659 -0.6171899714325694
Ni 0.9810705473689753 3.8077658776474843 6.366452031663234 -0.5137912580292441 -1.0585324274727834 2.0615331404268495
Ni 3.530454607080667 8.748375793146332 6.518350767999281 -0.824699850925212 0.5248526580497284 0.4037225888049112
P 4.044028525951304 0.2518665866130159 3.766510081791968 -0.08408690044859067 -0.6580378586868667 -0.48446705514383015
P 1.7713342160288752 0.7388827343191411 6.290425915096163 -0.3777469906767559 0.57110757525221 0.7867691373177095
P 3.9872064597125036 2.302338967615458 2.031901151829499 -0.16625190128412012 0.2146423767723658 -0.9220215048965217
P 2.162176615295555 1.5123766423628568 13.152352427229143 -0.11825634724144793 1.7142835470080025 -1.7561045968088467
P 9.058797170590116 3.2539908648468776 2.8476584727468865 0.7724010415214957 -1.682476686910051 0.11174837091960109
P 5.1297688224492575 3.3340540413736055 12.0865497639166 -1.0124335762321919 0.9770479976440463 -0.9060192159309944
P 1.922862864992834 6.050674275154711 13.042517463759431 -1.3617125413762419 -2.473678148967501 0.5525516666268936
P 9.132362629896962 3.8004206320945735 9.027367994906989 1.6599990746328253 -0.10702859684642857 0.0006085801182763713
Ni 4.440474029197447 6.55526439369525 5.7610324090404825 -0.05319766706890194 -0.3056190623622543 0.16032730826956906
Ni 3.0669319447660826 6.832566247280589 0.9557577011558672 0.4783447442961761 0.9506209138007693 0.7410438673664528
Ni 0.9014914036902213 5.4901755375787475 8.073384453061593 -0.776736949892688 -0.5867028585873056 -0.9611536950112931
Ni 1.3433324078496494 9.51472974583336 0.6963424621900137 -0.22134884225826393 -1.3184236487806196 -1.4507850679648822
Ni 7.692496744915404 8.907541614089023 -0.22577589772981763 2.395578833560913 0.22985122330232027 3.554288125065614
Ni 3.2599988990299 2.8796752680742475 7.237104704409003 0.18777023497187015 -0.563211717443901 -0.5410495795245649
Ni 6.3868887648669865 5.163660538788907 5.024167733852096 -0.3488161665750186 0.8656621522701866 -1.3380082557807667
Ni 7.793795214675226 6.7251373225785285 1.4529724398027648 -1.1385919519295358 0.3262421379292446 -0.7992266463547719
Ni 0.7127044675081965 1.5165106972317386 8.124187184739597 0.6850930630324459 -0.24775484305561848 -0.006986201509846033
Ni 0.3840565224135674 1.989572761783629 10.765821878406962 -0.14724116450957223 -0.8765859982715419 -3.2702133645330385
Ni 8.094375846474405 2.6602878505791665 7.430090672632109 -0.23409380062875812 0.02753265820263 -1.5409235739241913
Ni 8.841490906001694 0.8589388894851726 1.6029284528598822 -1.3680094301285473 2.242913926932608 0.44779875318851914
Ni 4.764578280728897 3.003734582066615 9.82890096530172 -0.8148880070411127 -0.1655224793172633 0.03364288486542593
Ni 0.5997609584525669 3.239159119018885 12.409960925611264 -0.35846474540837614 0.5580098615279874 2.817855788329244
Ni 7.676525544328562 8.675591943302168 2.8153789436362873 0.31998690104815214 -1.5670102437089142 -0.3654578888967577
Ni 8.257383795860157 6.706557618122255 9.018987823089637 0.200570472060332 0.2896658814671076 -0.14079797998738977
Ni 8.337644728997924 1.4458080002942333 12.52091180138613 1.0277789483400106 -0.8544585702448834 0.9545544445272206
Ni 2.8026066916575525 3.003828751881396 11.442428230815192 0.4862256897061497 0.11728704134964317 0.5708759188573781
Ni 1.0198779280401873 8.183771251645922 7.3611772021754405 1.1737813553464753 2.180075651450149 1.940058800468736
Ni 3.629276410711751 0.9141779611375053 8.528186048829319 -0.4107378437804797 0.47817633703911194 0.17431205258443527
Ni 6.56472846008073 1.2149224484144034 3.1773677116540964 -2.183790381297575 -2.1575795272301614 -0.5808708252865609
Ni 2.0534198962050842 1.2702283806352308 2.8746588420408687 -0.021179719401408684 -0.49146534083853427 -0.2984338574677247
Ni 3.8624879570166697 5.05651412353119 8.491207445961152 -1.1024090742510755 0.0814836584977887 -0.2757868094921702
Ni 7.2636097404772375 2.836168813645468 9.547720257045556 -0.4086830181339801 -0.4961756018300101 0.909417442979266
P 7.647172813061353 0.24650549905753885 8.924383885462587 -0.12176024662964835 -0.22030934525015605 0.5398740711592251
P 2.5231295153507745 9.15811807423954 9.897994300104621 -0.8383639786758658 -0.5650042905679494 0.7065003250636284
P 8.221326173780549 3.6221195047884023 0.07604118373743521 0.696838119383516 -1.0501575731455268 0.2324223264636062
P 6.34637691054824 0.48927433986457125 1.067383774502712 1.4399152151299135 1.2571876847882735 1.8669993614789007
P 0.4974878311097621 8.59340994594287 2.434177650006877 0.1945576902073488 0.046662951274177696 2.0931363691544274
P 5.479647352286243 6.860214504900263 -0.06656675867232809 -0.3937114844258123 0.020473437363003447 0.5260811311401907
P 3.0553113896221182 5.127593499727819 10.512179249087179 -0.20826064161573807 -0.07428714074934947 0.06821573774428896
P 8.802956617793345 6.138892557641466 4.179618933763594 -0.8872018261141753 1.2233234279406608 0.5287926165340828
