# total energy = -340893.77715982543 ev
CRYSTAL
PRIMVEC
9.04915054340192 0.00000000000000 0.00000000000000

0.00000000000000 9.04915054340192 0.00000000000000

0.00000000000000 0.00000000000000 13.24434652242692

PRIMCOORD
 96 1
Ni 6.324559804759148 1.9914103320505683 11.553334459722933 0.5453610624157254 -0.8820835310510035 0.022245698772077816
Ni 4.549053152115642 0.24002690454488615 6.121153002055265 0.9611367257304286 1.1306230747914463 -0.9326429891661099
Ni 2.4455419449028843 1.5920803740240692 4.602913695299801 1.662332093641376 -0.8733422945232637 1.60842274521743
Ni 3.261567180574565 4.1368372039187395 4.6254162176008835 -0.8219294872689263 1.728640844170939 0.12707883062908437
Ni 5.0517968009197896 4.517163946104054 2.617480327088805 -0.7363546894208997 0.26525762782607226 -0.09835266633898546
Ni 7.1765101675210685 6.083354700832109 2.6302875896507234 0.38337719237933976 0.20747414115870078 -0.6110154671907413
Ni 5.247240351271175 4.360034498548656 11.652600924872003 -1.187372977987981 0.3064112192462464 0.4811066233120295
Ni 5.569824464750489 8.099478262626619 12.420336274346111 0.4442578299147962 -1.6884449886783437 0.5520513299517074
Ni 1.86922870334215 6.5222927901618775 0.3235496578270539 0.8349639518553814 -0.9511608454646394 -0.653559511200539
Ni 2.7506430998083076 1.797523235568079 0.40565621907153343 0.19318600667080277 -1.8041559437901187 -0.41105640346216304
Ni 0.48407072695258274 9.138284532009788 4.965093271271822 -0.46667116461298985 0.06496303513494618 -0.25495624590006416
Ni 8.753297477368184 1.9093707345190527 1.3536651231655237 0.5196582583329824 1.9226272352558504 0.9210786813672781
Ni 6.807114799019636 0.7779970860283496 4.81990870224517 -0.4695675123241784 -0.2822778165331526 -0.16528182406136696
Ni 0.6771669276900626 7.349367038472647 2.236228761732553 -0.3310547288265396 -0.14992668176153534 0.9903161755078623
Ni 7.637057628007384 4.171703580412114 4.065139880380029 1.0535015499170952 -0.8191663227014924 -1.026621951917432
Ni 7.823189602596591 3.788906420167445 12.793945832189088 -2.552303512080888 -0.2924483293082512 -0.04845860972201976
Ni 7.9224768807915815 8.660896602628023 6.719744346987149 -0.3305716185425339 1.0484372480203106 1.2350162908975568
Ni 6.893226514231406 0.7993458416533608 0.47591834735671446 0.09900264121815854 -0.6594285683868062 -0.5718915046060861
Ni 1.8527682987635237 6.522781444283508 9.02026098791043 0.4414514708142527 -0.641450900862463 0.6774314327221301
Ni 0.17944374752814868 4.863013425263218 1.3244879475289844 -0.9558795910965472 0.16531807661594108 0.7593930592976018
Ni 6.546535464084989 1.8009438144194923 6.984790342559514 -0.45597923211678243 0.41516785452737526 -0.00042397491129604403
Ni 3.2215427883528696 4.193005280455042 0.3440269802684907 0.9718397139702295 0.4708504928016601 -0.013316257492931903
Ni 5.888987999378389 5.568186568527986 4.774533547391621 -0.7898326067343817 1.0986244103976628 0.20101630134849896
Ni 5.266451697571574 3.131729970627269 9.065079620014345 0.4986793420884702 -1.115560266921053 0.16766317980934997
P 0.22206705574488628 5.453189965237617 12.328870176842328 -0.2949016759447502 -0.348518947049574 0.9130930920586403
P 4.269787321603829 6.013540505491755 12.669196959512028 -1.990100952627792 0.9190601082753527 0.034030864332463974
P 2.406648696481259 8.387114557258952 1.4202180047015132 0.8760977457812137 0.6771074737238081 0.1568144100203041
P 6.234918920891159 7.695587532798235 5.776892553706441 -0.45121060708354555 0.14627468683124487 0.4419150407142325
P 4.7601245852088026 0.9472922113822655 12.752583975538188 -1.1549919905541142 1.8033481031768428 -0.8409183696666034
P 4.037450385069342 6.233552499180674 8.219335164597132 -0.2881147349299038 0.25130913606578004 0.7838087691378051
P 4.680130095667815 1.1264653893134373 3.869733431545285 -0.16403715302098845 -0.8645938589066723 -0.3281105585965511
P 9.454280863997493 5.621305081379299 3.5034609248470874 -1.2507393580597683 -0.37771562321818825 0.4020829963189591
Ni 1.2850698483841265 0.7347005210218099 2.739102718302468 0.4773021619642748 0.3046456427053914 -0.9633779563561216
Ni 1.709764574983407 6.8732731375981615 4.7410525958245735 0.62628113510056 -0.42141717787119676 -0.3771821193122214
Ni 6.159114187985633 5.671229244139211 9.265850405206542 -0.7743409388566858 -0.15813467149362442 -0.13120416565136758
Ni 8.643223611895722 2.59896124079405 10.34178171902307 -0.2982438529441057 -2.6812672184375113 0.4677358584320784
Ni 2.569895369707438 5.073858629596365 7.009610352278182 -0.4917175660586563 0.4911218414561864 -0.5846014959735868
Ni 0.632491272162477 9.039431613034026 9.109805950784175 -0.9011320630420222 -0.027498719640901028 -0.08846394647036378
Ni 1.5880444529454176 1.106285783920179 11.401792862539883 -0.7074477765785623 0.3482649220572389 -0.1877362964101412
Ni 4.138945655962071 6.9561000112145255 1.6674760853314903 0.3644651859661852 -0.11437578124011916 -0.6991770519293379
Ni 5.432729836181941 7.959198333117071 8.188237759245592 0.9497459673949836 -0.037801901339121986 -0.13632194649390716
Ni 5.1058111796607575 2.982391841566758 4.76600472313909 1.7451632673059942 -0.3366605050490912 1.130800223799259
Ni 0.6688543781321042 7.262133228611208 6.940792468396931 1.056470402737432 1.3328315966758335 -0.12388809160592856
Ni 5.099069562612337 4.785054994562357 7.03378063299809 -0.08750415366025575 -0.1141243273509454 0.2260303068943333
Ni 8.234093423985412 7.114984993947632 9.375858211881082 -0.3637915569379283 0.06108863978120446 -0.709552995847023
Ni 4.557975614410599 0.41673509390694424 10.399870930189412 -0.288620985142361 -0.586941456960673 -0.07821064417347175
Ni 8.019583313740036 7.15680111794864 4.62568045279258 0.7291756551739571 0.16752099780453086 0.09589777704058967
Ni 7.296456656080547 6.216413408322006 6.974525891260155 -0.07305712499699031 -1.093582477098381 0.39117431982625533
Ni 2.3404360630003302 5.152287616118055 2.5239881248103355 0.11501135794158902 0.6745065457658512 0.22866105964896105
Ni 2.532205658289088 5.162341222213082 11.376734860165682 -0.921963912185709 -0.37087803147106446 0.7275476326522308
Ni 1.0281373210609062 3.2114620348066407 3.644738070730776 -0.8269127994161307 0.983573200357074 0.022991575799166854
Ni 3.456259651442704 2.6130145713661266 2.6631070483234898 0.5027830798441987 0.10014703923524688 -0.6676707537909404
Ni 1.2113735675219315 3.4051681482811187 8.146676821285881 -0.7833014904840832 -0.22438557220205868 0.0013459725049331658
Ni 3.768735863924588 2.840582605639516 7.0161130717560285 -0.6073143641900702 -0.8420650816765369 -0.21054352411264382
Ni 4.0304734901105075 6.924437033962952 5.961836374848052 0.17365539283704287 -0.18658932728989158 -0.1299337835793762
Ni 0.7387047700740597 7.072417790463379 11.20914097508707 0.9683059897853581 1.2114181918626428 -0.30804232709176627
P 0.18669483174412077 5.54402533695848 7.994234833637975 -0.664062724724708 -1.0526962804069806 0.32191265731595525
P 8.579626182880556 1.5256596100839277 7.899616917049675 -0.2468539285079039 0.22766938515965307 0.6001271024130117
P 1.7321431239240024 3.1468058551946094 10.436968827171563 1.3073655911942452 0.0977605412809413 -0.42931380701045424
P 3.91295217385838 6.173647123528939 3.7962932416394257 0.03127412752293324 -0.4452101665257365 -0.0856763564228976
P 6.825937031852811 3.756546658335028 10.5177324944966 1.4984528063544904 1.614993713566728 -1.9142855481593741
P 6.307375468148477 7.900650330025421 10.317796040971334 0.06275985683604031 -1.19075012199033 -0.24830840156624334
P 2.528006852503226 8.624944328086581 5.794799012519077 -1.5743186044448694 -0.34573315677432065 -0.029540175550962028
P 6.9649229328550755 4.029125166700823 1.7488360916679233 0.2958344721716647 0.19931011729066964 -0.9760545233825254
Ni 5.355866352679548 2.8481295970735863 0.517242197575931 -0.2038817958217521 0.5257594861347139 0.22749300748278883
Ni 1.6358782619628 1.07839630238564 7.050257326047437 -1.0381602915743346 1.0239315495694623 -0.8677671144283312
Ni 6.788880760962499 0.7444003053361747 9.398055777813667 0.8609454635208076 0.5951108801453429 -0.9335225635575859
Ni 2.637954029870081 1.4687223557635776 9.124639318120778 0.9326136785900712 1.239183277791053 0.9109472493602311
Ni 6.360674964007799 2.172746256927475 2.7369571647424946 0.652775838956979 -0.06712661844516826 -0.2524435067805394
Ni 4.073040693594762 6.848035057130987 10.61717089350328 0.7913405587384759 0.08137695771659532 -1.1496389537723168
Ni 8.238500360230486 7.0188287217912375 0.36568974141240146 -0.6487808588649729 0.3457367563187465 -0.20892064379724018
Ni 7.636840448397772 3.727942293918844 8.164252081193856 0.31279886794014516 0.30118648051219743 -0.14818115982533833
Ni 3.0164618928248825 8.362908079937442 12.300712840455931 0.5671401059640298 0.09408772041504442 0.6847061120066724
Ni 0.12501853735899515 4.771399826607905 10.050432557981383 0.23249174624896088 1.4546036703800238 0.5194921650687634
Ni 8.713046856386475 2.647057475173049 5.789805691328045 -0.24802892265261156 -0.5757239909782987 0.953259894085513
Ni 3.734077617890427 2.5522585755767384 11.388522283477457 -0.5842492548404906 0.029376910500220375 -0.05410783758799713
Ni 0.9882577152456198 3.435310868265398 12.66968742346374 1.5558061474629785 -0.9664748501138904 -0.9863553910879013
Ni 3.0446771437738414 8.384191681679571 8.106626186528024 0.5621064001948642 -0.24823846756025636 -1.087803665633075
Ni 5.581009214645586 7.909020794145942 3.664750266841624 0.40630500482010673 0.06263438700176954 -0.34726502003781484
Ni 3.2063311665295204 8.34809462073172 3.6407781625154896 0.2498186675631827 0.7606115050857353 -0.4132552108856947
Ni 3.376980044783361 4.407705422858829 9.319304641537718 -0.17010084271656511 -0.05678127065510221 -0.29267098684201853
Ni 7.2147880737154555 6.0272318700478085 11.452690713882898 0.2765180312312399 -0.05630535945994819 0.07867395696313548
Ni 0.7460499654541976 -0.24446008332612254 0.07411616144078129 0.023872178631907274 0.3078754624965988 0.4777107102566031
Ni 4.813876538588155 0.5086482194405152 1.645305666850108 -1.1413222063765052 -0.8467483460848192 0.8334372307982099
Ni 6.076432100775677 5.674640773840224 0.4040662833461543 0.6268442066928818 0.18486257440677195 0.6803336939705896
Ni 8.01005455836824 8.58320964643918 11.58459113012152 -0.43680214496769937 1.0242236268885843 -0.38116424388842096
Ni 9.41736033036319 5.198945035583364 5.734457467818034 -0.5878387719639618 -1.4736077222863524 -0.007684256018135153
Ni 8.053499529441352 -0.09491563363647817 2.620248462196338 -0.9406676592427993 -0.051797187176949505 0.512605208140943
P 8.34024900733443 1.900728795886514 3.7488123494876655 0.05115621115884093 -1.1467955707862507 -0.6286550346493753
P 1.6199065115058042 3.2510430186587085 1.5593894132869908 0.9129259703531567 -0.7485586876862592 -0.19745558058043414
P 4.713720541954709 1.1355326380148028 8.107540150718481 -0.005472593078797027 0.11786476822998411 1.409606022623411
P 8.699319295228818 1.4802871699754987 12.52550911996163 -0.7412492985090395 0.2800486700923177 -1.5943600964767768
P 6.423439871186114 7.909844266832394 1.4909561182977638 0.05921224869409803 -0.955525035970606 -0.06102204820932717
P 1.7706472588784032 3.258309486430362 5.883192018546828 0.4810788553978876 0.008988319541539358 1.0548099843158738
P 6.746575982839862 3.950840966585542 6.013290748940699 0.8693753394557157 -0.5822756760538875 0.6933938695886575
P 2.369710064546156 8.346565314314024 10.185484793304525 0.2347347766468667 0.8825350167661252 0.9227069609993205
