# total energy = -340855.6640347512 ev
CRYSTAL
PRIMVEC
9.37754308136737 0.00000000000000 0.00000000000000
0.00000000000000 9.37754308136737 0.00000000000000
0.00000000000000 0.00000000000000 13.72498219615904
PRIMCOORD
 96 1
Ni 7.9899760600764775 2.370070829941644 9.944202560759425 2.7849397543275134 0.2774783382619802 -3.614661483947349
Ni 4.075555190371403 1.3014341669507326 6.2125443768015645 -0.21925699272624177 -1.3170465659274349 -1.630606994623953
Ni 7.181481816314142 1.5855643410687037 7.52292378198099 0.4012658997343025 0.15290530477388503 -0.9565925580031719
Ni 0.6791685488132958 7.866145605301474 2.188229018913016 0.44669806392517264 -3.9571339676925272 -3.8689219893319686
Ni 2.5996237040376147 4.05658442096513 10.437368482733138 -0.6173977165680012 0.9982117762058551 0.5605331421704733
Ni 1.6737788876850197 7.619881949652377 11.57168358110104 -0.991165667992351 0.7191007874364583 -1.2287276296753677
Ni 8.129720205253085 6.370774472413458 0.5051194759836853 -0.2829658437391127 1.6049052189824746 0.19218379065853355
Ni 8.826359116599196 2.6933991336286804 4.984090000175783 -1.2422200077348475 -1.5323980529516834 -0.2399554016158577
Ni 2.863845354453402 8.21151113494241 4.979134906476191 -0.5773062478637542 -0.38840755571439556 0.19245889869679111
Ni 4.695420157511308 4.448218747566299 9.378609185741054 0.822290727263087 0.07886833236212869 2.512073460916248
Ni 4.005908178814118 4.116169328927294 1.1976135133418717 -1.0518365035098465 -0.535840781630116 -1.1479607947389454
Ni 8.119132959252251 6.134235328812953 10.44296781363402 0.4461725304390058 1.2457532176990869 1.937155253668696
Ni 1.9172855457041407 7.081976707975063 0.04942996669174682 1.009370621036152 0.9059107153775882 0.7275903129647082
Ni 0.045965902322652845 1.412576806102064 2.1091866470650023 1.4913547618571286 1.7633651350260018 -0.5817054053727143
Ni 9.245338358469118 1.0270285048813552 11.425526134294701 -0.9497557375869965 0.6714585029681468 -0.6680674750087269
Ni 0.24110038049581445 8.348854629121487 6.226447521992736 0.3199732742013973 -1.684316568332267 0.7295006426135435
Ni 6.1586825833073435 3.0708358601897623 0.6873495172908204 0.5003860403669318 0.16466964439866477 0.20492592081555028
Ni 7.043284965725788 6.657755419590997 5.971012629329631 0.07167412860653462 1.447661691844552 1.5530679225962092
Ni 6.092683435961152 3.200883625946653 5.257368481581476 -0.717298444120397 -1.3351921264882103 0.8549568500375405
Ni 5.235388458639625 4.160618882553459 3.252559514177105 1.3530726063130567 -0.34894292196087 -1.1442596917382746
Ni 3.0146550003217545 2.373484255578759 8.267147159564496 0.3374768303027994 -0.37689878374384767 1.7991366361986565
Ni 7.369585950530862 2.6816021845861244 11.896580747725137 -0.9209516688711108 -0.9526549135116625 4.685653477339724
Ni 1.5761305328518425 2.277730164423321 11.681620268227832 0.40792479981171686 1.1518459887259647 0.4866892596061296
Ni 4.045556430445221 7.571700133928486 8.98438665728317 -0.6242844163855056 -1.1159109653922525 -0.3606861785397272
P 6.922577232756168 0.5477676036074063 11.629465187552167 -0.3690304367393644 -0.21940071739295763 -1.1298268041423962
P 7.609032132448689 3.9252613093658013 7.245363514460168 -1.7434637681163843 0.5959454602314962 -0.7267693597253096
P 5.048962904612587 6.7482205765174985 0.5054430012157746 -0.020620247353512873 0.4731940533331721 -0.0927170653197629
P 5.773893863066323 1.8482855846110342 3.411440411270361 -2.007360768149504 1.2264352340967652 -0.7229314740364582
P 9.142513599922516 2.2602785569764237 -0.013654640302755127 -1.4822270885242472 -2.0083069341128574 -0.9686384334241124
P 7.097074552139224 4.944393923075589 1.6315846331405193 -1.292059299854478 -1.6827242841444827 1.0552154472844084
P 6.335543043516094 7.742699629787794 8.361712178272718 -0.3577741470992548 -0.11622311886150308 -0.08852102496054431
P 3.328324434760911 3.2892669683362326 6.373428317070886 0.5701590952960116 2.2019639668828073 -0.3681272081988047
Ni 5.3647047760457065 0.8128557389926154 13.004599340127113 -0.7760399238256634 0.1878766786427474 -0.44462395500496327
Ni 3.784391859034102 7.9831492088022475 12.42158905457079 1.9218954992961481 -0.10736232603676349 -1.1369333332801903
Ni 8.800055108598901 6.789050398561448 7.973692894482284 -0.8792758863988793 0.954891259041349 -0.6785375213021153
Ni 1.899890203514998 2.3743469895309968 4.995372122109885 0.4873256076385478 0.6893610942801806 -1.2286996046509098
Ni -0.055560066524114805 2.7484453107986364 7.1582236342669665 -0.016469458409932927 -1.3207926632334286 2.6938332280279798
Ni 2.550110277213532 1.6239653794862452 0.1302690757707253 0.6928680789921745 0.447974616644751 -0.04048433326729157
Ni 1.5924755902295653 1.1808108318677446 6.957975581918204 -0.6712481867295537 -0.11717416992086271 -0.40399538285032355
Ni 8.865163389363978 5.440597231213756 2.9306537837569655 0.8780150174085847 -1.9088738902254996 -1.463385787448028
Ni 0.6543658854407547 6.617094393320311 4.540882938316711 0.5894444258881848 0.1019961766288437 0.243926984669096
Ni 7.49261931415434 2.9122803638371875 2.932520852560123 1.4695744327572433 4.517095810740562 1.2283234522584134
Ni 0.3266910905921723 0.32513441846096053 9.005592095176599 1.1044165915994075 1.6038598084370959 -0.7167919367976237
Ni 7.276457571403974 1.1870656530214687 1.8307205088943317 -2.1622501932329534 -3.7893226923410865 -2.3595232254889367
Ni 2.746044659801105 5.5274614116439595 5.743273372041951 0.6092408917888218 -0.0704058034170723 0.038403796589179015
Ni 3.5422636998299692 8.549037038669535 0.833832364837841 0.4523184954357436 -0.679328649744843 0.9895229901826055
Ni 2.0509999307580418 0.2643144880910828 2.2169552462596473 1.3355101719492612 0.4536593257343542 0.7987484211667727
Ni 8.949345592507878 8.90186709250592 3.4563213318726453 -3.0615822269517596 2.4886720512731717 3.985280348219756
Ni 4.527027618594631 1.1006140844814647 1.386758554827052 0.4399879988948487 2.339537783505945 1.8286829823972055
Ni 5.849120512684276 8.50659427923662 1.7589663634341357 2.1187337580075574 1.6492667758169857 -1.135391185604051
Ni 5.383384841620247 8.880148703012631 10.24874577039078 -0.16353887322833124 1.3294999611994394 1.0468375076333583
Ni 7.364071955270907 6.90701988898701 3.41506389386976 -1.8192583466491958 1.6042927822094564 0.02117483430540224
Ni 6.864774057956235 5.650663571040703 8.560970899839296 -0.9843075074199371 -0.778430278434711 -0.40441138734181964
Ni 5.072359874295557 5.6587751457003295 5.087137006490518 -0.37586674293490757 0.2650005175099436 -1.1143551908693583
Ni 4.663161409731982 8.221085606303658 6.789693698008443 0.3218563501567231 0.04661178632126811 0.3895056738745808
Ni 4.7969226825006785 6.8905810561796965 2.6774554350896076 -1.5369468486646305 -2.1165048686770387 1.772987231496798
P 1.4420410460795772 6.3615657252276145 7.51729631845123 0.62668094164214 0.6751395513641598 -1.35638572984669
P 0.4767992962471835 5.80037604438284 13.191175872595792 -0.5250714589287538 -1.364919478349314 -1.1253212029625588
P 0.6713851881572374 3.8411916367374106 3.7730797289625317 0.37322879109142815 1.3116433926339925 -0.5258240208240622
P 2.4907316751964688 2.326727826384653 2.551583489212407 0.7505366373482364 0.6845698435391243 -0.5670776281572104
P 4.695692106257122 0.7121418653661065 8.172252051344111 -0.03629549199692459 -0.2932510277152046 1.2931679595376244
P 8.1755107475224 0.4067903115316772 5.936713328202402 -0.977029228590969 1.2954706395288722 0.12573388656541573
P 5.500266537062551 7.819539216794714 4.856681075007585 -0.2566297769477451 -0.12683843248350413 -1.3404513180046205
P 6.706359224748047 4.364739860144333 10.831042424927913 -0.320216500560455 -0.09361669431589684 -3.2362408642423364
Ni 3.9599113305997 5.613950490355801 12.754982275115836 1.3705357960948268 2.14382026866254 -0.1671744130983895
Ni 8.4650236312989 8.484285104536905 11.938744056377871 -0.08377888228986861 -3.007197738663608 0.7557271804102405
Ni 3.110212163075051 5.117503366100697 3.1193730847918024 -0.8091742444857871 0.6363557457277427 1.6944210037561205
Ni 2.786593155556282 0.5624800307559487 9.850364301630535 -0.43256573828884853 -0.6550304393191106 -5.87500723320316
Ni 2.6685298897011296 4.682357240169273 8.156208013095377 -0.44019420136838383 0.845386432740286 -0.7788015457312008
Ni 5.006416992207121 5.153100519173465 7.333010719727459 -0.7584998580593711 0.9122171172115903 -1.9046004596611263
Ni 2.1438282285102384 8.595727825062928 7.65863558368518 1.2857899219059987 -2.545564650695158 0.7886151893875128
Ni 4.293789370115732 0.2729418276134609 3.7690717671018095 0.08661198086328954 -0.2376930879442422 -0.3863493876337862
Ni 3.86576079929027 2.1253919790526346 11.205473648970601 1.5398326548528578 1.1680238840374078 0.9050072297267122
Ni 0.9429025669952099 6.304372090720024 9.66587333471596 3.1114408023450992 -1.3400759369430728 0.1852238144009326
Ni 6.6651355458998145 4.920912555505986 12.755188581060935 -0.1833916462882003 0.9365865471948903 2.8310337204720986
Ni 6.679595717142757 0.23377183067327262 4.353152968064061 0.8849819356447209 -1.0365741780341375 0.5511851252966701
Ni 8.890398357466934 4.516562280652268 9.2313545664085 1.0797915939618759 -2.863771577024752 -1.9296861989851606
Ni 6.365748109387377 7.952081408978727 12.888992990527244 -0.16813112058470397 -0.26250037679590926 1.0668702579145175
Ni 9.14561756664198 4.325785546692203 11.696800634770034 0.6044141598241397 -0.1067671156549258 0.5451576881556676
Ni 6.00977657865969 6.494032897067956 11.072478521461665 -2.276285046193886 0.32478535087806 -0.7180376362792666
Ni 7.527025519271302 4.835811353152094 4.797690703269029 1.242770480921679 -0.07835334039892312 0.3094420356527703
Ni 0.6672937661641791 4.609521864005893 6.228218002103415 -0.5811847569825539 1.302152679534738 -1.1308989541606522
Ni 5.775300494510189 2.2612256888152937 9.754427348387395 -0.8284204943099088 -1.0620445543911 0.8304830332658923
Ni 7.429780398785367 0.14159152113955062 9.250514762182547 -0.2709410513640947 -1.2440051246597286 1.024509019339487
Ni 1.3975070945667798 5.451137589499791 1.6086087151364123 -0.08342329872266277 0.48460795159706865 0.49394234162411704
Ni 5.251105220639088 2.82293113452282 7.602157455705369 0.46776516900811704 1.431823953481347 -0.9381510634685327
Ni 1.1286248053003163 3.7404486927277283 13.907936177869258 1.61328084464068 0.5358261263420965 -0.4754638232039554
Ni 0.6510968739652101 9.53996200315833 -0.1706290829124242 0.10616830572866232 -0.2524414498980104 0.811149623044603
P 9.166238783609055 7.95813930173031 9.985652238392975 -0.1381641419089685 1.2684773987694797 0.42235331653222097
P 2.822105910742419 0.3431008530163129 11.703484009636988 -0.612970534034583 -0.7232279222309544 5.829620320427928
P 3.112143936924627 3.8754478011670273 12.776022668253182 -1.6971103776628258 -4.697555628093949 -0.09425047124515382
P 1.053482553568995 2.7418528980983843 9.15803530902843 -0.3840040273300612 0.08517139176202106 1.002494462741609
P 8.156577488287965 8.515568587848485 1.3163435225014162 -1.0687895864244172 0.7366256836940992 -0.4210618514143071
P 2.586288837949765 7.446894414685737 2.743513660956442 1.9400156059356266 -0.8728573844670451 0.7944865605666253
P 1.0570647749793738 0.34005315155460325 4.892228527102671 1.307177386442839 0.36198535696712497 -1.020891477191558
P 3.7454656782108504 6.260494567214365 10.666644719311815 -0.9289388008416453 -0.17605911718252903 -0.13050533981213006
