# total energy = -340887.46477088943 ev
CRYSTAL
PRIMVEC
9.10580013059433 0.00000000000000 0.00000000000000
0.00000000000000 9.10580013059433 0.00000000000000
0.00000000000000 0.00000000000000 13.32725891950865
PRIMCOORD
 96 1
Ni 5.169936256742064 3.45401201012993 9.542530431713011 0.9350883653828089 -0.8739187358520238 -0.18303194895593639
Ni 4.64558787650553 0.6050357835449864 6.393192111476946 0.17948176971083282 -0.3908501037176172 -0.1856801852120609
Ni 2.8737540186358888 1.8660606750182873 4.994843562607334 0.06332369975931029 -0.2118758697708222 0.6737467847816913
Ni 3.846872640112651 3.0495870143007866 3.0237147051043767 -0.34316616737809286 1.447347760148559 -0.4857304952372861
Ni 5.332647794781217 2.9947518874290098 0.7522747464296192 0.43945809453330764 0.8454977615071696 0.10747262636238264
Ni 5.351423954131866 4.92865077154639 2.6062784318280263 -1.2995797766012391 -0.4361480563234682 -0.8674282430316738
Ni 5.229661198148903 4.6751908319123965 11.877239309107544 0.5439392423675342 0.4839302088037537 -1.5607161831700862
Ni 5.688420501856474 7.997624033789722 12.732436000990335 0.3316903055280094 0.052675733127160895 -0.26058619049233184
Ni 2.3417749781006925 5.672458034668459 11.808537870179915 -1.4086860819123028 -0.311810792995263 -0.8347927163848398
Ni 0.27557155348034673 7.462512598096125 11.45415197642624 1.0333764970324462 -0.7892006295773376 -0.082579976885761
Ni 7.966527727202689 8.990156220608668 7.200291057818487 -0.13978342267994637 0.10596056059323042 -0.7838781889231596
Ni 8.658969173206907 2.5226343752988383 1.5495740309413022 0.6372412336564895 1.518592771637475 0.5286684322513927
Ni 1.7347550407620562 1.558102523108042 2.8852318793834604 -0.1614375106146123 0.326283018469509 -0.3368749350527424
Ni 1.6244109578274506 6.907277344669776 0.7086971199483401 0.2047711404052409 1.4091257405528828 -0.7485607445687882
Ni 7.4956212864564336 4.261031736012524 3.9153755726029162 1.004000357863174 -0.8655158565003094 0.5889605442732309
Ni 7.611610965316064 4.222204605328157 12.977231772039392 1.5319676502824844 -1.4980676551009298 -1.07829238370853
Ni 6.864525614237529 0.7124177497789292 9.170299901936318 -0.13897378229445742 0.3366805596537492 1.0904452170209802
Ni 6.889439082706673 0.7281880845894957 0.669469334069294 0.25060439668927165 0.2571722797147764 -1.5444400717178821
Ni 1.8047877476320056 6.6391570672304745 9.431967809581309 0.46073088786915495 1.9095416057164856 0.4378583541463556
Ni 0.24431316365546527 4.998765430615252 1.7286250162834642 -1.537757517491384 0.15200721843964787 -1.0795493960440827
Ni 6.406476562920525 2.3444247658655026 7.173730350151219 0.261054388378002 -1.1886711279741142 0.7748466748485107
Ni 3.48593694450596 4.333368210251878 0.2873025554645563 0.29149830669015603 -0.005635601019222552 0.03451011796172766
Ni 5.381108861737642 5.268980042026739 4.738533507611191 1.6880040444861832 1.722398462805653 1.44703819932794
Ni 6.2912973002501325 2.2068088122930742 11.726787820025574 1.5232531532276217 0.27552944206572544 -0.29982893804303845
P 0.2498595063618086 5.6960238447555005 12.795087546478308 -0.598634319917569 0.8778761778378752 -0.13030787908934335
P 3.9782055917685195 6.28277427156332 12.914033878558675 1.288260494933678 1.222483705648185 0.1314893009919542
P 2.5216054199125026 8.951392830523455 1.4095040643014636 -0.50927614376771 -0.6200079004973387 0.7268197533472708
P 6.467066555315876 7.89078568380856 5.762973327786395 0.22642008613358425 -0.10828740895419414 0.55008932112933
P 4.766094032105181 1.2817141793785423 13.023596683863655 0.24520945092594543 -0.9589425462925871 -1.4902887824864595
P 4.07533715907859 6.494311108554062 8.416083798972481 -1.2437631838522516 -0.4386700514143736 0.18527060847846802
P 4.928769146944818 1.444434823217575 3.747104943737589 0.27118350639220395 -1.6384532301412493 2.4680623454426205
P 0.17626643173914144 6.049611159859779 3.65088213525545 -0.08175722387414952 0.6939605407254049 0.03191613198230632
Ni 0.6480370128939201 0.3364784277114895 5.071594528628064 1.572210042742299 1.498372073715226 0.5889003804592567
Ni 1.8427407215279814 6.563651774633203 4.998641591736895 -0.34906556358166335 0.5839594915142136 -0.6826862533631662
Ni 8.126589477477031 7.342762223886437 9.26008582048394 0.2690152950962915 0.10697434656972545 0.029237556708878676
Ni 8.636505164905236 2.329117916268781 10.119267210393817 0.06925523475239685 1.2296506557102693 1.5020793473634841
Ni 3.4063704651626203 4.506861015347854 5.319415246396948 -1.638877205052545 -0.31170923442039217 -0.5391143101750652
Ni 1.6248571420215252 1.2994613833428554 7.210792776819022 -0.3943421760312757 0.0977577130674639 -0.021743819434994812
Ni 1.3435789837569636 1.2733368434897951 11.760932748412122 -0.007835951104651021 1.1979880344996658 -0.957396541961706
Ni 4.078332967238804 7.033866174588648 1.704916245138322 0.7275625450505663 1.2970094447709017 -0.37021700084829784
Ni 5.740742427961627 7.800319562009971 7.961917460723914 -0.2835379141924988 1.638440888846075 -1.087897768008778
Ni 7.057504831074721 0.7453060777821647 4.935310753577944 -1.2707340560141405 0.2106947049785275 0.133678338223473
Ni 0.9530585443431644 7.89010274881763 7.404971227500288 0.49099200074654153 -0.6840484238180154 -0.8105335867271589
Ni 5.065428991529943 4.750932875306524 7.300086071593187 0.21355711412798706 0.47668561142619836 0.14600112145488406
Ni 0.603761882141904 0.060851328851880424 9.479932610444326 0.05187226338925905 0.680198453944306 0.08508217448232444
Ni 4.484697498442191 0.6220390436591791 10.660900219960805 0.91838287970267 -0.44946534225766466 -0.10563197360921807
Ni 8.714505446669373 7.544191623011409 5.053097006753716 -2.075842615070986 -0.9708549814594571 0.1730082461713472
Ni 7.635440843599598 6.336343692251906 6.968343570398803 -0.9512546907300261 0.08608927559060012 0.5702429132590696
Ni 2.4899991885322406 5.341216352467424 2.1731027834606977 1.6440816320716203 1.5127933913468785 2.5168577696787686
Ni 3.1783066013913612 4.7549394272533165 9.631049733497456 1.2067734940017798 -0.411984057482755 -0.6058274952318986
Ni 1.0990609396042192 4.191800339531932 3.8265220879629114 0.9144948575021734 -2.3270738467109795 0.8563871547261639
Ni 0.5431600522067102 0.5802780242537751 0.8340949112430287 -0.4322816313895265 -1.687623521218313 -0.4583153364491268
Ni 2.2246106510566612 5.542436318195177 7.212858882811583 -0.2269168232643447 -0.5356042401392775 0.7351989785499016
Ni 5.25993798274682 2.941191572540303 5.248794304854811 -0.24500736221746836 -0.30167293323031275 -0.6392819182356022
Ni 3.800542330327928 6.922201750671577 6.193124029433895 2.269215540941614 0.941814885473365 0.25827296897812296
Ni 0.9195127775886599 8.374822687980439 2.9875847123441917 1.0280337446632941 -1.9749561265665536 -0.6759075398784359
P 0.27413647941940483 5.7347052826418015 8.232061046896344 -0.5517358555938175 0.10588137061586282 -0.9420871652981453
P 8.713613078281224 1.7294281478327986 8.138997040392256 -0.5055328746751939 -0.22227263962411398 -0.9735996340841298
P 1.7617082084041118 3.477559608617213 10.573353417603448 0.2514379483341605 -1.4545887579816885 1.5309389519076537
P 3.706552263976138 6.486206946661687 3.908485213834422 0.1724667718455804 -0.9821781197817603 -0.8276905581224197
P 7.125352145973692 4.304002005641868 10.52752119507211 -1.0613477854343913 -0.3711737083346124 0.23033767602043556
P 6.349401409278497 8.037798822856193 10.36646144913102 -0.22665585629347418 -0.5080240165281638 0.8870215917825691
P 2.616405902453531 8.734456254204423 6.12038325767991 -0.8543868364666835 0.6018808518793247 -0.2643801103171253
P 7.161338267095789 4.2464624562060065 1.7283855337466445 -0.3268134370516823 -0.5786658472154421 0.6561424414363668
Ni 2.5641295053477733 1.911243654018247 0.27898713901498695 1.6815060954666654 -1.2659168371311553 1.1760087020150973
Ni 1.263411521621606 3.456033497703084 8.305973735094767 -1.5028036271240184 0.7262744223667621 0.46207274660903
Ni 8.133400615786579 0.28033570797707763 11.605629689154581 -1.1964014067388362 -0.23460082217216371 -0.32316169923170796
Ni 2.9349267822235006 2.0558801792974406 9.338822761458296 -0.1262725326777051 0.24098307154942367 1.5155532134802028
Ni 6.605456501878026 2.059413229650521 2.521544411053313 -0.028267222375809385 0.8786552220957449 2.136486196894972
Ni 3.972960651038173 7.155774623369675 10.633592836703455 0.8887843401099468 0.06618328069529247 -0.12417528382904419
Ni 7.150456836240297 6.2528344015609285 11.700319991517073 0.5510313733276252 0.11290073935648944 -1.3513926475074727
Ni 7.578165362360229 4.023634427365214 8.35589810409176 1.202513176063529 0.5550960303153021 0.24928619209848032
Ni 3.4096667647188452 8.586040821975413 12.567458029361282 -0.4846920266704427 0.22356101941823434 2.6724141389222558
Ni 0.26771962224462215 4.982056287837152 10.316351321816493 -1.4314768545545733 -0.019269132642257138 0.6486736438631474
Ni 8.614332542199692 2.3895895332657044 5.839484811270306 0.1014099651080705 0.9475124500787746 0.514004916701947
Ni 3.9499958237431514 2.8594761244255023 11.694776380550694 -2.152711400504583 -0.7176491425915963 -0.6923343179758915
Ni 1.2274709294989052 3.7530100549591676 12.952389328809305 -1.300525171233644 -0.6659254889650597 -0.8483917952255131
Ni 3.0440233705746733 8.92552325306701 8.721051606202439 0.46849561941623835 -1.4630682562076094 -0.46252783186857765
Ni 5.4648731148252345 7.895092727151362 3.7686419816115717 1.1949654456232581 -0.012707420264339405 0.503257705487772
Ni 3.298621535193551 8.718821595812054 3.7286338286828893 -1.1132781557550957 0.48265108498101394 0.5896282597642168
Ni 3.497055126158308 3.027423497395123 7.310921062869295 0.8096725242784443 -0.3428010707291903 -0.5607858816112278
Ni 6.071455973769676 5.9721936492879015 9.264310911627831 0.10173700943018608 -1.073529157991932 1.5620176755903292
Ni 7.899354241494767 9.023911420760392 2.832682308281331 -0.5424084075453046 -0.5841394687355036 -0.3038480865047606
Ni 4.627175949150044 0.5970964366304227 1.8711872403502052 -0.3571691665254042 -0.7775789861780092 -1.644697411278748
Ni 5.995067418584133 5.667231305537872 0.4748019019345221 -0.2971197666419915 1.8287315762469536 0.8788855929389959
Ni 8.127072084870623 7.441168603179578 0.2785919473002352 0.034356880213315025 0.5001885796441451 0.744991024939659
Ni 9.202230299792276 4.929169802139497 5.909719666897571 -0.6668657413911419 -0.10344987835623473 0.2259295196504109
Ni 7.290640625378624 6.414598936412657 2.8767816970956805 0.4479036541974996 0.2470081946975811 -0.5616335743235037
P 8.731861101238886 1.7271516978630304 3.6818154480246483 -0.1333770049329703 0.7443258805518342 0.10626832164163634
P 2.098686544528962 3.40529598077689 1.7730449292535575 -1.3547739052748797 -0.9063686288506132 -0.14748927596463632
P 4.880663206183676 1.3385343706239572 8.492622599856029 -0.49700941058521503 0.277967876303889 0.048283260486420065
P 8.551912284028647 2.0058620205616933 12.777349448313876 -0.5004058378612737 0.02926866705713024 -0.6412860931498245
P 6.380816418861298 7.99107696367667 1.678794437025226 -0.7806835932452619 -0.6981452682307137 -0.8302115247720606
P 1.6588855161696208 3.4443052274588384 6.142880046861147 0.3057350191148283 -0.5658203587113417 -1.0145362243974916
P 6.883920967979955 4.264337141368627 6.170894040189115 0.827057295413795 0.43497846149539926 -0.5834766383405241
P 2.1567906535573265 8.56632676523722 10.954326425844037 -0.49385081035157535 -0.6606202747020623 -2.705516577903179
