# total energy = -340891.93292066513 ev
CRYSTAL
PRIMVEC
9.07887512669614 0.00000000000000 0.00000000000000

0.00000000000000 9.07887512669614 0.00000000000000

0.00000000000000 0.00000000000000 13.28785145468462

PRIMCOORD
 96 1
Ni 6.418274608028782 2.152274504244646 11.655186890825679 -0.16803856087089772 -0.8846322656147861 -0.3294850703465745
Ni 4.705662800005645 0.34697736573529636 5.899354237952935 0.03722931666510362 -0.3723355898531975 0.003239332872904099
Ni 2.866300813322906 1.4693251854644884 4.717015025734171 -0.8254953502433138 0.22381144486614357 -0.05063839098215796
Ni 3.384713674267096 4.128237249333827 4.658601541779163 0.4632341139069828 0.0037077878688903886 0.40282090292624817
Ni 4.710774206823591 4.781825485255655 2.653623618982209 2.710858558941383 0.8265782988948475 -0.2748689256635911
Ni 7.20299811940074 6.175632585619466 2.664386625700994 0.43229320135375227 -1.674470785886439 -0.5237128880183303
Ni 5.527600621407378 4.514180240152508 11.733066391402994 -1.7358926406373458 0.24949702255770578 0.8362333054861082
Ni 5.687325275311707 7.750853773081346 12.267690492159131 -0.06815994480568907 0.3109520445393935 0.6715389784970951
Ni 2.0845370153126725 6.332315816283987 0.40428685844863077 -1.30033285271718 -0.48583308225342137 -0.3201064573451519
Ni 2.4910345799072533 1.4970883862625013 0.3321415755377709 1.3846539806637639 -0.5655552779754132 0.8411546540471256
Ni 0.503038693438842 -0.28930471800825347 4.497539569536852 0.7446729794786078 0.042936394352209924 0.9009379447533452
Ni 8.603568981894872 2.299915175067826 1.2775829697765508 0.12309773449414929 0.5068215115796303 0.221244969690548
Ni 7.070846009912226 0.8219078611131024 5.118533735090809 -0.7474618550776546 -1.1684617429057749 -1.0625798580692798
Ni 0.602208156694818 7.226539643164393 2.2060096437355545 0.4979427210327618 -0.4294724440755055 0.5545910656544255
Ni 7.7775638243396035 3.972035199062469 4.096047188918708 0.2534639776252538 -0.3881147070643251 -1.91212607861421
Ni 7.788812550889224 3.881055789253154 12.825939642332072 0.30075762050489496 0.6126563452282738 -0.07834202754501346
Ni 8.030637474517697 8.808007096862058 7.112867584435969 -1.3178996579563496 0.10228156907974642 -0.7191977180256388
Ni 7.1983678929759565 0.5030913509158297 0.4534634946299639 -1.5418198604862157 0.25926772879122445 -0.10543374155548295
Ni 1.7824192805332497 6.7031515585323955 9.418548753233951 0.2964744197485088 -0.637264116474625 -1.1160078959814328
Ni 0.31320031791027114 4.726426187914426 1.5538676726558214 -0.8174637381880889 0.1807899469992951 -0.05375636778584936
Ni 6.170285128042608 2.060042209638036 7.017181685648991 0.5385808062690982 0.44854745842908555 0.4158707941316709
Ni 3.543775570271408 3.9636009238690906 0.23530265958226904 0.18006412457686408 1.1344069673139108 0.2816712932974052
Ni 5.937747893889729 5.599995573390163 4.92993916548419 -0.3534492944716558 0.33272183211631734 -0.4019492989545722
Ni 5.148067316580652 2.6939474438168642 9.479885635049312 -0.16847179175357438 -0.44974687805382546 -0.6296405384910964
P 0.17207010859534944 5.787374481588392 12.801582835562646 0.0656214946545515 -1.3936052763197806 -0.9851253753355422
P 3.8957454095576614 5.978130731414112 12.431861979206321 0.9756184642863716 0.6934776875517153 0.8561557554416481
P 2.3290856015439596 8.439177786064388 1.6148722676336396 -0.7044074470903416 0.48273413161312345 -1.2842914829836012
P 6.311343614242323 7.731742740484937 5.749281336425442 0.7573652302342957 0.3852690100854139 1.4328750204536806
P 4.685834536257161 1.0077006897889609 12.8363567439003 0.18864800959113318 0.704272207064058 -1.0726968918986235
P 3.9673868148870013 6.0151180695603195 8.3498071529658 -0.4149313130365371 1.230935435959964 -0.05568263827428475
P 4.734924015235205 1.017342455402921 3.6747555969531778 1.1921991957320306 0.38139050096661414 1.7627868939250286
P 9.30748142384135 5.548345851565474 3.6337490406927513 1.243462364782381 -0.10465186908413589 -0.15900164747961001
Ni 1.2018070446161404 0.9685888948125582 2.423159092070071 0.4518844932221185 0.5692301557238391 0.7816469855997957
Ni 1.914117446254628 6.647216607545948 4.8750873243261275 -0.6188740440032116 -0.23896732667097556 -0.2852896067762829
Ni 5.9209065801289995 5.851898048649045 9.44847272636353 -0.0016190236606617278 -1.3677312367664962 -0.8445773065754294
Ni 8.536585039616345 2.381906498287857 10.162230300731645 0.47468246495324057 0.03374007256492254 0.48805862914983045
Ni 2.41599767519974 5.198700204366955 6.924551736302369 0.3503611424646353 0.09551339711797743 0.7729366023099914
Ni 0.5437692518888503 9.245200338990346 9.08426637889037 -0.13106892562508393 -0.6471566929979886 1.1036941116110863
Ni 1.649059680624155 1.207871733345072 11.467123435426608 -1.5430994985295876 -0.378205161260097 0.3537118041044231
Ni 3.9428829303370216 7.218250629976496 1.2708491679348617 3.2399278261756197 -1.2792333517344034 1.30010505297709
Ni 5.663838224800112 7.8704679557215735 7.977361726119129 -0.11923773731811078 0.04400134528161454 0.05508485678928578
Ni 5.578578506456705 2.8864105222070124 4.7064907934369 -0.6781821948452256 -0.01629719449812677 0.179214117871743
Ni 0.8566390987366467 7.620481123160003 7.113438645695025 0.15069107073138563 -1.386625759678154 -0.2344856367505381
Ni 5.22643616853894 4.576533956006254 7.238078893724978 -0.07855440066613568 -0.08947336157148461 0.09506371117506854
Ni 8.327053675581896 7.184903920842715 9.136222058814106 -0.35361693039777164 0.4957840228185461 0.7352372879870046
Ni 4.502087178196017 0.4357587798241414 10.666757021839159 0.38337462127617844 1.0134867000870544 -0.45645308642940746
Ni 8.191070280698758 6.936396944962007 4.771933142682236 -0.37731453112502755 0.5876816775608074 0.6658234161695566
Ni 7.4539927071253524 6.16650831590004 6.99307727161409 -0.40136642986790877 -0.24659347575766566 0.18720690626923242
Ni 2.555058808824058 5.378570882656763 2.609853453067461 -1.8930911734699458 0.30047274227462445 0.04982283705939806
Ni 2.069438845617743 5.4359312170720155 11.446075878719597 -0.47071910943011835 -1.0392512106456682 -0.7850945778287641
Ni 1.2185394118727586 3.3509039424908376 3.583521070746732 -1.0374779207953293 -0.21745799184429 1.0731944003603324
Ni 3.988531515560177 2.66731910243669 2.5163201556242405 -1.0715326963871934 -0.42697153203052274 -0.13522151434087679
Ni 0.9253552904305642 3.331402518254692 8.159472162955984 0.04855528320088412 0.5835722833781241 -0.5424688284695949
Ni 3.641300849202819 2.777000995451992 7.102263458035681 -0.1058209496915726 -1.128428895353605 -0.40244526475438436
Ni 4.113456840275892 7.005459949694016 6.172287020055677 0.56456128949326 -0.7325941939372028 -0.44039731851812547
Ni 0.764554789798123 7.594806063690813 11.547063840706718 -0.270559756765276 -0.13865650816435476 -0.39066626984158526
P 9.38283608918586 5.658881158862992 8.042060515473898 0.6256008212040839 -0.674780111142212 -1.1442581490763777
P 8.401100982877054 1.6631319374053586 7.993174403303531 0.8457972950254594 0.9283425620185431 -0.9541703217149247
P 1.5989079732310147 3.4720252184379565 10.362238832419122 -0.32351574013701706 -0.19527657065124435 0.4151951082208849
P 3.944508049023367 6.180044919036024 4.161980705320085 0.07593778897889503 0.08069484404790618 -1.1076834352761376
P 6.769663399293103 3.931833939044941 10.261198212955012 1.7181579423617441 -0.33316560452195526 -0.5503016942504523
P 6.459002442816188 7.776937381940956 10.125834905257781 -0.4414661261022719 0.8109699029336291 0.9632823113185216
P 2.2321595283851674 8.666394799266438 5.804877645361606 1.3529736188413473 -0.31458604174755495 -0.5947159586997692
P 6.884974195020886 4.057213207527792 1.858770806390388 0.749719797873896 0.41943022934815505 0.322767806227399
Ni 5.633160705017089 2.9612113761556156 0.586084981973696 -0.33099713611572673 -0.9400999596647873 -0.8194139199359243
Ni 1.4606457806368558 1.1568484539190313 7.09500852874932 0.09124202343613319 0.43058778862687136 -0.9014313394499959
Ni 6.8945614873827905 0.7564337358040673 9.103241228356636 -1.4821152455367315 -0.9178673735188321 1.2907806902523706
Ni 2.4352630486769744 1.7061748854051557 9.34931960508317 1.4072935724401505 -0.6242368509770216 -1.2874863357718151
Ni 6.548048052177506 1.884574785889444 2.5919680686423185 0.521542876950205 -0.06269943591175008 0.8767708605888385
Ni 4.03805678055467 7.183596562793365 10.466641359422637 0.41498427776165947 -1.4907040156470068 -0.7372062387879175
Ni 7.9961014327140205 7.255010996239136 0.35269796508873913 -0.8616124076808452 -0.0020787369058996455 0.01907732834642521
Ni 7.59158306294415 3.860746345111507 8.203467484979232 -0.3236424955228684 -0.10058129855918806 -0.6204984669805119
Ni 3.1587223092363126 8.26992031305021 12.558827327211544 -0.26734999157872663 1.0241166689970749 -0.4308716384158773
Ni -0.1672691993141234 4.847356807479348 9.987242241601148 0.5068112271669852 0.17001316809876527 1.0643778305099667
Ni 8.747169553190545 2.4133284858489827 5.831839181466859 0.10120350552421925 0.3146634319527097 0.3419983723222368
Ni 3.454639172156663 2.9046318250198357 11.33991931299987 0.7193149603297934 -0.15185783734597716 0.6496051545384812
Ni 1.2801032655716877 3.429091216942272 12.834602705184087 -1.250252648231337 0.23786997984173872 -0.9965858105666578
Ni 3.07806558069166 8.286516497176688 7.819275809214159 0.30042311998361165 0.7404013486864475 1.592279559798664
Ni 5.755543944636845 7.842014760397515 3.6402068447240223 -1.0684900529061276 0.7111077419286527 0.8527433873259894
Ni 3.343441106959128 8.346173787053647 3.6381604662217746 -0.6569821637288427 -0.17835845473966705 0.34668883581937066
Ni 3.226595981298426 4.065329722084177 9.045239925342187 0.2442478583436245 1.0093852763241715 0.42553017159830586
Ni 7.427809230636972 6.1207053897960595 11.42651634968126 0.35260725818633465 0.0647905141128239 0.39417711120832116
Ni 0.4838904374535284 -0.10892834636185697 0.21321012432331402 0.893249574970152 0.5665937465422565 0.11701373308359846
Ni 4.616499165264872 0.41737224148008134 1.6493547440727934 0.2620177807325358 -0.4908575320512062 -0.9032575940254574
Ni 5.753183437047739 5.5869129140213145 0.5272674880659372 0.3361159453995308 0.5504081379213295 0.309753396245602
Ni 7.80075127196489 9.017129911506084 11.38057996410974 0.36956085532153776 -0.2631405814830694 -0.29015593372964865
Ni 0.34753844023147595 4.895329584790239 5.864221714039243 -0.8308614996512337 -0.6412040749589796 -0.45981120426836297
Ni 7.95756160688421 8.671941992100834 2.7385601293634156 -0.638159888816017 0.5274263323141756 -0.5536407859260142
P 8.587099902023192 1.4431780244774781 3.7187518268639597 -0.3195878658375206 1.811054470682165 -0.5017384406297681
P 1.99078854852383 3.226350851664173 1.6287048421057952 0.2371045624306239 -0.3317486695697706 -0.4618143507413208
P 4.7271434190665005 0.7903860059232068 8.18574188876012 -0.2628060809617861 1.514683666391056 0.22402047555315613
P 8.662599829373184 1.7103602469381458 12.354074175269966 0.06478434346523682 0.3930327131912328 0.969099432220931
P 6.242952446285674 7.807360693214384 1.5647378101036502 -0.4738738530090162 -0.4089560692897086 -1.8358152225666127
P 1.8755957781755017 3.0961597792496853 5.800997334040132 -0.678149027614445 0.5093939002924969 1.3769082752800739
P 7.023554148252041 4.082016694964081 6.057758823382435 -0.1774487984412041 -0.3066948119249363 0.8020494605155477
P 2.413664404236663 8.615435071967795 10.243272881478363 -0.5376973752228804 0.6651778121657577 0.42655861286282015
