# total energy = -340872.20415919 ev
CRYSTAL
PRIMVEC
9.24076461930516 0.00000000000000 0.00000000000000

0.00000000000000 9.24076461930516 0.00000000000000

0.00000000000000 0.00000000000000 13.52479309115857

PRIMCOORD
 96 1
Ni 4.052176841910509 1.4746781475024497 3.1427562533282822 0.19751343040156308 -1.6665803273947684 0.37870189839085744
Ni 3.5337514770168954 3.986142339441261 12.084294546267161 -0.8956558704187993 0.2889156335646444 0.20575124493032304
Ni 7.279975850098083 0.9269503186667725 0.7897342079522656 0.4045047183865743 -1.1201756542058774 -0.7030319068990538
Ni 3.2305527559815608 5.368024730744971 2.2943459636059376 0.7908713324115412 0.2147303085004818 1.8319081742027223
Ni 4.3062516593457145 4.917029223746418 4.876039040979403 -0.7521836860333562 0.07887990232635447 0.35697247713356584
Ni 8.698562557635748 2.5851592881034144 11.038544036277285 -0.3340652335180892 -0.3174160549971824 0.1055270726002376
Ni 3.563830165169345 0.21317889046516575 7.020205949557392 -1.4020863172075984 0.7107742698486339 0.7574184520697343
Ni 3.2468627051640717 2.5597749082709176 5.402735814095831 1.3643875171052438 -0.588764883322657 0.1226346788148017
Ni 1.492401933639592 6.19379791989372 4.970604403562533 -0.26161386042589785 -0.5039002241677774 -0.1598891922908859
Ni 0.3628321459982231 7.891400268007441 3.1390636438703043 -0.9937843365621208 -0.2837600575056339 0.4766437024446694
Ni 0.8266298080094958 5.763917559570543 2.350540900132105 0.07766479897233076 -0.6553238021898133 2.0631346805860145
Ni 5.465939870426493 7.816965910690089 11.627872862407436 -0.6717482662944237 -0.54921334628228 -1.1170643622704053
Ni 7.124638600376831 7.156463793002649 2.2540017102711363 1.0578168894629973 0.818593480917158 0.3549294785616081
Ni 6.269211798238463 2.82377430668177 12.833513546743053 -0.2674919164732296 0.1802728981535605 -0.7536767256391149
Ni 2.222662581853251 2.1518321226555477 7.574519671187615 -0.42691265376812926 0.69267113249002 0.5684433981564855
Ni 7.123012225840784 7.1671830797175 13.428144723491291 0.42653881536847826 1.1975848855239761 -1.9006031655762752
Ni 8.768385773512833 8.589521537605366 10.10542735552015 -0.14551389740582035 0.5097386852264253 -0.7475356457383836
Ni 0.2617742223410799 3.8482054491028244 4.338280148788538 0.2165028270198723 1.4196477231301294 1.1087298742627807
Ni 8.21544615355028 5.027308506207657 11.799583822585623 0.3994103345828024 -1.7819421266972406 -0.3857958291231614
Ni 1.4991384508940113 5.270312887880455 10.972624119286714 0.7177429878569833 0.5777502773797082 0.19304305333503527
Ni 8.97432544913971 7.602478527984559 5.912281728468495 -0.4434654159204878 -0.9596848237752504 -0.3591424882016912
Ni 6.909023844413359 9.288816384283278 6.101142623314003 0.5320802861464191 -0.657984379741112 0.27671652039529115
Ni 7.633204069645663 7.08325845735174 7.8648968316049706 -0.7595648089887757 0.27627917574755645 0.2649210704222599
Ni 5.543793310575306 5.153879256322588 12.311862230994132 0.5451332626756353 1.284221548977614 -0.5409526489353845
P 6.069472675530263 7.852875521184841 9.332350549492187 0.07879788413550945 -0.3411635351257673 0.47438730231032494
P 1.1224109674534417 2.3376823764564882 5.606026162566546 -0.5126314333931881 -1.0692500710006037 0.3997947145054147
P 1.4417071000898722 7.8967599113648665 7.200951605098604 1.7623012125378616 0.009462430964480477 -0.7874728482529535
P 8.210077269428444 1.6542261999762102 2.6313159822517 2.952377962610251 -0.1602344914454466 0.05005835010897185
P 5.6532224427108835 0.7027823111660023 12.405697573188926 -1.0683594408655341 0.3182843165347486 0.24062054600368238
P 8.692435930832348 8.334393273027493 1.0994060844563533 0.5615587552215102 0.16684839721753844 -0.5390528608095103
P 4.301788370135997 1.448970340915625 8.575395181052784 -0.18823483331311452 1.3148765548593098 0.27825532563732075
P 6.639646321116262 3.5240856374447107 10.290433003454076 1.5081543499129704 1.0190716503739998 -0.007931081921618599
Ni 0.5581199924904374 6.4356656875441685 8.474689330519638 1.0575070715320625 0.22098014606493557 2.1240101759151484
Ni 7.854391006547975 4.412437283173609 8.36060747350395 -0.7021109377466811 0.5404847081600305 1.2961908055243483
Ni 0.36684910628696954 1.3961131684941166 13.283915796666525 0.3515039978198269 -0.4108445445616731 -0.10015192433125332
Ni 5.310963010517207 7.936938755016741 7.307715700778524 0.5276225074853818 -0.09596231172993795 0.9606980955311132
Ni 3.3089514012305257 6.426988609763784 13.29151724946966 0.1438164550987394 -0.8493850123767178 -0.9051314140094026
Ni 8.121347449569821 2.7135781911002157 6.337636886460412 2.386003274057336 -0.048016379978278595 0.8893872638012683
Ni 7.370812564242039 3.169757766932417 4.210389817515952 -0.5973976192969905 0.4482049874880023 -1.378349892822607
Ni 5.111963148961755 7.342526584385003 3.7290420957384325 -0.1895563803380155 1.6879202265231252 -0.08725141421950135
Ni 8.007140842234607 5.741231482945577 4.53686510002201 0.23472912021991188 -0.570194062299005 -0.5608545300656341
Ni 4.57521334824439 3.245994073309592 10.033488928669763 -0.3744294962677487 -0.0964294811743436 -0.6682042576969072
Ni 6.427607740979211 1.258647557140557 10.248411551378975 0.17434547692553198 -0.025251575477937153 0.42257134608029806
Ni 3.01034534010664 1.5743952362437954 12.487062503813291 -1.5500291357698852 0.9214792592398064 0.6520937252882898
Ni 1.7011045978248662 7.700171889320256 10.485555440263363 1.2376544998513526 -0.315605741261321 0.881507089722243
Ni 8.884893331185976 0.48537946728932047 4.447749940287516 -0.42573251741709905 1.3913861571812747 0.4708849455840213
Ni 0.10891811786374025 6.207917807911214 0.3024261931307128 0.43961184650235263 0.24723059512103226 -1.1589861993151718
Ni 7.398202189951365 6.836299028511738 10.84434105552673 -1.103701567810254 0.6504754729585766 -1.5123347065429051
Ni 3.770056304492912 7.965899310675658 9.323262257695587 0.6225566350611214 -0.43080993194000644 -0.05353885245840457
Ni 4.529915121109734 3.7146579218588314 7.225728866709407 -0.3843657815448542 0.5090938525535749 -0.09421936089690225
Ni 5.643307102499646 5.750158061365014 8.67657415872369 -0.4068328522991187 -0.5364773867728502 0.16091480534192285
Ni 1.2706975139303553 0.11004641519812246 8.807831824547044 1.9901024952896886 0.8951259660572585 1.5018446056448587
Ni 3.8875618647222656 8.724695439385405 13.030474895669801 -0.039366674723080586 -0.015205761206160911 0.7636798595984139
Ni 3.6526523926720618 7.493964231525508 5.764226201101815 -1.0057181118852292 -1.38906933612264 -0.48576623357122783
Ni 1.0759946078252534 3.7764693949930046 12.657866945002922 0.31782151796571717 -1.1267941879636594 -0.32397571049257107
Ni 4.782132544898659 1.673086600135703 0.8733834555386256 -1.0212385761183316 -0.3854975811564522 -1.3564363805789672
P 4.595912660521345 0.10656819147444137 5.138866710463149 1.4101714082085777 1.5784940759787975 -0.9460440930633642
P 3.988119863024863 5.867090694200987 7.106765113856258 0.635606526266544 -0.49946738520740436 0.146580905217754
P 3.771710401322187 6.172387068757246 10.997144487646937 -0.21555794660809974 -0.07725393668715727 -0.1067851133770548
P 1.0072340798552455 4.246279098329003 9.202607444955525 -0.5491783792792865 -0.680590547176402 -1.6404175529564717
P 7.491275169082385 7.83284154394536 4.338145233628162 -0.6394726940901696 1.2850926387286579 -0.32175402025090394
P 2.9025518232715184 7.236026774567192 3.7712529834839237 -0.3366049692208074 -0.39749589116890904 -0.8449058935594417
P 2.070291617507402 4.817238208889798 0.6370019297180114 -0.3058327210349571 1.3650133236147006 -0.2747735377363074
P 7.971406806263634 4.75807883514111 2.5219543076963107 -1.0909566094397598 1.3139501863902985 2.028527117814474
Ni 5.85760042915258 5.39425002013872 2.8804968908557114 -0.7364559908854542 -2.7615393731257023 -0.35991304781912853
Ni 2.111329852249346 2.493758887330488 10.110756504355026 -0.4655511920759337 0.05359078874226254 0.2722695403675311
Ni 0.24088547439373376 3.543981003218051 1.8966354764210465 -0.27738500721722553 -2.281256531266549 -1.3511568773475826
Ni 6.615795908175718 0.6844615716480158 3.4728151042722883 -1.9753150525678693 -1.124033851609703 1.3680557099854505
Ni 5.296242472813105 8.872760207516494 1.7007155616432326 -0.4611854589080703 -1.5644208857151831 0.1650385977023093
Ni 6.014601016467515 2.1749617559721623 5.79641547984536 -3.0060209447466875 -1.252973903817242 -0.8032229119983586
Ni 1.9061386785396266 8.983150379150644 4.957769905874381 0.15915385678675814 -0.0030413579294850846 0.47557540908115514
Ni 6.529274631010931 2.7583681761923575 2.0564313949698114 -1.5466537915397494 2.10049203818855 -0.4466882937331597
Ni 2.0810755895731194 4.6779244446543675 6.835078323533263 0.8431557436375544 -0.9255374884695802 0.009249286512409876
Ni 2.294010523857878 7.597294459150912 1.779132688421016 0.6830945445451784 0.2837978527221048 -0.1334240561208218
Ni 0.21025326445316408 0.36733239826557884 6.90130965428443 -1.3564608060589995 2.9404377595292392 -1.2560787679948109
Ni 9.152783091413166 5.26968451590062 6.761584676032784 -1.070864209565259 -0.628322591010621 -2.640229583769911
Ni 2.038743647813866 2.9409564401567962 3.475168726967351 0.9903603984822362 0.27806300712085663 -0.5190152254323448
Ni 9.031655151535347 2.357503816114554 8.569268554249382 1.183782432423245 -0.15552500178491926 0.26791717693610634
Ni 6.016088779537421 6.335116930005981 5.713210713027091 0.5078288697982221 -0.06264261453188566 0.7456183741110126
Ni 6.34415439759833 2.5113163397082614 8.122584787924234 0.17704822056867572 -0.7393651941124493 0.9056091249767694
Ni 1.3601573541773175 8.094503028960647 13.228694836709103 -0.1553753635809324 1.4586259041655396 -1.0673381986898713
Ni 4.025609644233615 0.7838395243355383 10.613662005423127 0.14057172290919662 -0.43348002257300183 -0.271497438088197
Ni 1.4287330668591385 0.7638027748667346 2.7941678215906385 0.1001480676765114 0.6842584829462924 -0.8591171520628171
Ni 2.3450934695127903 2.8505448011756704 1.1526883320406922 1.6901591431559728 -2.2479378625097604 -0.2931774941647919
Ni 4.652900454633835 4.0183279218790435 0.9002186353833914 0.10802541354205913 0.5860325719931585 -0.14764714169873927
Ni 7.443176990331694 4.991306488068811 0.4888613873187653 -2.095528780646004 -1.6452429993695732 1.294534500867848
Ni 2.985367553908154 5.447171877911094 8.952100486658772 0.2808621671325485 -0.0817849917882914 1.3435862640891765
Ni 7.552476751765541 9.175053333639712 11.969928073707665 0.6871219205370166 0.22194893773610808 1.1362838726216498
P 5.241712722033503 6.776326467495027 0.7176617900179451 -0.3357647327076992 -0.3113317964763155 0.990143911596056
P 6.5813001346355975 4.232039080374188 6.02323928303738 -0.0057361311528288305 0.7624480440738417 0.8458551448465884
P 7.725944381257946 0.6279718547371899 8.482844305110893 0.18604785296412474 -0.5052513388790331 -1.021201809343125
P 8.331500913767366 3.257129194422865 13.185509972394867 0.39950649384103454 -1.5554839882368696 -0.16405849317722715
P 0.13055351957536224 6.9032576074219225 11.688275118969182 -0.2789994028921969 0.0083753685478888 0.2565814402083129
P 1.3723551631976658 0.5963933905211023 11.151232386020041 -0.12743492841692247 0.6871841412335198 0.28774398185404637
P 4.232787582291346 3.524159563559986 3.253673148533766 0.36177169829442213 0.9474227185784457 -0.8641182048218345
P 2.6374989777179993 0.3693154663078263 1.0232400078886887 0.33507747683268746 1.7387033706132635 -0.151629523385255
