# total energy = -381161.43609444826 ev
CRYSTAL
PRIMVEC
9.30517845940765 0.00000000000000 0.00000000000000
0.00000000000000 9.30517845940765 0.00000000000000
0.00000000000000 0.00000000000000 13.61906925719747
PRIMCOORD
 96 1
Ni 6.180601920012099 0.145740497299511 11.634715986010843 -0.24923656980746753 1.8490497189790156 0.1359964448336884
Ni 8.028396352007718 5.740252957618021 0.28194225611350393 -0.6920175580664211 3.5376764846508624 -1.231994730462414
Ni 4.8633980715524485 5.244984831687189 4.853700214514494 0.704084259422968 0.0035542930101616207 1.7311574399452059
Ni 8.185300271959727 8.644064182615281 7.091367668103595 -2.4627519889733005 -0.16179309418181811 1.2921875979022261
Ni 5.096222942927091 2.846630903083781 2.3939870083309924 -2.5814395102148957 0.6704640002653615 -1.6413192388351348
Ni 7.841064498344223 5.332286016421488 11.355879798482322 -1.0344733296410504 0.24335054334033573 -0.9825853825225077
Ni 3.851515740200219 1.0695558277264765 11.266824587599821 -0.7925973139637125 -0.9867456845477843 0.167471375513518
Ni 1.9716835786117417 8.291760819235906 3.538561185165113 -0.4208345658948494 -0.8720197190570983 1.771371550270246
Ni 3.768960196503491 5.593733616877637 12.470614128886474 -0.2060294382923742 -0.5259723734764683 1.717143385054301
Ni 0.9817149426388849 4.899316060581908 0.2836553394762821 0.33028854008447633 -0.48815555973901087 2.2421585368238226
Ni 8.219543328858279 3.0997503687779187 9.541969243494957 0.4509326708318105 0.38154193894281385 0.1911052128823741
Ni 6.446432259544124 4.4464981589910755 1.51792678450975 0.39675335657592964 0.1157646911678458 0.5397537435312769
Ni 0.28356228769123165 9.152303727382142 9.044451125401608 1.75450382798063 -0.6234372378938619 -0.9368097189492899
Ni 6.970323114556463 2.6092744097771834 11.373815530050788 1.474154853039074 0.5941161203322414 3.0236054905976704
Ni 4.70653137231446 3.5157104583102825 11.331800788064825 -1.3294871056836328 -0.6540937864374542 0.3469986537503056
Ni 5.777306178425096 9.433403864840939 1.7364179589152267 0.8945335838888981 0.6205881984808409 -0.44573390023969045
Ni 3.186204782268259 4.8442480141890725 1.1469804959955245 1.1007496842707818 -0.02041661598313903 -0.046454434807797415
Ni 7.475035996669912 0.5304100630729718 9.449155671014273 -1.3984723746040948 2.643394611761454 -1.5983589332235248
Ni 8.81540043442861 5.344587462405152 2.3937422821363095 1.4611954646649288 -0.7692673809885203 -0.03876477947302356
Ni 4.926971051098892 8.573521624368563 9.521799338567432 -0.43928660195244995 0.6091203070505574 0.7107241333369889
Ni 7.473072604005348 1.3661863081101884 5.405081358384278 2.204999411275022 -1.5386933990420921 3.03364641977344
Ni 1.7412780536484098 3.869837636676646 2.8029133134313953 -0.2772906477312063 -0.3254350686469169 0.2505923125044136
Ni 8.129562252714528 8.0949935145683 10.436048014973363 -0.7182811197486404 -1.4555992015240737 -1.0685605011327468
Ni 2.479792850879531 1.2955786136139336 5.141212550481116 0.06881480478086859 -0.39307513639339403 -1.4323643993658493
P 4.260134043892105 8.607076098057743 12.744479490057602 -0.003629883443103426 0.2182061828642242 -0.1310252168713421
Ni 3.261316183160954 5.083084030877973 8.504618638574431 0.3607499418981271 -2.347791024653673 -1.2957807145701232
P 2.9890466601034404 4.187572261909791 6.372607764838675 0.5160144909328082 -0.31884610257548957 -0.46146442360106976
Ni 5.722712696136018 4.185339019068582 9.200471053395638 1.8500172250986076 -1.0380435634908123 1.4389011720431026
P 9.053808412906278 6.810869575694072 6.496595546346951 -0.46468370186931585 0.7824563688749686 0.9332212302670831
P 5.3861071688946485 5.594868848655254 11.106936496901245 0.7287740488601643 0.3145297345883228 -0.7613260146542566
P 2.7871708124365657 1.7419015006082477 2.847611668898212 -1.562463504878496 1.6565471115284824 0.18567478589542216
Ni 2.6102607586987174 5.564738680655928 4.556423024224682 -1.5437661855793088 -0.8680764181386341 -0.0950634540647524
Ni 6.499192621667708 7.308752456784821 11.94973908222762 -1.848468649664565 -2.327708394971185 -0.3443573594727166
Ni 6.978130159322193 5.605393005544455 3.79175323125159 0.45523541197222245 -0.36654572264429774 0.45208298238616973
Ni 4.84140062956653 2.997802833076684 7.580101697688186 -1.8735086233523284 -1.2621203462032007 -1.5460331272366148
Ni 1.2190435204099677 3.1205846634507064 5.058735170283831 -0.09641071212126621 1.2116809586057262 0.6859219866916445
Ni 3.997597737550865 3.181477751587698 4.491473808777343 -0.8804773629061481 -0.2729097450546913 0.08194877105966532
Ni 2.403713711422312 2.3761331623333692 7.543806848929271 -0.28882230251988966 -0.1401436342328425 -0.9194483448527067
Ni 3.9199553281047987 7.407005836619554 4.42862198056504 0.9198810615147512 1.1063657449059783 1.790214394008362
Ni 3.9469775664834392 8.11070065588481 2.275010995965532 0.4531052530030971 -1.628190157652344 0.22442208186694895
Ni 5.0417783434940935 6.2323201021431185 9.144742339328944 0.7401488663560092 2.575320798911668 -0.2201964738213756
Ni 2.0221176461090664 7.391084676197427 6.163677661347129 -1.835008667504917 -0.12332502001360696 -1.8418079498149376
Ni 9.325370742397409 2.219750332377642 7.539788872850794 0.779001834667465 -1.1613518713338706 0.3268396623039274
Ni 1.47988628426329 8.329539843966375 11.571102063678977 0.17381711522588772 1.5335172541577913 -2.268882325971912
Ni 4.417493917590861 0.7301764267727534 3.667751491975557 -0.19918104791197308 -1.2017477586524141 -0.8915701303852
Ni 0.5252754655738898 0.07460054659276795 5.927591324906469 1.5218688712855855 0.6795991297974102 -1.105330875883561
Ni 6.815698963338188 3.592087363479663 5.4526261679557875 -1.2538156829922469 0.44149929333305254 -1.5337103440052038
Ni 1.1204737645060632 5.2702576965068815 7.176922270832497 1.3424884030393074 -0.48585262263744705 0.8529169367893762
Ni 0.31256745960929644 4.093338719189236 11.847541237224599 1.096797384491253 -1.676822831058383 -1.0652900579115911
Ni 3.2936516784659733 7.033970535530947 10.753766821403051 0.095616498354745 1.0568336996141219 -0.8593716912757845
Ni 6.057410661783854 4.490037089216164 12.794039801293303 1.0793969296266186 0.15692342479434265 1.8388354974501748
Ni 4.934740875150601 5.78814671138347 2.755927745088038 -2.00634029730479 0.2530394884933255 -1.578676367192933
Ni -0.0004922439429166937 5.584930918011868 4.840489652590887 1.2785561231617206 -0.5907032379959504 -1.8281016559724386
Ni 2.0834294672787848 6.877420212362129 8.348353053867868 0.10460353234470371 3.5613285768521634 2.403150989481216
Ni 6.640035803520016 1.9541340119512334 3.497281552281048 -0.5744253267715334 1.8236577612684723 -0.8855200675363781
Ni 5.550632030042286 0.5806757068393552 7.772361573887951 0.6702616544465683 0.0116075023319413 -0.15742967500679983
P 6.583925577134616 6.869920238487065 1.8715049573443157 1.4994511657120175 0.15020024713789615 -0.09954128733044793
Ni 0.4919889810256555 -0.5748729975236113 13.559349790547543 -0.7561827798904202 0.411906153056968 -1.240661404998476
P 2.6522550292919695 9.027297959345415 9.299059419656553 0.2063127738607479 -0.3112199534887995 0.3541221521689643
Ni 4.990599861716365 6.892885419037508 0.4688544462264214 -0.12937251175926753 0.30914687300985466 -0.8664064866353789
P 7.671086802592631 9.556511376462637 3.5221775573712866 0.5967185909520949 -3.2628954907153873 -0.055718376608226615
P 6.989445256384323 1.873486029848039 13.521406994675385 -0.7159175046124703 -0.6133394873382275 -0.12222021698520243
P 8.031085548595675 3.692788005261222 3.5133385683093477 0.3456010020718306 -0.6443274510793096 0.5541848313549425
Ni 5.723094208454725 5.076254029855272 6.95911316601144 -0.2891364913261988 -1.9304822125238947 2.4877094302495864
Ni 1.1043478901568264 0.12727995366335923 1.9150587758550128 1.8292946478392753 3.406398528338766 -0.31747519036989197
Ni 6.234106696416087 7.850481338991325 3.981943635751834 -0.4260258802878018 1.0467408341544941 -1.3763793993597973
Ni 8.854221639151643 0.867722783880725 11.499873713776436 -0.4117292611594715 0.0018447665182226292 0.37035352642616215
Ni 3.0862113340530835 -0.02971422652014892 6.7972226008985785 1.22983191848314 -0.04398848976580811 1.8077827419094283
Ni 1.7400683804427546 1.2389286868752414 12.438867651380823 0.506822797131211 0.9117005825864879 0.5832023016332148
Ni 1.4062730171099072 1.640577411866851 10.089741839140487 0.104256176307614 0.13653766204913906 -0.3996445620807956
Ni 7.5825945550096865 6.138803058167452 8.487308215001503 0.18372100460316101 0.02629364358920633 -0.4511363022021843
Ni 0.3269904862921107 6.283014714638584 9.90450923374773 0.7404941655105698 -0.7370496586053953 0.06035099028423155
Ni 7.079872981096316 2.6193519180981433 7.576629005070104 -0.5285038816490705 -0.38154476715629126 0.24425454321184387
Ni 5.149150798263767 1.3827402206706572 5.607611360100057 -0.17879451383582112 1.3809446501329765 1.3208294300086352
Ni 6.734930013914428 6.623509806495062 5.973963681986344 1.5937000942952748 2.1896046739865067 -0.2391323914939301
Ni 2.586383670654781 4.619351154900726 10.67906670940028 -1.5953201463972009 -0.25995935554161037 0.6498483808975388
Ni 8.653118121300688 7.623341931683263 4.048935337881029 -0.14673619984869568 1.2680433965558549 1.1513981025552686
Ni 8.317796708693013 3.6141964676076412 0.21635377490286867 -0.22026357961388518 -2.819353970141325 -0.24247919647897598
Ni 3.2554166999887575 0.5313405809234759 1.126111772162268 -0.32022704208341624 0.30894247030853245 -1.4686637480175158
Ni 4.121952143092239 6.776747486116085 6.984485596241136 0.539288116748768 0.949270570420462 -0.948910615977882
Ni 4.390527510283251 2.1626537570707076 13.607751607059365 0.9155811485878167 1.0259328962702072 -0.7444698623288662
Ni 8.84666583420555 4.1278423210859305 6.376339141419197 -2.8165702367486007 -1.9987905099819898 0.8236855507280847
Ni 0.09272610380273823 7.595277513312058 1.92520514249691 -1.031514761233359 -2.1405932770848106 -0.6091272490290929
Ni 1.2113760533218134 2.501111014834581 0.811075648695584 0.2539612289766465 -0.40709844725567956 0.41012874944157107
Ni 8.263770842292741 0.9417305906027218 1.5974218549961698 -0.6309512868827197 0.5450540726982678 -1.6860893439619737
Ni 2.3437046152432996 7.254279941816308 0.6299224335594368 0.39463553890197844 0.07605425995210127 -0.09481405705810768
Ni 3.4086636847882854 2.8230422755735005 9.545823448431747 0.40494720524063166 -0.5953525638425037 -0.29269181277762496
Ni 5.600358903973228 1.8832750776353426 9.960551532330042 -1.1126181535735935 -1.3654532393655967 -3.1548996448596824
P 8.705217815750414 7.259890964454848 12.139439103820646 1.601979046474615 -0.9871570610535904 2.2588879337633614
Ni 1.4793093631959775 6.2295936848411415 12.254628839052407 -0.7555315194596665 -0.002287767592912189 -1.1784291385311318
P 1.828811867845335 6.239103577273294 2.525846970854533 -0.27347127398511606 -0.6876592810977253 -0.04554040763396028
Ni 0.13887513659849138 1.4113164238596394 3.6290056591984152 0.7855481204264149 1.1898998581748925 1.086012378060607
P 0.9100464577930556 3.8170865797315656 9.351561097817697 0.7772095186537324 0.4830825160914777 -0.05442639726968046
P 2.5955864921962672 3.5260578168078887 12.810817968655744 0.09933225664343537 -0.2555033766527858 0.11953058596818124
P 5.702976412526826 8.666257033349805 5.935544460974728 -0.44440695389815077 -0.8146620070732357 0.7681378953697674
Ni 7.418767582249926 8.47980917164429 -0.009053008167554845 0.20044140268163546 0.4142679684209252 1.4837278414394899
