# total energy = -340868.2873185821 ev
CRYSTAL
PRIMVEC
9.27210444000614 0.00000000000000 0.00000000000000

0.00000000000000 9.27210444000614 0.00000000000000

0.00000000000000 0.00000000000000 13.57066208662677

PRIMCOORD
 96 1
Ni 5.166945081821472 6.776758575704478 3.5851110901769387 -1.538225715377054 -0.3524072263603866 0.22228652358118492
Ni 3.4606738858617065 1.61724972161208 8.75528935480281 -0.20209693600718745 -0.4574697006193799 -1.657767871309461
Ni 4.508403138891571 2.4497085267791996 10.606747797515332 1.9348487170227064 1.4407089146758028 0.9485776581184954
Ni 1.8388159283626564 9.054738456884941 5.108770971603286 0.45949033059383454 0.8418074571397761 0.26924926548396855
Ni 0.27608710783502827 8.926514525132609 0.5060102622816329 -0.33320725639316806 0.5056552591856711 -0.7088922223345727
Ni 8.453331221269947 0.6405095542921162 4.48077504940987 0.2718949306369317 0.5024346953658443 -0.23789929041777738
Ni 4.258167585335136 7.152798041764755 1.1334322412126663 0.3923806814295307 1.9312417163977385 0.5341669934721187
Ni 4.62248711143338 5.734249517452007 13.146700789212623 -0.15313978938219433 -0.4418664468644841 -1.98630163348636
Ni 8.240128452688479 3.286905377294894 1.354955796283001 0.5681358942183957 -0.06548316930447431 -0.16063172688386532
Ni 5.309262612262323 -0.14040191367174115 7.50062713018699 -0.7087706091550439 0.9780306732722897 0.15531828509075188
Ni 0.724942264172072 1.1178912670272527 12.281774783277266 -0.15148554160822297 0.24477056361631394 -1.053001470352225
Ni 8.856111436420811 2.813620080283829 8.203967245527144 -2.6921897788872857 -1.7185808888317755 -1.9394651327487953
Ni 3.094444306256992 3.1476569134105556 5.361388528780167 -0.8952774040334581 -0.039590360698112455 0.2947286407019956
Ni 3.899383505563896 2.7499114509490776 1.5881742566334873 0.8747461168493257 -0.7114856940933618 -1.2174104048903356
Ni 8.768582770881581 0.4791925547245233 9.576490898017473 -0.8295921460205068 -0.8621708512874764 -0.991217604276209
Ni 0.7528846779929432 5.200092855052695 6.793283320166768 1.2829424251548744 -0.6003554163737338 0.9289807098231743
Ni 9.071066632733944 7.051212865954606 1.5834658820189935 -0.7553991076468602 -0.9796065023998421 1.8056500118371417
Ni 8.813932633503654 4.598713435750903 4.941091453996178 -0.8282127491744768 -0.710480649867615 -0.7816829810440538
Ni 7.484349950912189 6.651047384244639 3.9396448372910617 -0.24613607650527286 -0.8272023056320915 0.39542281068996415
Ni 5.455186991314909 3.497910657133481 13.00810415426763 -0.8742594070208942 -1.8900590715118415 -0.21479612874141074
Ni 2.727064985706635 8.256252642240675 9.352642826373975 0.329625966799813 0.027952519348867992 -1.7534908133350833
Ni 2.8246353403114357 4.16911829467425 0.059414717786952544 0.3861899792377865 2.133714804797422 -0.027064460316959842
Ni 2.5633103498921916 0.6259968564847007 0.3305690660809988 0.8284431200177281 1.0050491108426625 0.19684957156531904
Ni 2.978543001252715 4.490572882129713 3.36184623390022 0.04679047799097748 -0.4242723879318048 0.057600938342920155
P 8.11141309940293 5.985365920926474 10.8611298361596 0.18525929562455834 -0.6204426740419121 -0.23155715024983345
P 2.0517590780209147 1.9099422412176812 2.112015702887418 -0.7098453302764614 -0.01437606621601395 1.0455547842661927
P 6.604167624396508 1.3953126306854904 9.510333505910593 0.45290162163272324 0.4022480611419137 -1.6838013192587453
P 1.0795418432274375 5.368094114682495 0.7006447145909754 0.2279645478025687 -1.0630549979334853 0.6874703050153708
P 6.460681808801215 6.38090462254067 1.5344618830527452 0.3152172475736507 0.128395749668295 -0.03819245190932132
P 6.047720823018774 1.0032324240126216 4.11329466292155 0.7451900283243424 -0.6053155885924865 -0.035892600131551086
P 7.973879974832655 3.0163082824753085 12.788992273551823 -1.9319037754617696 -1.7052638600078953 -0.6172743036162595
P 5.032147228049297 7.748920177871553 9.161159962350307 0.7848063571643838 -2.0139397069186025 -0.18035594478567005
Ni 0.2701112365490077 4.9038769357749645 2.672810194018473 0.4824366549773627 0.10488943901623873 -0.02554108169389795
Ni 6.941486782480957 4.754150993918239 2.993430292077904 0.7647890335021925 -0.26132872508531124 -0.49470313104954156
Ni 5.154316475628207 1.9627932362996314 6.027504853794709 0.43323525355204745 0.12655998201113688 0.4051107274016894
Ni 1.7339484275947867 3.216205581242285 7.704092334727219 1.7252770699050286 -0.6052628809776802 -1.2468446509910527
Ni 6.321980399076495 2.513203897712743 2.2779446471837415 -0.8785521208589772 -1.5626882192947924 0.02414060180194552
Ni 3.9771301009607654 7.062858629081435 11.02969113089518 -1.6982213513388174 -0.6505122397337829 -0.19147519462728313
Ni 6.7545426135612585 5.752821542565892 8.830836607035918 0.8787698932967382 -0.6744520383788319 0.3053678655833966
Ni 2.5576358219991824 3.599041499828013 9.985021672317432 -1.0161418783217144 0.6107187618859288 -0.8359641109851217
Ni 4.8681422454160455 9.537935633499972 10.339582308534315 1.2849897946022064 -1.5867599155320156 -1.467866448927201
Ni 4.82733571395014 0.16813385072272455 1.603834840965665 -0.3891277217098718 1.1715995172038078 -0.08338627483714026
Ni 7.065325008851926 3.8697776762136034 10.587599974718188 -0.689930079409773 0.6374518070053989 0.5753686645214091
Ni 7.129404522362691 5.0117578704729455 13.104129776279331 1.0890059134712922 1.1309575753127297 0.6430868938039892
Ni 6.803573501630267 1.0749336073404674 11.57490663221278 -0.04512748846625777 1.1021437364048308 1.4185200372835893
Ni 1.4591510694818461 5.967294589450207 11.244392271547744 2.545818932797809 -1.9611734709601647 -2.909011679809474
Ni 0.9135507758316321 0.6518743726556157 7.406609845988401 0.12833147208926285 -0.23627795276427047 -0.3691978155551642
Ni 4.401959380375642 9.109888933858175 5.071546254067232 -0.5621272261304706 -1.9040715837408497 0.373206422493925
Ni 1.0283690990419492 8.168640527761841 10.929865800500217 -1.1941606903337758 1.372809679730668 0.7556418197852857
Ni 5.04142860455404 8.58428115171598 12.524608415890908 0.49076702921992893 -0.2600452303871973 1.2518482748532311
Ni 7.362375417525689 7.466825673595543 13.339078411310924 -0.8963598384643595 0.658524311404982 0.8898053251752933
Ni 0.280416253379548 6.6576491225776815 12.869234919453264 -1.2534390163791187 1.1455989793749883 0.26510156186418216
Ni 1.6228964331918885 9.021210527373302 2.500869217228968 -0.7033049580547822 0.3062515537399306 0.7505597772766881
Ni 0.29412227810413377 4.303656529523215 9.524474392331555 0.4054169457881986 3.7214157440864684 0.96941362102724
Ni 5.453620005671251 4.529524992715549 5.547035530294258 0.11607476620909686 0.3691379088515062 0.4107468426415442
Ni 6.817565107170383 8.510234125974847 5.472464630654507 -1.108615974392736 -1.1031320684600292 -0.3402183976036786
P 1.3946264949598648 5.672367492684123 4.475441734958794 -0.13325899129786728 0.4825605821497366 0.07853614583369055
P 2.551479144677355 7.928177772243368 13.02877167497599 0.14801480945080314 -1.2775060846306514 -0.3899669297817155
P 3.535045435256851 8.227592567539217 3.035404181487813 0.704084259422968 1.1852973264058748 0.9270783505941388
P 7.547140641911306 4.3451677409235465 7.109845945340609 0.33523045747078395 -0.7843733833920233 0.06962393094572525
P 8.417819061416637 0.8102066818167385 2.028501858553536 1.7447760591699046 0.08805205574392577 2.9409262691298834
P 1.5690069624171 0.9602747643258364 9.549335685860193 -0.029197961720194874 0.513946809770502 1.2102506539171027
P 8.80920386025948 8.251041719567683 6.392474354411417 0.8424546038054717 1.6714314848394827 0.2444134373872113
P 5.246926254378824 6.8672914030694185 5.8402704680072794 0.6600646593089083 0.39803736549467583 -0.011238034807664518
Ni 1.60992475913581 7.426362209992449 7.052917078743389 0.15793052590261833 1.2021542500622135 0.45390486608625696
Ni 2.411804163990601 6.5551460084319 2.3217099071637963 -1.7841890137498886 -0.871317550783751 0.3187504575378897
Ni 6.051030964289697 6.560542373192899 11.582017409077404 1.240818499401631 -1.5825574474148938 -0.7955399415318041
Ni 4.777711411199508 4.896255265957882 1.7103101246365544 0.5284131217074771 -0.10579369599806294 0.3042687189819469
Ni 7.361290581310849 1.0322726549944932 7.053039470521473 0.6420448256927199 0.490741061078 0.6655935595469376
Ni 0.0550021233028297 7.710032972016518 4.109617346316374 2.0621082962040296 -0.17650006137468957 0.27570659107353807
Ni 6.0146101382051524 3.1350839398436916 8.319643238394494 0.06310695576281389 0.17075133181637045 -0.4686565704741348
Ni 4.793075288190876 4.7826441707404905 9.766670104162452 0.48291179484156826 -0.1191120103735239 0.38749738519530036
Ni 7.15971503164741 7.854557263304651 7.989279085820743 0.08684132326527626 0.7447706813987367 -0.7582252642417457
Ni 2.967601918060311 0.18056217946094316 11.510622205194768 -0.9118628191959651 0.7303853592113422 0.10095410851757453
Ni 3.797242003489727 1.5603375448027799 3.606742909742937 -0.20384374349496506 0.05370880237736557 0.17306249644805033
Ni 9.272938889738192 7.335143246901883 8.89569126847455 -0.917557041367265 -0.1285618429325141 0.5335319309912812
Ni 0.2804542690075894 2.599944434377944 3.569057368618186 0.569711980456264 -0.29733265398374603 -0.7141660691390022
Ni 7.1123716665792625 0.9729960915631058 0.5402428717276962 -1.3063124673393827 -0.23039604006219677 -2.285045823105652
Ni 3.1303273502863163 6.342861178186066 5.6496564001659255 0.2444535465965274 -0.5874019415368593 -0.8511824705967728
Ni 8.090495231875758 6.26844326826892 6.316492240481933 -1.647948571226194 0.8651083366492456 0.02719044437186285
Ni 8.91599995874262 2.481845640630786 10.571518436846233 0.49697624335443447 -0.8087669817450395 1.5913747885962077
Ni 7.173613916143522 2.862892043067247 4.601132527788952 -0.1827802379564465 -0.3330769014628909 0.7041210261981744
Ni 1.1013498327770423 2.740287006581523 0.34424542007150344 -0.31149634707863777 -0.955185393243 1.457311042008858
Ni 0.3329417975970463 4.1280428721807345 12.309079276315392 1.0686556319497142 1.6022258723780987 -1.033450287693175
Ni 7.199510903733678 8.118738061879199 10.372233096969678 -0.031124489318946392 0.15003183988083194 -0.11098886704575725
Ni 2.6988036114943923 2.5273809453408664 12.058211365238856 -0.0036026297495937954 -0.4404292001973254 0.609489260354202
Ni 4.514652537257401 5.699701656456332 7.7086106312015055 0.24670788984834288 0.8182031874572747 -0.8622623825600182
Ni 6.735850051090168 8.393303617382132 2.5581643319500023 1.014061341643602 1.111727266328208 -0.16665016516380332
P 1.5945608821444428 5.958736437088691 8.770854436459665 1.0851040073137248 -0.3871862817127848 0.11990005349245804
P 4.018214795558681 3.5686846300212927 7.30686518290172 -0.5148204706247069 -0.05429038591244844 0.4456467398425228
P 3.2227145985313257 9.098512061758957 7.134735055182448 -1.5556104865124047 -0.07726833486486047 -0.9623356311345362
P 1.022620394313737 2.1221158062107106 5.635584127317525 0.2606368412246092 -0.012828262112919844 0.13069020212942653
P 4.895494953397055 1.3050394222437591 13.217241105069547 -0.5531219373080668 1.2008512149800739 0.16395873437456923
P 5.1583034805203525 3.713264553935828 3.5637778323726317 -1.95131149056442 -0.06392585211968346 0.5562951928297258
P 8.374314347570232 8.941257171129152 12.086845478047993 0.7783035230488596 -0.24694957354550373 0.07172529355944422
P 3.639393698178302 4.670776231150362 11.469923230139907 -0.5722630290128918 0.3698336493669501 1.7490363771081554
