# total energy = -381167.8606242183 ev
CRYSTAL
PRIMVEC
9.26769008755449 0.00000000000000 0.00000000000000
0.00000000000000 9.26769008755449 0.00000000000000
0.00000000000000 0.00000000000000 13.56420123560466
PRIMCOORD
 96 1
Ni 1.8319813538645484 7.855868644230051 1.3166875951792478 -0.6343181464724238 0.7230795695785482 0.3630155980038522
Ni 7.268834623992244 0.9347948199505324 4.211019620365347 2.6848459369277053 -2.728004217482734 0.4046630983413095
Ni 5.040325885613552 0.9561105069598935 4.862725434989556 -3.612178055403863 -1.4829336276729688 -1.2426432113151955
Ni 6.869804963177002 7.976422755802994 11.233165945060252 0.08794638340399692 0.8782993814182228 0.16423667062630426
Ni 5.824214909227812 1.3176708970886795 2.5080074405974377 -0.5566433201977639 0.7474163465517 -0.9287400545672779
Ni 4.060434486103215 2.4607014437406622 12.007247899112205 0.10824447153140067 0.6948061765551519 -0.7888627866219448
Ni 1.550206506980802 2.0007274534586563 11.719998627743054 -0.6967905539750323 0.1561927172759052 -0.32436548973182205
Ni 4.453949871366034 7.089856994633642 12.258524631730557 2.5410109698862047 1.1188823893157502 -0.30675343307701364
Ni 9.008760013046363 4.037339402613073 5.414652518722945 -0.914964083829108 -0.15756002993707702 -0.1848584606417139
Ni 1.8324910768147722 7.134369709723191 6.765498038950193 1.5187763484031906 0.4151663118654785 -0.05736748217587539
Ni 3.0916457792177536 4.80690057748104 7.3232443052371385 -0.8553376304157269 1.7634890621983759 0.6026799507418523
Ni 2.431257992597732 6.4865767138187005 12.694139425605867 -1.1495721050901233 -1.75985403654895 0.6500047039697451
Ni 3.979397804707626 7.2019404375428655 1.2270449368458796 0.012584264422913811 1.4736177495886815 -2.0925347310146867
Ni 0.11272476705750517 7.675769624380957 8.374008510515601 -0.6761903612261774 -0.020875815007744693 0.3733717444271957
Ni 3.817287371156432 8.130544440570679 4.967007336453353 -1.2089339919882083 -0.0646591307412822 -2.147056001991018
Ni 6.3054119096191386 2.7249696242067207 4.505512518241679 -1.2735892660747485 4.269515031368963 0.7484694704065625
Ni 7.089412145513446 4.968260328141904 4.448650606221707 -0.6632248022044448 1.6551111504129044 0.1143842658805514
Ni 4.239829161512 0.16974608334554714 1.0668417938975232 -0.977367328656678 1.5938355914318743 -1.2927200733669284
Ni 2.672477428023668 9.048907646143995 12.43679884341785 0.6523991723438506 0.06990778073473121 0.12641780000631778
Ni 0.24617486927111226 5.595766350627485 0.7183738694374872 0.2948078306793632 -0.08159190194087884 1.1577546409009158
Ni 4.741656039852386 3.372160220260947 7.55302185058405 0.4206553600045078 -1.2906318233793321 0.3723769846140942
Ni 3.9135508672287083 3.360093687875647 5.091295400328937 -0.0933248741070909 -0.5891721460634046 0.637771909348979
Ni 6.050059246936995 5.66816554493928 10.74740460734192 0.4753213840888201 0.299216244159704 0.4458601414049096
Ni 7.499766923513661 -0.0403885930377374 13.769698408721219 -0.11866720952662145 0.9510700855230461 -3.42849433179654
P 6.235097945558259 4.477601016256421 6.524069153730166 0.10753176173509221 -0.3225266367508703 -0.450865822149617
Ni 1.6996480082964318 5.055552700290239 5.555367563130742 2.0962787714381514 0.10687921575275786 -0.6898835424425539
P 3.317981304497153 6.7153774446391825 8.526782673156694 -0.03246146296281507 0.19354030468642797 0.19036807760603344
Ni 8.177309204331216 1.1477107301040386 1.9208260640885662 -0.35998401026638005 1.1220631010365774 -0.6413693968922503
P 8.123593673067626 8.992560090919248 6.076490698828604 0.10625752300835893 0.2391120797789559 -0.09083938868107581
P 0.8294480609052676 1.3765948701345572 9.540163797265741 0.3779123126100266 0.11979412404221305 0.32655195586017954
P 2.439376489041297 1.8003599955706613 13.97044862220638 0.7689362229013467 -1.2618935749043751 -0.7826288898970908
Ni 2.5352692775134105 3.1429609787702897 8.985808578751284 -0.6902905480729854 -1.1268337829523432 -0.04311971400760961
Ni 2.3678484575898846 3.8174541895765057 13.497424797629643 1.853839169947859 0.8903570839137054 -0.31243171440871353
Ni 7.331697365289851 7.929222410612265 3.4071235075703012 -0.379154926767876 0.023585500629423897 -1.5350277772650467
Ni 3.134342027066504 3.1704860180823773 2.673788806159244 -0.6325129749428848 -0.09868562419837197 -0.42116263865822945
Ni 7.515030808950365 6.6258144884398495 13.071807060961726 0.0197805250610369 0.6249408190225818 0.15580910868424136
Ni 5.800600835097441 6.146406152219308 8.291850438629519 -1.574527892242198 -0.897088746210584 0.3017426101259836
Ni 7.035400048169726 2.8572937020848332 8.318178092393081 -0.44479004826918234 0.45409795593366953 -0.8387115918232717
Ni 1.2803591771322933 1.1561535956977462 2.04702790594999 1.110879830726248 0.6180479485574903 -0.782039335942208
Ni 0.14243790797955425 3.3095106358334325 7.678666704276228 0.4736614798878939 -1.347276311346254 1.1887253782508171
Ni 8.503346538674402 2.431925266278025 12.926941018201106 -0.24641349853637565 0.2296419355049916 1.2437019915970131
Ni 8.862302707912045 6.052719073968164 11.156894709864758 -0.04952536042363728 0.5300452579942613 -0.6900799747240761
Ni 8.227169376553114 3.236666592401442 3.2563039007510657 0.414407322212267 -0.2096647210521163 -0.7512886850229126
Ni 7.991584696649652 5.011253142070784 8.900517100874827 -0.6657339417795438 0.7539603183178047 -0.1767175767021344
Ni 6.121262909238267 1.7131046941823418 -0.4295583584576485 1.0295085294366078 2.07622956609676 0.18587610327295087
Ni 6.090216147724631 7.8690843701758535 1.1218112436186642 0.38356719690295876 -0.6030617595613034 0.3749683994903542
Ni 0.49502439387739916 4.292173074654987 12.412423891938147 -1.4797284904721095 -0.1541276072167604 -0.5682978737175568
Ni 2.3504900742122614 4.383061310524902 11.086292520644749 0.33442133130592727 0.0605034567016958 0.9099206078679298
Ni 3.2525606807584224 1.09422689109055 10.178115433154908 -0.3797539938044557 -1.1254728980490747 -0.3966813656874136
Ni 8.065874499722279 1.012763895954774 11.212548115108198 -0.29585426966600664 0.3152095342641668 -0.7301102511730846
Ni 4.960725696168595 6.6854335382360315 3.133750748444245 1.2059471414457426 -2.6205827560732606 1.4074907760526212
Ni 5.299367088917315 4.385248485365863 2.703684520574373 0.515032843745829 -1.64753642338944 0.2513618436805864
Ni 7.158613986773838 5.82876534501981 1.9044954675323944 1.1506751083463151 -1.0543821527498358 0.9455103320470813
Ni 6.8730764577484385 3.3817522794151595 10.581921661398248 -2.1849823447231467 -0.9037931548139532 0.5004714009918865
Ni 8.589878960242403 7.726436085633208 1.355688815023376 1.51032538942236 0.1318176308656504 1.2695629185241748
Ni 6.385920332684495 1.361497803117927 6.442833216999489 1.8012485403353364 -0.11460178120799618 2.5001674535072813
P 7.289381092731267 3.39375393797043 1.1940454730483872 0.12584650088388005 -0.1325018014168686 -0.2202350403687949
Ni 0.6884401574933412 3.324079444519831 1.4620985781121074 -0.6402445392591878 -0.27329283942572286 -0.31890729483072816
P 9.070918409903662 6.205024291495052 3.0292112051983344 -0.35049226872586087 0.19527117133460564 -0.5950193488728011
Ni 4.901570030872615 8.325128859896134 9.461640513399255 -1.539035355762543 -1.6644491399843786 0.1831417350609233
P 0.5881683854943051 7.370630930996949 13.068185247708136 -1.3599389944155869 1.3696230544725703 -1.1530551785427174
P 7.515800027220703 7.037550152250671 9.452905715570418 0.16638097066281668 0.33290592310266537 -0.49443187966602586
P 4.435775931268053 4.798105539667176 12.176013460855321 -0.2729963912312266 -0.23231768256494184 -0.5521024949046169
Ni 6.747369510533232 8.194639784638827 7.619689905397328 0.9440499454514708 1.318525978686439 1.043537496725848
Ni 1.1008069509934397 4.554921353960378 3.455480460473538 0.3706360906635875 -0.04199768458802445 -1.1383127301262201
Ni 1.7257828941079094 6.991916046670629 4.060063778503052 1.4057727649202498 0.2104224251537473 -1.0867729103757153
Ni 4.144566575960163 0.7394068919017243 7.5920999922552115 1.1619933615726117 1.6096309065929182 -0.2301589843507262
Ni 4.525144265977301 7.825322337976635 6.881756576206251 -0.6689493633930479 -0.6267663022670947 3.6009994130792244
Ni -0.2665712014320697 3.52709746174899 10.169908893656304 2.8549619491529215 -1.7758974631650575 0.7696813285974873
Ni 2.919507705082156 0.2340935085818065 3.3715856234806942 0.11420557421084203 -0.03242006820191836 -0.2976000487125197
Ni 1.0924474946097684 9.15520805049068 5.412943556686194 1.811330864272003 -0.05927729760407855 2.0090808361644044
Ni 0.3343726947328459 8.515894990939913 10.962818159951526 -0.16756444944795656 0.17878654341602113 0.5072089768260363
Ni 6.964214921248463 4.456378006147101 12.668611573489656 0.5583281640993546 -1.4688624942918833 0.3794542031758497
Ni 7.551582578326418 6.150168834360961 6.746169344677704 -0.2673384216145009 -0.24796490218389552 -0.8408342945932293
Ni 1.6538656196763257 2.1686857994024185 4.197740874127516 -0.8807126188454059 0.2365998548800635 1.0380990993190962
Ni 1.2606375328036323 5.346178191127873 9.238712717734352 0.6739869258169554 0.3761886450507005 0.3189674586447023
Ni 8.930911417012174 7.160402650944623 4.9714150498192895 -0.5422142892566275 -0.010208307991569516 1.54464807396363
Ni 2.018475079816451 0.11078781984665452 7.987592175795898 -1.4004508384867043 0.28107736846714815 0.33692610000565204
Ni 8.895592250406663 1.8262446537520292 5.962429530872511 -0.06622801789029885 -0.7806820505833652 -0.8906411908130274
Ni 4.599211644489829 5.919180928699518 5.347618390154506 0.3418962995267337 -1.3550932362875114 1.547892806153173
Ni 2.7560256534103593 5.57218934725713 1.4943955510072915 -1.6348248893600428 -2.6261389100047996 1.5446290478002367
Ni 2.281056540701768 7.431593795843722 10.508349177531935 1.18878631339574 -0.4773692677567843 -1.3758273835110693
Ni 6.453657878924243 0.6234022893517787 9.333567524926009 -0.09355601628129048 1.0433341224657904 0.6055899252997957
Ni 0.2925337082094716 5.4419875703899505 7.21071601320772 0.48012497612505045 1.0455660971201026 -0.1808989617733336
Ni 4.101165983671103 4.813109929783766 9.655038668404188 0.4862704269011561 0.37645192601441624 -0.28862227069394164
Ni 0.12134742583729197 0.19278741423366616 3.5265432538867465 -0.8570271023030079 -1.8126254147137104 0.7303969291755679
Ni 8.385350309542583 0.918515195689383 8.159544896131415 1.6188609098316185 -0.4814699201887191 -0.06871144643378489
Ni 4.461966423219555 2.7044138877776933 0.784316264123447 0.010206765329672745 0.674100054356052 0.7810620596306033
P 5.518622099033605 -0.0006932232123044418 12.306691596988712 -1.2477463368697157 -1.808373581415892 -0.1829895257537752
Ni 0.6212911095688515 0.4100128002390647 13.537954259555443 -0.6316755666432541 -0.4439613817202999 -1.0185427744537232
P 2.625944356513232 1.7059222344291876 6.074591749146769 0.43215976109968157 -0.8915539324352839 0.449276109064994
Ni 6.295949598124983 7.666974586567094 5.384255422278596 0.14177628474025908 0.4990981747934437 -0.5098438433457219
P 4.9789645100966045 2.229305759719041 9.5061448875678 0.07702536561611895 0.48518079338140313 -0.0456134269637408
P 3.4820564883292096 5.0717340870373455 3.7714855203873174 -1.7508798580747973 -0.048101997713549415 -0.8919249426214575
P 4.994867866143588 8.626912649498669 2.976677304410263 -0.2029801099430891 3.2898902741366762 0.6095656221180921
Ni 5.39510232665936 5.3982718766407505 0.5589742352124839 -1.5997326736425999 0.13205211547395967 -0.8366961040551397
