# total energy = -340859.8354571752 ev
CRYSTAL
PRIMVEC
9.33952171496213 0.00000000000000 0.00000000000000

0.00000000000000 9.33952171496213 0.00000000000000

0.00000000000000 0.00000000000000 13.66933408317348

PRIMCOORD
 96 1
Ni 6.314609309864481 3.1576735660345197 1.8499668301970966 -1.0914852282497203 -1.9399963226619168 1.036335322550454
Ni 5.21949436786854 2.9978089752063783 9.936908197152468 0.04747799097630533 0.3365504618337882 -0.6780934917861612
Ni 8.547156566120329 7.9572070066857785 9.920341753779741 -1.0573767166017853 1.1444918623537388 2.0381451005202122
Ni 5.685891396365105 9.397146424814558 7.800938131664662 0.4240505017289859 -0.8057443928686318 -0.2928280812451731
Ni 0.36932951284574844 4.382327672299101 0.6778335235190114 -0.6674804921570052 -0.9322205569167107 -0.8087281580873039
Ni 2.586505784490686 3.629347424221913 4.372163470967193 1.054421233517887 0.4002922229671235 -0.796643459008628
Ni 6.55421473591437 5.079859180775501 9.28788896560185 1.3886697866913762 -0.07188958705145038 -1.358017866133474
Ni 3.649259284223408 4.54459252017245 11.903160476548729 1.8146326749517263 0.15399133874921223 -2.131537080419813
Ni 4.911037988755318 7.318775990746649 11.705214920443808 -0.507440633220868 0.7899094827189042 -1.4476796895666808
Ni 6.1063566577475274 4.311982395783499 11.86697730205633 -0.4980545640202778 -0.0321668145405317 -1.6071240810106642
Ni 0.6037384290903699 0.2553266427199259 3.312311760588347 1.481124856599004 -0.1447212263011959 1.3594420001745104
Ni 4.274820439429863 1.6997929269569254 6.919744931382723 -0.18930261245599656 -1.8408795244633973 0.037781589624147835
Ni 8.027374832291423 3.0741875826605196 12.891357509486921 0.08397402901981021 -0.908201568294294 0.3673497066028319
Ni 4.536401759749697 4.5324418026011815 0.4827253140690864 -2.4576691751337547 -4.6598390873797815 0.5027175167135859
Ni 4.110024581209232 4.600844458628832 2.784621319888304 1.3946229189510175 -2.5873157664900153 -0.27094516512915273
Ni 6.754005781482846 1.7940847367951511 11.29554427809972 -1.0536684145122626 -0.8288611813917532 0.6583988415707113
Ni 1.7451736622980445 7.486756625824931 6.581196613749417 0.06713381753401987 0.841795372954918 1.0328597052970279
Ni 2.0044667998315893 7.50062581536631 11.786875027349566 0.8554844404062363 0.062361850066673254 -0.5034551662105587
Ni 7.93129917383205 3.4634495024552323 4.713856405515369 0.31013751905789816 -0.5134930100625349 0.10793979580678831
Ni 3.7961326005383786 6.271423362093883 4.148300742486966 0.043984633111066186 1.5158735729340989 1.4689069743765735
Ni 6.1487113880978 6.967834127981082 2.233186079531693 -0.7313304967334309 -0.8799939955118263 1.1223333239788285
Ni 2.99070159928652 -0.03505869609456542 2.3787098349788325 -3.0618812462494174 0.9580416317448726 -1.2415296665360425
Ni 0.40125666735565096 3.1671345013917027 2.8109755818733975 -1.4617667637873664 -1.5919023789649036 1.0445895921394464
Ni 1.7862768967570415 5.034534482563842 2.399637834927871 0.18742570714825785 1.6298878570697415 1.384238747503216
P 3.9570712363478386 7.5238251869627994 6.914796852851395 -0.6494676005193525 0.04251987564008161 -0.10425489075603336
P 1.174510214919352 -0.13953245235569486 12.989079725600266 1.3495969890596304 0.7243414670101074 -0.43780101854585896
P 4.6328696781152905 1.5007210245498546 2.824809281232785 -0.20672852124192784 1.5639552589326744 -0.43865179658192843
P 7.177104787949893 8.097580015983375 5.950602390365287 -1.0270641816611732 0.3704365730582717 1.1986032994861615
P 8.915180413849656 1.5899881717798234 4.422234514044124 -1.4914735468231797 0.37334423362336994 2.3029522710724275
P 2.6835434136724574 8.517064627600245 10.065058574562656 1.1766756461751346 1.174888215257409 -0.21751918409952858
P 8.636778615170211 0.9038107196842003 10.12148516207252 0.9818518467905929 -1.4663392136493973 1.1347090719353619
P 8.191657016825337 6.852042739473323 1.7963831930551737 2.4227327682678856 -1.0581845572150614 1.1605234618953044
Ni 7.776608677957393 6.911526152395239 7.953884938860952 -1.2157512720203578 0.38723281868000403 -1.6930241234085939
Ni 6.813152971628001 1.1714001542343155 5.826676278564234 0.25951841134944986 -0.22152496282481204 -0.10228439729322385
Ni 5.393134753022293 6.167969481588927 7.476961335595302 0.7488075704722716 -0.4789525530835041 -0.8028027937418045
Ni 6.798900861701978 4.6621397387366255 6.452759513026826 -0.613814370092117 -0.5605539681060798 0.008985234217745816
Ni 4.106419525880631 1.6082375969406684 0.5658423863408071 0.781555454327254 1.228112107578556 1.0116668732694964
Ni 2.889078265010595 2.297914567771076 8.685631784633543 0.3636468038299479 -0.23972760187576778 0.027222583161378926
Ni 9.072084376337989 5.272944449851916 6.112379715212333 0.07825563847879427 1.4053585602009668 1.462247817188843
Ni 4.955615525240843 8.646575773304155 0.8574222499649566 -1.3213750180994597 -0.9184854667188054 -0.4985063068457156
Ni 7.304262374216479 7.86985446137903 0.26227898258161125 -0.45554394435157675 2.62548405002962 -0.3455832614600177
Ni 4.528762031099967 7.630790727580589 9.043631523854613 0.5454381955105639 1.6331557291877357 0.8431760553525285
Ni 3.8383659171081543 6.452572722595292 1.504569841391607 -0.7820681322976145 1.7368148953412992 0.3481443373189746
Ni 0.6655735335452951 8.869500813818084 1.343749817506171 -0.9148676674605599 -1.4525838117365177 -1.729272564217667
Ni 9.071225140352933 8.693684320136962 5.323358253370712 0.6117950256692432 0.6203853384414154 1.1425193120084
Ni 3.301567574966527 0.12379068873818994 12.62320583573789 0.2689530743997884 -0.18696367991017476 -0.8479966166696236
Ni 0.6247822391069596 2.692733502903917 8.826439081684455 -1.2582937733682587 0.7227008460828909 0.021649459948975616
Ni 4.100470250636282 0.96067252889954 10.120104780783487 0.11309228654200523 -1.476419994924167 0.896310987504295
Ni 0.7046192714009479 1.7329015309462785 0.4229374327437707 -0.913888591376742 0.5157051872225054 0.9688392365810089
Ni 3.1792665399198183 1.4185052161102842 4.6952109846396715 -0.5399388629588895 0.9857432114251993 -0.594191453654867
Ni 1.2729767909023568 0.5076496953007894 8.989254961330829 -0.11230321498180659 -1.7542441465613399 -0.744553166071292
Ni 7.813369034883231 4.71300277324326 2.7565168315597393 1.502483010559806 1.5935167746398748 -1.5326176251616572
Ni 0.06949257819565052 5.502902150113089 8.866462667449188 0.9571746557588869 -1.180244851583632 -1.855287215248295
Ni 4.398064766155818 5.177429162687144 9.33793199011405 -1.126365842176989 -1.1888379925692816 0.7888640721735253
Ni 8.617968818714765 0.6558679027228026 12.35003790495002 -0.4416059941142459 0.12850322178043674 -0.700677033513632
Ni 4.939439473870022 8.863738329005267 2.9764158670828205 2.9768867463848925 -2.1963687321832173 3.631901501974719
P 3.318332016196679 6.360036742813483 13.113442927011107 1.7534157371227737 0.8104070884516236 0.2502318438412013
P 5.83503421642321 3.0157875542415 7.717172896595518 -0.47494446036537563 0.04616390015057211 0.2544615656518327
P 2.1745114691783187 3.077101513392446 1.6501617753462563 1.4332002650035833 -0.3716282793735277 -0.8612465397009941
P 7.1388968051796695 6.146479242440972 11.009322498004115 -1.371805921056502 1.466606608378171 0.08214366067929078
P 6.038729182010741 5.03657049826756 3.8374469081850084 -0.8317701275084319 0.7950604307922243 0.766503445090138
P 2.3268110475293438 7.2979862157169455 2.7716627337006514 -0.04728001603288632 0.7549180542453837 -1.3319281110249577
P 2.252431097692613 0.56403051915493 6.607523791121939 -0.6617782995659055 0.6784768432675089 0.13720563465044114
P 0.5600742978150456 7.636291705789257 8.42341257499002 0.9713979984471206 -0.21775366870783786 -1.5353363096444008
Ni 1.6767710062703933 3.3378983138998373 6.486891728580984 -0.026547154360909122 0.12099148678442388 0.9853112660941029
Ni 7.853416903404062 5.8574677472504115 13.165441647341465 1.1834091082442264 -2.0542803155191782 -0.3812796864203627
Ni -0.014751774330376173 1.5201939270372458 6.734743952183088 0.9864230111010429 1.1724770347127549 -1.6087407906784807
Ni 8.13011890915655 3.966009158496728 10.435374340886902 0.9115599432435656 -0.798083019668632 1.1942884741608917
Ni 5.497139665300273 2.9458999142831552 4.131665186654572 -0.16340337609173147 -0.2531423326197769 0.8949434177328071
Ni 5.578393503017445 6.195212866028121 -0.14579179971639009 1.595078205589724 2.898833967945524 0.2111675308498879
Ni 2.405617930593424 2.9792793643982325 13.116956455028257 0.5130163275364327 0.23767534733242937 -0.18557862663719008
Ni 8.141531804523261 0.14806503926815556 7.962099982039804 -0.6728571830878863 -2.0965533652557764 0.5662661879995086
Ni 1.6133276361999627 4.046534513530918 10.46250845292365 1.3522295415864711 1.3737910698073308 0.01258657841575897
Ni 4.349499253957048 3.6728042181182348 6.057428772111583 0.9698183126648265 0.8758473203333045 -0.6508480258066469
Ni 1.7010350833266246 1.5079404747286331 11.221894678850287 -0.4370052621174409 0.04458215748574902 -0.13146641817381874
Ni 7.613690063573676 6.727733707287626 4.237411919706604 0.284913968604419 -0.4161978384537865 0.43520446146327624
Ni -0.1642952598641212 5.966805526348679 10.994436234563036 1.9846777247296914 -0.3810374885025696 1.3324338470167825
Ni 7.3134337844047845 9.09477007424776 3.6840359267663576 0.3269911002801272 0.5258183643971074 -0.5723972405979111
Ni 7.034051335959787 1.1202849526451109 0.5595895766452155 -2.493106175785125 -0.08143969263373071 -2.21990718162479
Ni 1.1456324142042376 6.641380490789585 0.7489418389474287 -0.08284094385663153 0.4509846071156684 0.5353080490550974
Ni 4.131486801792457 8.880530788800149 5.298917659356682 0.7182618364749307 -1.2367510142004765 0.5481612508686818
Ni 6.194839285165054 8.790152238502555 10.163026420093466 0.7133967950731456 0.7105133028777635 0.750949556515939
Ni 1.675650263681191 5.327543292989225 12.550704063690233 -3.309915053998035 -1.1755746998014722 -0.24457721665858523
Ni 1.218826244800729 7.068168608279423 4.431188313379693 -1.293092883325315 -1.6641791741524437 0.2268815991510351
Ni 3.1231733733302396 5.389819222862569 6.6794922764875695 -0.7480107856025892 0.9567236842643976 0.41320995947005607
Ni 9.180843105098502 7.65040372289163 12.535667433951767 -0.4238116462453023 0.1714568425238273 0.2862105759286555
Ni 7.526860531475223 2.2094786379614324 9.042620053667857 -1.9492486944981207 1.0631835530915497 -1.961886694977105
Ni 2.627534302777069 6.502212279775381 9.14956878314681 -3.5016846399372854 0.016671804228726127 -0.27911407409319033
P 4.474592805955186 2.482556909342166 12.133488955816498 -0.17870658210770513 -0.6912187163142095 -0.6002134914792308
P 5.876679143133655 9.09848720383528 12.82779459354031 0.7357903322769973 0.9343568865334231 -3.7180355147603255
P 8.38010054367814 1.20512516664773 1.9528416603642975 2.3675689786115486 -0.0342262681727217 1.8932598378373267
P 0.4748894554662465 3.362237107128682 11.933314989863376 0.05050006563208077 -0.623571706589197 1.9096218241351173
P 0.774164150917428 4.587946579331429 4.541731824713511 0.08821197836055776 0.3791202168751987 -1.2108085833031017
P 8.473458401358696 3.706557249096379 7.618835206010272 0.5448229305240682 0.3616346584959256 -0.2564199749297842
P 6.616761511913439 4.225311635551849 0.1917301044956375 0.4354605433381403 0.8876602538078325 1.2056388661767043
P 2.4386331393670098 4.336153077623964 8.602316714504395 0.3040679158250505 0.8129442530511806 -2.4699539060383784
