# total energy = -340863.0112613229 ev
CRYSTAL
PRIMVEC
9.36374564883307 0.00000000000000 0.00000000000000
0.00000000000000 9.36374564883307 0.00000000000000
0.00000000000000 0.00000000000000 13.70478825898272
PRIMCOORD
 96 1
Ni 1.1795697760606947 7.5564397962518965 5.756887988582773 -1.0048722189451662 0.06383894883283199 0.8552080468163982
Ni 8.68307631774752 9.236895058460615 10.33628869815337 -0.5915313903242007 -3.5239264820546214 0.7863927278148972
Ni 2.201248071761187 5.1364920794134425 1.4518028918037977 -1.5170871336262257 1.0949788432252756 -0.12244904516655686
Ni 3.729523738499971 7.472802819465198 13.231945598017768 -0.2806935027651682 0.16595313909677872 -0.30511152659821644
Ni 0.8559128415628674 6.967020094304698 11.602788680371102 -2.42522493856212 -0.4989716765179084 0.287007360798338
Ni 3.6117746360489242 4.5767648151499225 9.04413205265803 0.29012662315361004 0.39088249961744936 0.10197406514165663
Ni 8.617305367797925 5.9859336363080065 13.187912583761223 0.7830513221464901 -0.842944913178329 0.4119673453122066
Ni 5.6935881311291485 7.503927910244305 6.3933108849294555 0.2691937296556848 -0.15660949309834962 0.809648098798412
Ni 0.2521918907748347 6.986833780251928 1.649755285485377 -1.5124090114242663 -0.5043851342239958 0.2623473961578127
Ni 7.755709668956526 4.5679254391885875 1.4683579942398575 1.9752443472309336 2.1954642180910766 1.669264816205467
Ni 6.414156455655224 4.241214987210896 3.6105264487442144 0.22008308817196293 0.448326343557215 1.054694541783932
Ni 4.3413696114507685 0.43223705713813315 2.2832726115346005 -0.16883920239532213 -1.0037195933979617 0.02086193105067375
Ni 5.3627857222710515 2.2445085769956865 12.520283132047654 0.06961287520213173 0.4872857555395479 1.659976706035322
Ni 7.545062845199967 2.110410374514459 11.694145129130817 0.9275516906861315 -0.5230937663770927 -0.868086445440963
Ni 5.5890606376372185 5.820925709199271 10.45917943338023 -0.44546676262123286 -0.4178700839498868 -0.024637081822389828
Ni 9.374233116961568 9.401949804297958 7.633347985362945 0.12267555935506615 -0.5204820397858585 -0.3841140705453643
Ni 4.231841877743421 2.0973760404697783 7.107385451797494 1.5328773065809473 -0.8018414582697997 1.3618976608038544
Ni 5.985006625481552 3.7458822022758733 6.122422403071997 -3.4301020426032927 1.2676176218723458 -0.4047132348529546
Ni 2.6799789355315413 8.191807398455738 11.130110541835291 0.765731857031436 1.4457395351211746 0.46714681869782776
Ni 3.297152779798017 3.2461016381230183 0.5299655348614991 2.3495270335081733 0.2401502912354832 -0.5380776413804347
Ni 6.805111567029863 7.6902851775986365 8.622079941741449 0.4910899597769865 0.7242663907977979 0.42645011230941393
Ni 0.658446426284247 2.336694653626347 7.20854012408045 0.025838815439974853 0.430605272128368 1.2665189894915283
Ni 6.1962246377271395 0.5081601801992525 7.4765380176336045 -0.24443889130850807 -0.21892069243274556 0.08783479752679713
Ni 6.142542283504328 9.158642235463923 10.667107961753766 1.0978865037903738 -0.5049739168479304 0.09787778358509595
P 5.522746590435762 8.682935861561695 12.81208553997465 0.6885406552614142 0.0600231746311676 -1.0353328494278686
P 7.815525276627087 1.1181342403802719 8.792718289152672 -2.7939954367718784 -0.38112773422353075 -1.5986648944997177
P 8.932077043980382 7.163452752055637 8.924695603227924 -1.3542895094392935 -0.9671849888070376 0.13592625371738526
P 5.07799675988965 2.2724031755007896 1.5377733140243581 0.5631124728618754 1.4292867888817902 -0.34398172130085275
P 6.7162683476218685 4.214359764480909 11.897071544539791 0.2676472111041713 0.6861708694776569 0.25237254433328793
P 9.211219667691566 3.5496555469308135 13.748506930878577 -1.633222063649297 0.8573942558344395 -1.443800923337565
P 4.004668042787967 2.7475758158968775 5.1242339998890944 0.7958065649296294 0.8675827663316671 -1.3435363846878476
P 3.5990961243416706 6.533179027524429 10.416543489985372 -0.22263825049364883 -1.1485418640533964 -1.489360614245235
Ni 7.803183859765815 6.028004945835843 10.922483526073997 1.0737407597821056 1.3416029151105604 -0.046209922897159125
Ni 2.3893095408368783 1.4627294466865115 6.050965786720154 0.09305799359894941 -0.44253133414199275 -2.0600074478109427
Ni 6.345155013431624 2.8904478481193876 8.362154533375017 0.03509195860712667 -0.8475993812312048 0.24862207615192022
Ni 2.944898029491383 2.1864627172665383 2.8286958178335695 0.5821103541206167 0.4471541776259847 0.11280406587762508
Ni 0.5763769405313689 1.8813637904146536 3.913183310711866 0.6882028123060211 1.0514477527118602 0.06958510728798983
Ni 6.291247929311491 0.6726718287847345 0.7059477719561289 1.2768702508188656 -0.750309866049411 -0.42677278575615535
Ni 1.2269690569042095 2.864987823501941 1.2999969097881627 -0.6018625970468795 -1.1361722867444497 2.293171794646896
Ni 7.68315000335866 6.052959328184316 6.335928914771981 0.22954757601897244 0.07651628719018434 -0.7249215078832935
Ni 4.852330487995397 9.342265289067502 4.618883879780941 0.46259339499919044 0.6134857831081048 0.7562468003591363
Ni 3.791586645143751 5.374069035865764 3.0077212722877693 0.6647630932258423 0.9914898841009891 0.2642898645961642
Ni 2.3214504755913326 8.1231336873324 1.6472748292436847 1.4908909348468322 -0.4389323039368247 0.02119360335847963
Ni 8.145007397338416 2.4059114620015465 2.7771792979962 -1.5555922316799597 0.2713066622336295 -0.6301118217005599
Ni 8.964044871874448 1.1883436058019774 0.08320249898521027 -0.2591900814757536 -0.04769164964900819 0.7067944592652795
Ni 8.054244610057463 3.44597079055384 7.042835534290018 0.1213162171136943 0.14800169682468062 2.0734021239502938
Ni 0.8863440787839931 9.056596134588256 12.452882890342474 0.030748336926450272 -0.09637111713258241 0.3769226950032476
Ni 5.475244308389308 4.499813552808555 1.5462287764111016 -0.6619580196768793 -2.0877105701531655 -0.8040091553450798
Ni 7.989185304782721 5.9650337558570525 3.456416048906456 1.1741479946572746 0.8439934090475013 0.6078560956261532
Ni 2.346657679074292 9.393616070605598 3.873946407014004 0.2111608459816686 -0.047481333410415 -1.1956334182245603
Ni 7.173799691078173 0.6577525727262652 5.1044989694059275 0.8365621495804366 -1.2550865792848707 -0.22592206345124316
Ni 0.4419968893039165 5.250879597150379 7.714644962093778 -0.2834965194316021 0.22448198857060692 0.6743923887854902
Ni 6.276425119833956 6.626676028556134 1.6382978062202398 0.11632159211258031 -0.28622728809920384 0.2126518287048983
Ni 6.297540366436508 6.435084427343342 13.074656206507473 -1.5529424527619384 -0.6454199128125401 -1.0982176618775474
Ni 2.0959433873743505 3.481103564501858 4.5709855112904565 -0.27123827088953933 2.3445154392261944 -0.04259058097701697
Ni 4.21906972857895 5.407759792972632 5.282908289391636 -1.8604265933573896 -2.443933827825533 2.5248191906176904
P 1.011780816472599 3.6375998467495196 9.302960966400443 1.9816340528073615 0.06732690738143243 -2.410234378690559
P 7.5682193883698625 7.811096224900696 4.894391497402941 -0.24676265434567826 -0.814636810262255 -0.19093243474993568
P 4.161576329847386 8.920924822825773 6.7220064510001585 -0.994312441151449 0.32050857787957704 0.6271116014216555
P 5.325705289212909 5.366549948051196 7.396844114170335 -0.8480894334937459 0.9567036296597395 0.36089932299179783
P 1.9605810792206861 0.7770457568468289 1.3373760463348292 -0.38963680013580637 1.175036310799499 -0.15325780301729733
P 0.7687288778967676 0.35678773961053456 5.255170065440087 -1.3635657925348967 -1.4517590018423772 2.684817140572299
P 4.127379930471543 5.628631827057347 0.4279222431095493 -0.19380692808425332 -0.7896294895846402 -0.2501146015370467
P 0.6328272179895302 4.792486789087673 3.2476513380399683 -0.44044436970597695 -0.05378259303809447 -0.7110208386418013
Ni -0.003231428648577031 1.8341330569941305 9.823661074870268 2.246305212002344 3.1288733959992503 0.2034223396868303
Ni 7.84882275641364 8.237717843729495 12.611050601201468 -0.26892556359596265 0.9702895958742903 0.6127149663803513
Ni 9.299369969916151 9.010123864571195 3.3285503555776272 -0.9118502207904748 -1.3270311879439727 -0.3926629885566399
Ni 1.3242490112075034 1.905522254376777 12.144772582866473 -0.5216740032114306 0.49067498372675494 -0.5293001522981207
Ni 2.9827275622072658 6.89530316582179 7.4784838039945845 0.941514580624127 -0.5983278444207437 -0.6743345389643612
Ni 1.5529959554442125 7.76293848065372 9.094319856977483 -0.24174360386453206 0.5727193998240202 -0.08865189411145377
Ni 4.294092059301637 8.50287103133238 9.066950564607371 0.8858180583927712 -0.6791108773070821 0.7199934744540567
Ni 1.4472699024998972 5.532363157292003 10.12357623209059 0.9564871427735593 -1.1558520245615642 -0.764140087064284
Ni 5.461105052349461 3.187531408633452 10.391203321313164 -0.23011424715571982 1.4204882167535535 1.2227593279070748
Ni 2.647889378943093 3.872096130859385 6.898511185106062 0.5936409804680357 -0.7955972771323008 1.3502577625720809
Ni 6.466780706611476 8.41468327412491 2.9349078491808447 1.3761132901826043 1.8417377586986343 0.32516973080067224
Ni 5.723140112627003 6.507606637958321 4.30243983861258 1.3629767528006462 1.010078445736454 -2.0982829463523736
Ni 3.395406563656373 7.650273892129586 5.000973396706224 0.19068458040518774 -1.7809869618728231 0.32296526695018574
Ni 1.6055359326889698 6.758058744778053 3.5757569881302005 0.21440043596488884 -0.6038683146229987 0.1266769672049754
Ni 8.675669594881613 3.9908752453398244 10.344086825590445 -1.623660388102791 0.4377627091087558 0.771858024533832
Ni 7.102841225998728 5.383245506673083 8.567192473444248 0.7801084374680823 -0.8986771737436265 0.47502416456337543
Ni 3.832421940236317 0.6807592959646128 13.657013771431327 -0.7847299954004936 0.14188221419050404 0.32411557850454503
Ni 5.690310820126536 2.0179059305292593 3.761950389934402 -0.6616749412188218 0.1373223627339635 -0.4163161091992056
Ni 1.53471792379535 4.333541520027383 12.841797641524343 -0.3161677844123781 0.896252623462534 -0.564237587605254
Ni 4.151154480859074 0.6766898120739389 11.285207880472123 -1.276597456773453 0.5339538490200482 -1.1426972323471611
Ni 2.649097302141199 0.38661969710546806 8.115755992078231 -1.0693973952117455 0.9277496656295506 0.6484283606215606
Ni 3.6028135313932066 4.7087655385894776 11.766643930381491 1.1645765489187556 1.4500962694279735 -0.08227144450640671
Ni 9.168904900774963 4.165387374356139 5.363231436567407 1.504772320814615 0.9446646962173344 -2.181006133684218
Ni 7.236049872636389 2.910139805372235 0.26847825370868006 -1.9473298802088526 -1.378659967863858 -1.1862249804264666
P 7.391815782717754 2.746377256444493 5.123905332414261 2.47898259189955 -0.5986726293546721 -2.4961516474796692
P 1.5463757872189328 0.4855270704152028 10.250072009420327 0.8439936661578175 -0.9498688661260932 0.43923209456543066
P 1.4334115588317022 7.007527658297002 13.584665726486774 0.2407311034396177 -0.43044894905616193 0.15001692748249645
P 4.413976095777243 1.8524391798801583 9.20772605416278 -0.3326518981103303 -1.4268750941165038 0.0009065709746694064
P 4.261759045324423 7.798277257007617 2.885296851597851 0.4135622006031523 -1.9856058929709155 0.9885637115931296
P 8.338303200272566 8.77018724419699 1.2885871856262063 -1.044411671800685 0.14542673700865277 -0.13256556477526846
P 1.7333416980451792 5.39962269794043 5.982852963965549 -0.33625555630118864 2.2161757396068156 -1.6050841677625
P 3.2643703060261586 2.6973861388282807 12.098765691011783 0.21629431055349202 -0.7358342981410553 -0.0873041218343077
