# total energy = -340867.07393086614 ev
CRYSTAL
PRIMVEC
9.28946298371399 0.00000000000000 0.00000000000000

0.00000000000000 9.28946298371399 0.00000000000000

0.00000000000000 0.00000000000000 13.59606806997377

PRIMCOORD
 96 1
Ni 1.5548517380655162 7.7936086417572215 9.44842429116905 0.16204249118846287 1.3387158233707526 0.763950339650981
Ni 3.9821698411199393 9.21964339639747 9.729536446806563 -1.3968988594693879 1.3686164675849268 -1.0906745594229668
Ni 0.3853873067622689 8.397405157851226 2.7642710786793874 -1.909642392960408 -0.005394174432377807 -1.3114014518265156
Ni 2.2566242204237676 3.4028882178837465 10.840185572069664 2.609915763277718 0.14450036853964146 1.4562761729864402
Ni 7.038180221109193 5.603970739028674 2.1861385620163323 1.1112827225916215 -0.224890022642303 -1.7727584033154438
Ni 0.751857551070711 1.7548074291471412 7.314412621832646 -1.3050233162143139 1.8511212567960635 3.305322549531346
Ni 7.454812636672997 0.3968235646619478 2.7020957738720273 0.10119784909726441 -0.8553440581736301 0.9576896477220925
Ni 7.03929495666923 4.477316797962345 6.7370557753301155 0.26159534848313654 -0.6474528840821688 0.5413923075759643
Ni 4.014822303566021 7.257987494622475 13.098506048437288 0.7753403266554776 -2.7541176267403342 -1.4108530076566346
Ni 1.2028461165948532 5.958131515915408 7.08035624102319 -0.5643239766714733 1.483803688982748 0.6154213095679207
Ni 3.865419870132071 8.148447549442979 4.704184992302162 0.24664952580658167 0.18926507434984177 1.0999955797135765
Ni 2.768222816239718 5.924410765224291 9.059154917818953 1.166350610100043 -0.8009073764913045 1.29461471928648
Ni 1.5173315970072732 7.712901787210549 0.3827751097665823 -0.9504450503445373 -1.1695230942907535 0.8889141808195917
Ni 6.901950246209679 2.7814138537001556 4.317730326241158 -1.2703576465113284 -0.3125183605852489 -0.05556976684550429
Ni 6.216360008397964 6.813793242336758 0.4274890109722638 -0.033020420790078615 0.9722030108469193 0.2139443222640767
Ni 4.521804036270819 4.894766686270176 6.8882167041100235 0.41952150351038076 0.3638504352003218 1.6575920078532294
Ni 0.25659447594080165 8.22636756508956 7.5967760681363 -0.4791412720555426 0.44833482819764725 -1.6693298651154478
Ni 0.1992208945583007 5.692202058605598 9.377058920615486 0.2237487099490082 -1.0181671362818594 0.03819296612995358
Ni 9.285217715716643 4.685289295613235 0.5868971250038454 0.4924919823308357 1.4047003577916775 0.6406608008609999
Ni 5.172066446292364 7.259529545480526 9.763608339199093 1.18351246659131 -0.09896124645726183 0.01642035033955237
Ni 3.6994821925575736 3.2566627807959017 1.4427604327723023 0.6686184624161905 0.24005670308041235 2.4357271236450244
Ni 6.919535199669261 8.956398593894749 7.925025745876277 -0.3157661780985852 -0.1302423159587305 -0.4145369058115957
Ni 0.9721701713712104 0.7932244587573816 13.270238493031377 -3.546674317274099 -0.105303900845838 0.33229065811616965
Ni 7.94142257701812 8.997987519747126 0.455291444785885 -0.5286257519389154 -1.4966895438064804 -1.6397801764827888
P 8.054224526230858 3.0844825840851966 8.299039963087267 0.3998579636431823 -0.02711613949050169 -0.7813525942878287
P 8.893796902735675 2.5509515661255193 4.753891979870509 1.8253773150627401 -0.11014785920170062 -0.6869401435435137
P 4.112798269830268 4.104688568630999 9.605200700332643 -0.9696702171227365 -0.4598816524949822 0.4073504153654855
P 5.077230318522221 6.400542191305067 5.401676890109871 0.5720519414433503 0.3488195090091283 -1.2903942534472292
P 3.4500322426103085 1.0548371026109495 2.4294138059072927 -0.13647672690421656 0.7612583946411148 -0.2630516213136889
P 8.558716682851573 6.641473703681049 3.3954139159536987 -0.3234231804232108 -0.1618414309212503 0.941962723905139
P 0.27039490217405887 8.870508218993903 11.402382943901989 -0.5947295855465241 0.9309743432144354 -0.11542839087434958
P 5.390907615653615 6.86273013342238 7.6490395159223326 0.6435882589204399 0.11484552178768609 -0.25743298957533084
Ni 4.128023699687772 1.438194661707651 4.6661437123696015 0.04609062371047547 -0.36986013172951143 0.2879545552029557
Ni 8.784645712482057 0.6446673664564595 9.225557997489766 -1.0748080247043554 1.6255704606413102 -0.38729298249397814
Ni 1.5702165098680252 0.8635689173272122 10.08439393341832 1.7039885928398977 1.0603286001412577 1.0893239589323434
Ni 7.629389514837781 6.589935762955341 7.995603369967415 -0.4357701041587592 -0.5784326481587134 -0.9536247336240996
Ni 2.0309738746832915 0.23622639936632678 3.7100675356464237 0.40935176206623053 -0.032950229673775505 0.03702748506694268
Ni 4.967809733841596 9.079790530927836 11.819673982392517 0.6704714564645292 -0.029956951373406475 0.7847271671870163
Ni 3.9726667204706247 3.353013091035094 12.817611266233978 -0.16456757160316174 0.714201293252312 -1.5942721647486608
Ni 5.339081701574897 2.6751238180506336 6.5132512458878 1.496556617773042 -0.6191697208667595 -2.758451478228998
Ni 2.1404873539939198 7.077948412213511 3.444550530493827 0.17297173650645692 -0.6718354266915914 -0.4265580986421879
Ni 7.41686518031674 0.7620843208877498 11.52764392089074 0.9699329838658197 -0.2314139398037498 0.3667997476366328
Ni 2.2677251287091353 4.173049726850264 7.69092849142962 -0.3177793518738721 -1.2803019022082336 -0.5464810349527813
Ni 7.812670619833854 1.75235501091506 6.496160491859834 -0.5968792848996752 0.5642062201466863 1.186517314855905
Ni 0.15195796470533476 2.0822238420559893 11.419731945001367 -0.8124290039776589 1.0681887196156248 0.8183160588860552
Ni 5.532887768150319 1.4362160060885854 2.7528506128668093 -0.7205290352425526 1.147102046283076 -1.0937974213226647
Ni 6.951258715815313 5.005757190197854 12.654118575321164 2.0940645373956515 -0.7147288836210077 0.8820056266252164
Ni 4.1987165131201145 5.566970807898448 2.416170747454054 0.2899371328506232 0.08529609026534342 -0.7906910980799351
Ni 2.927815790585006 1.318574246652688 0.3476061317937171 2.0099866358081253 0.33630569281283373 -0.19561415649632116
Ni 2.3845587048640065 5.291686861347327 13.137785613787788 0.2628801287328311 -0.16659720043868081 0.46843417005068355
Ni 5.946761213203032 5.050523112396337 9.149542321758249 1.0137960037973572 -0.03482867764341099 -1.312737911249752
Ni 3.5901916603589523 8.402746599076403 1.1663970506205457 0.4968679999113442 1.6824589462982378 3.39960953044139
Ni 2.8379402360570283 7.728062190827051 7.468496944618751 0.816210325396962 0.3831367942337595 -0.7919141718537588
Ni 5.149437314423614 5.398673606721872 11.393205883403986 -1.870724632849288 0.10719906098602185 -0.2054774224436461
Ni 9.228459096784762 4.571511952785466 3.591238582839087 0.15483311792421722 -0.7902763791400196 -0.23803864420911908
Ni 6.068899072731077 2.047416224193836 8.49950007200981 1.190492497453569 -0.6949771549153773 1.6898233570831092
P 1.6377787742692638 7.814156933913902 5.550323161255596 -0.259712786748443 -1.003170662873027 0.03581032483038994
P 7.591144795665514 5.968582161790755 10.69159410875564 -0.6710445553591798 -0.664310579069456 -0.5138203114949668
P 4.819364115096678 5.1393489576052795 0.13036182112221922 -0.22208237799017883 0.6479974437317292 -0.23732284908901705
P 1.4601549522403785 3.2352970158951933 13.050321603854691 -0.040827832649639365 -0.576824166021013 0.03516060706153299
P 9.135545887855685 0.9427504420492357 1.6060487554991125 1.9103556169773488 0.9635026548594439 0.5386265719053692
P 3.5713154715423268 1.4941079395065038 11.83488826489442 -0.5532360942884278 -0.9940126505228428 -1.0500647563214045
P 6.199193080773395 0.03390653995112341 9.910826819881672 0.15973852564563457 0.6231400183684171 0.09050565949074091
P 2.4060545222467185 0.6012762847820218 8.20583878080518 0.2866553767755579 -0.7989325121531208 -0.7029995109992215
Ni 0.2536608635253044 3.8164458211944483 6.299888072857832 -0.15569032371818992 0.7275669159259405 0.6611550641596097
Ni 2.3602296012662007 8.765685918498429 12.070059381263912 1.6232819217174497 0.0035432372665680917 -1.3872942465000881
Ni 5.374966897145087 7.5825334634642285 2.9129442892678132 0.4548800855153327 -0.014030252840820998 0.5139246982833149
Ni 1.799322535844616 2.408590545645803 4.648536464198818 -1.3925493242514404 0.641271180751489 -0.6442559744114259
Ni 4.146574757299387 0.4282665390253896 6.970567793607753 1.3002454352096962 -0.16301796772785473 -0.36607418232451794
Ni 1.7880358382992423 0.6449191109037677 5.970481856974318 1.9172312610512596 -3.829761002861791 -0.8408198964155261
Ni 5.568680069090505 2.121555428399293 10.971795897019124 -0.6488901307493277 0.7548038972650226 -0.1685314413469162
Ni 2.8413773373671423 5.80757718906942 5.370745765157746 0.23888582270076278 0.17490829140753747 0.25072343876563913
Ni 7.063791270601041 7.828741390824386 5.772836455340869 -0.7102099127047318 0.08961682912788438 -0.415495155959807
Ni 2.4382239326167845 4.192752677873917 3.523516539674243 -0.23016361233641652 1.391606500722197 -1.4629430434836548
Ni 5.540300759624564 1.7549374816291456 0.11810251680071304 0.9091729310686278 -0.9787305275527918 -0.03360560386958729
Ni 8.399773970916305 7.777296344728682 9.820942904836993 -0.26604875626879987 0.4225119535972723 1.0274485615837854
Ni 8.088976407315009 2.86212999770983 1.4651127386436429 -1.9051835858581057 -0.06820211089753415 0.2958560694382195
Ni 0.3106517190321927 4.656844959906293 11.794072222363669 -1.3369942126939556 -1.1556609915966807 -0.3623540531604533
Ni 0.7642822078336227 3.2001363984390285 9.372449489074734 -2.3459449725838697 0.036524834398911285 -2.1990491072288583
Ni 7.7831115485668745 3.7775508396121595 10.339727829229982 -0.4568163833060972 -0.208406423164983 0.7054968234997785
Ni 6.910180710427952 5.256526243891162 4.361183647317698 -0.6789733232879531 0.8282225193664897 1.9498906989574936
Ni 3.788205853673513 2.5495860150644742 8.07694841062221 -1.2011823730672475 -0.8340447824752216 1.9513523711046845
Ni 4.654959198917231 4.256766367409037 4.526620622836479 0.2381168057452222 0.27355174951406436 0.138075181739588
Ni 1.2295811911097392 6.579540853857997 11.412906976535037 0.4638113265666915 1.9261352484091083 0.5204465585622327
Ni 7.078087754158514 7.739116651797417 12.030099827221788 0.5776096380367858 -1.304074322037483 -0.4169969373163141
Ni 8.730841142784275 5.98080709509916 5.780871840836134 -0.5953427936504908 1.120886821340289 -1.327327893248785
Ni 8.660575644649947 0.3416032808029182 4.757671862365334 0.6917010552672668 -0.21860753206770092 0.20010613082940376
Ni 1.1559900652213009 2.7181897685200602 1.5954439045379611 0.7691863912389398 -0.022857364214147732 0.48228033190515646
P 2.0861161270531183 5.776959119020405 1.7300454365735207 -0.509333993588839 -0.4840564499689728 -0.18653276302034327
P 5.918001035754079 8.82422811432637 1.2773095230590206 -0.6182783194007417 0.9343360605978166 -0.3876830188435452
P 7.154642218744051 2.819212678648408 12.438757238799827 0.4634580569923309 -0.5453962865290349 0.305200486767597
P 6.361442841536771 0.6940538675512958 5.331779254710355 -1.3463730828056941 -0.5748256475337455 -0.4655056835499789
P 8.821905748576292 6.853041223513059 13.438000621139135 -0.7977469764854519 -0.7446087018995757 -0.11966171222940684
P 3.470366877117982 6.9958760066057915 11.079775685988402 -1.1255973394420808 0.4430141873156822 -0.8884770932821731
P 3.3082843266886117 3.2414745087903984 5.8549432319616885 -0.5664194257479213 0.26853347036386654 0.9055245356827631
P 5.790549603389855 3.9507993245679 2.7701039324972805 0.2864422323234873 -1.2293747763410634 -0.9945716083501064
