# total energy = -340890.7385460873 ev
CRYSTAL
PRIMVEC
9.10164124411113 0.00000000000000 0.00000000000000

0.00000000000000 9.10164124411113 0.00000000000000

0.00000000000000 0.00000000000000 13.32117196875022

PRIMCOORD
 96 1
Ni 6.603996036406475 1.9566252901824905 11.554784550504387 -0.321624179541259 1.5104670572065468 -1.7686929749968188
Ni 4.44120947422527 0.3673804606953557 6.037301468293423 -0.017334891734021758 -0.5054873661492391 -0.3571362564049398
Ni 2.543753952673906 1.505365925664533 4.664461807835356 0.6410801477866056 0.06858597659951414 0.9872537345324545
Ni 3.6889770426262354 4.484606098872741 5.189768483486277 -0.5386378847592788 0.13931856722838584 -0.3865792442564052
Ni 5.019373020257424 4.4233338511532 2.863172405558374 0.689923908762186 -0.24531640881745492 -0.1973725339483246
Ni 7.402728752259689 6.32024327424004 2.54547598316537 -0.21281072288026573 -1.1303618507102597 0.514648720933533
Ni 5.096482123448149 4.511747192559562 11.604738907546679 -0.20661179315840547 -0.8434614478034311 0.6367462962979421
Ni 5.499075013135983 7.90844323533172 12.71695034531856 0.8436283123985987 -0.40323459342489903 -0.3529936949914759
Ni 2.0409155881817 6.5349964954139255 0.31200334590034545 -0.6382043689007073 -0.3486063645570577 -1.2734252296930584
Ni 2.6895622427016934 1.5983482908907423 0.29917367264047223 -0.29199015872491 -1.160724779272833 0.11205793174021993
Ni 0.46283665196585655 8.684148799264193 4.194730662754891 -0.05536150748944014 0.4401954869199645 2.4211744226418297
Ni 8.899712066493786 2.2949514922369785 1.4670871537937553 -0.32608427219514163 0.45528452004260306 -0.5755861798488539
Ni 6.690024747851084 0.7705212691759282 4.765649302491032 0.5021449320395674 -1.2494401796323706 -0.18697782097756185
Ni 0.7459122520362822 7.633082186236797 2.197220800861737 -0.09861826129554628 -1.137848388895292 -0.20682416627952765
Ni 7.734201418584408 4.164574195379792 3.8882765874182112 0.14604945819431622 -0.024050098970668256 0.1438280250629652
Ni 7.743576108892062 4.067578006439335 12.94018629597471 -1.2793891605859773 -1.2836908732851247 -0.980574522740066
Ni 8.215532605215461 8.698574900368689 6.933869544394246 -0.9112259569429145 1.298697631106602 -0.6151991662547857
Ni 6.8511146932444555 1.1254907321008787 0.2898190059431839 0.7943117255516579 -2.111069299483764 1.7227478757252717
Ni 1.975929870903398 6.423410375829613 9.395861634959687 0.8651595016021553 -0.06412074173930893 -0.7329333224441764
Ni 9.025032562460865 4.917671282880989 1.3483689882627663 0.7924415051121385 -0.49653427072100936 1.5647520438023568
Ni 6.41101394068493 1.7368115565706876 6.9679988780987525 1.248595058023256 1.0214342370689053 -0.07292162786039054
Ni 3.3943114128104055 3.884270955180931 0.3250259739510169 -0.4236707497920639 1.5228919132334608 0.0636671991416581
Ni 5.993649087531733 5.578878202085024 4.971834238756543 -1.6604742144970306 -0.2715948828980097 -0.030156468978722258
Ni 5.446758780234627 2.944435497735908 9.454608177280807 -0.053659951417301135 -0.702828532638996 -0.15950404103732532
P 0.27248220002277634 5.552483442966386 12.604052679255284 0.4482600090956538 0.2558103663702433 -1.3347370412286628
P 3.922179290259941 5.860983567216813 12.801539177145042 0.5539367198998782 1.2313822936893957 -0.03157494659280368
P 2.2795333122552632 8.525097621471708 1.0488958716309136 1.3432589626567446 1.4397074699944818 1.443105182822121
P 6.4961597929452255 7.885097525973339 5.869707490187577 -1.7096774156945587 0.20824290100392523 0.6311261218976872
P 4.815887630734876 0.9553537554785678 12.51603981005624 -0.06455602950451463 1.2549107158286388 0.3298792204611996
P 4.22538225940449 6.164650720056207 8.42372263300988 -1.8952714689507164 0.3787507493509219 -1.2097960828781873
P 4.591823430740864 0.9498108560636539 3.716566847218073 0.48349312126633515 -0.877695943506269 0.1331756875554416
P 0.30398753060524725 5.824531494709866 3.383431311068881 0.2601295625708875 -0.2827331589030163 1.2454526557395325
Ni 1.4787982353654627 1.0628896447843295 2.636925632034484 -0.06612234555037 0.24497188099384262 -1.2971050898085015
Ni 1.8800440821741384 6.445427245590988 4.936680060266947 -0.16098422512727759 -0.21968071052722166 -0.7266480036560969
Ni 5.8987735809618425 5.4731444377121905 9.61667381859746 0.9673580240497921 1.0646130864492245 -1.1017305601268124
Ni 8.706065550973737 2.4875786239565842 10.006624528831573 -0.0034365364853747265 -0.01092024645692958 0.8959482048482375
Ni 2.443326445048026 5.256215924321286 7.243773141698498 0.28980112149339127 0.05316835649286327 -0.06841165580517895
Ni 0.5678468358731968 0.32664788639065184 9.156560377641362 0.18369195113743847 0.17174917695326553 -0.03880026069664931
Ni 1.3073233175050691 1.153605701382766 11.351063428477985 0.8487255244158479 0.019615974458714606 0.17695668929613395
Ni 4.269152051336052 7.042522205059958 1.631590214590398 -1.7999673596300678 0.36893916257713877 -0.048259606337336246
Ni 5.78414751325835 7.6823675726600475 8.152730371631145 0.20408234186833238 1.1401392418119978 -0.04490380249122589
Ni 5.203462812648312 2.694067555034012 4.820372919456829 0.36250549113665315 0.6741828438778454 0.1919840159429016
Ni 1.2132942635551898 7.890467494207821 7.409235515464488 0.29498780790065326 -1.5906985884647893 0.06862402892630118
Ni 5.154659813202057 4.578170969127776 7.327310733980774 0.16060447319035565 -0.4484872946151115 -0.17326638492874033
Ni 8.251611510438318 7.551212924763642 9.007749456222802 -0.23982221847210314 -1.2772978252745872 0.8776442643327272
Ni 4.714722890181889 0.4330342384285915 10.2604729390807 0.08330014288123717 0.3542910736466608 0.5377320851155578
Ni 7.942374153260784 6.710321407449209 4.877626792641585 1.966941483792193 0.29538067246369776 -0.08888894982292433
Ni 7.1806123034558125 6.024503650777314 7.24288118087311 0.8951421640071745 0.3058851715394474 -0.6014411932387449
Ni 2.217623949660444 5.435245204274256 2.314473602179588 0.4851548252394742 -0.8445811632301713 1.3694993844105126
Ni 2.2915656817569325 5.11690620602133 11.447442526153532 0.07697574332510614 0.8315754949991226 1.4290769868638291
Ni 1.0767332408600014 3.4788019469132734 3.804792694818282 -0.07190089990536004 0.32495658634860164 0.5374163536473519
Ni 3.6912888594593856 2.499738416433308 2.4800024179254274 0.49684640264478946 0.15871856902155246 0.35730312100010725
Ni 1.1441581979465085 3.2450991090204218 8.165611924245148 0.15619220305527293 1.7086291769357025 0.06660417028279497
Ni 3.805760199264596 2.6792409817221983 6.968890838924142 -0.9256591016491089 0.25768958567082717 -0.17844047293051205
Ni 4.02721222826997 6.915226652979519 6.118320636490137 0.661425544212177 0.37742637411254354 0.21492519812010727
Ni 0.6289570743815969 7.279501633739951 11.177661693201932 -0.6366573361285616 0.06295834600009156 1.1962337708127204
P 0.3622444046365117 5.8631497577927565 8.087563531695444 -0.8831456537669307 -0.14419543570471294 0.21939351830410606
P 8.602807432973409 1.907540139862899 7.796908084937431 -1.3458259520529727 -2.133085655853855 1.3294302843037684
P 1.7784151579263066 3.3300265218949088 10.354680385195655 -1.9754315235410749 -0.18927073077679663 -0.0800870352605782
P 3.923717467601682 6.029373028752648 3.675684095835625 -0.21778966415209586 1.6650104118044873 0.7988795474279984
P 7.076944611607092 4.008836014938752 10.630175228414389 0.5840499943454909 -0.5946671077397049 0.18171811524051928
P 6.571111807201082 7.795482767945025 10.55164717938001 -1.0970138713774331 0.5149122590075649 -1.2048575079259893
P 2.3110249903761213 8.499822364205343 5.717420652042326 0.5282154038743742 0.7343209468203223 -0.24707221516629707
P 6.923536451281353 3.965494000137734 1.7880610771380074 0.699039497910209 1.5729392075988393 -0.9152317356681979
Ni 5.436774279974922 2.968791489253658 0.5920490096567729 -0.00015040953493522484 -0.41353854645406846 -0.30281835968866555
Ni 1.401479794430004 1.2307512111377925 6.920867850118048 0.6001679829532761 -0.6176322011763105 -0.6552515541909812
Ni 7.056766273342948 0.6651652229077231 9.275731804897903 -0.424388858905011 0.11030778181833262 -0.7733839742600551
Ni 2.7250586428957235 1.7256529446122564 9.26515478780419 0.4897930953424339 -1.0522363100514265 -1.1305580258814658
Ni 6.8083824883954875 2.0880802922343835 2.6729726815135755 -1.5947740440857439 -0.9074099256309339 0.39248995331388536
Ni 4.257228901527288 7.147445923377083 10.339121129777274 -0.05154316218461445 -0.17397549518062297 1.5526344346032166
Ni 8.197474949321883 6.987047702705442 0.3677800227385654 -0.6331994594869482 1.0113501133600258 -0.19535601773892808
Ni 7.588775397481787 3.9071797857676946 8.321896203150711 0.24225551050394406 -0.12372431233455464 -0.1421771197231035
Ni 3.1927464695547645 8.535227747988621 12.411509282633574 -0.4776320344998677 -0.12604730404077646 -1.076930727474313
Ni 0.09597225431947562 4.955861768833336 10.266547374334415 -0.36990024093882745 -0.19185417523325668 -0.2696351880684776
Ni 8.564480422404932 2.4428531597121057 5.703513344479126 0.0730895208968225 0.6689334225534479 0.4593892862395959
Ni 3.395185170353643 2.500047872229872 11.402376660532832 1.8302187023154415 0.25825240015283263 1.3175499879264148
Ni 1.0846061603902157 3.492245070781628 12.89424121182613 -0.34800344086573615 -0.9303097130472429 -0.4850239560885647
Ni 3.424310421794899 8.490402165692313 8.278575122124167 -0.184238824779844 0.036093917509079775 -0.10437187594987186
Ni 5.599775569994126 7.6503024911514395 3.6000995175250288 -0.4698037967047006 0.8119379232738533 0.9684679692845191
Ni 2.923792975776918 8.382547718948912 3.4134439725149877 0.850441221555374 -0.37994631232091985 0.1364006222506425
Ni 3.4793753503010234 4.328576665917289 9.541848317152551 0.8615077637821809 0.05085539208897048 -1.3116071400794187
Ni 7.276397974133242 6.1055810694769095 11.608202081975866 0.14923068413577525 -0.34039091862580084 0.07244571666523651
Ni 0.3628523942603479 8.99371381552044 0.15704335577125136 0.08991224888111611 0.40909079509536 -0.04235892458218511
Ni 4.684359815554379 0.45840597309035547 1.4890539645292147 0.21655913417910444 -0.5192998465522992 0.022047209608026547
Ni 5.764214919303241 5.624541135360269 0.6622718112098557 1.2553084654876896 -1.0693791403793003 -0.866046789303115
Ni 8.151338730710718 0.035298894582694515 11.295861065191623 0.08341250008938537 -1.0063927693547507 -0.10984061237392696
Ni 0.1332789709234017 4.852539939345482 6.238011767452084 -0.20292637388701826 -0.4898879690490853 -0.9849621102848004
Ni 7.819083323253517 8.800749923081044 2.544090713393696 0.3323917024704082 1.5505394997474007 0.10638453550452646
P 8.641389289491999 1.7012241399659032 3.7583688643491353 0.25008451963005957 -1.5197428260815182 -1.3970657240645552
P 1.8316051483709 3.1983439788161308 1.7577416903876601 -0.4895802080006794 0.22875850445877377 -1.0949407908984885
P 4.773674219427205 1.2423558035089177 8.141260483547937 -0.4749354615043111 -1.6472510309385373 1.670200440645859
P 8.673026593870063 1.6897742754930594 12.502758695399027 -0.3279321240371578 1.6125411382611776 1.0096817245186676
P 6.34491782319543 7.855944969608856 1.460080710493918 -1.1714871599956598 -0.01841706905460699 -1.087836061532907
P 1.9259709630405686 3.3616638262729728 6.0064359830785525 -0.3343503688586758 -0.3275132913321844 -0.3908853278309268
P 6.9136884756377786 3.964984308237512 6.12107843373598 0.04162616018121863 0.15201878840387367 -0.4583634160782428
P 2.254795051812347 8.372381185867699 10.278895570781401 0.760355166100555 1.4181999349400092 0.06086623935775323
