# total energy = -340894.98800681456 ev
CRYSTAL
PRIMVEC
9.00359378497514 0.00000000000000 0.00000000000000

0.00000000000000 9.00359378497514 0.00000000000000

0.00000000000000 0.00000000000000 13.17766960152494

PRIMCOORD
 96 1
Ni 6.418697845259684 1.9209076770340867 11.333362497375939 -0.4755643533375616 0.4862454872004916 -0.029610623777581262
Ni 4.600296080618124 0.46548578574383886 5.997038851764691 0.015271067226457572 -0.8278342827891355 -0.21614004436381487
Ni 2.7391182430932184 1.5302957751247885 4.784377251513066 -0.185500465101087 0.7150371588900459 0.22254440522826188
Ni 3.3791476931006943 4.300404387164434 4.88884954873357 0.5233490769210084 -0.455676356164383 -0.688672295743272
Ni 5.069581382833605 4.364645027034498 2.3781209610382454 0.37347150322985356 0.2492481397716933 0.4790577112028008
Ni 7.066380349771653 6.0981248974567945 2.6706126009657685 0.8765823987271161 -1.402022039628566 -0.6564417178443405
Ni 5.063413921262338 4.345737480611634 11.392055122909923 1.8114280519714996 0.9730306489545372 -0.031219620135913978
Ni 5.717732074209378 8.032646007915343 12.1526967119082 -1.1182486123864934 -0.5241016388163168 0.2971891864273462
Ni 1.7626064955070426 6.515522490131817 0.3463106202811745 0.4978984980583877 -0.06473703516706915 -0.4810050647371587
Ni 2.82421120558964 1.4075767952468674 0.5579679974541868 -0.27559629074791886 0.6586803773668721 -0.43896007185096664
Ni 0.3403025223154711 0.11132673297846893 4.968587173795554 1.0764861837377266 0.02556473584298178 -0.7177810401837702
Ni 8.542960685868438 2.1520119158826914 1.3072263431465476 0.3622710065283438 0.9634682020770826 -0.583686183248169
Ni 6.9414915038518705 0.5507849305322056 4.908852832489607 -1.0785006430645943 1.0959005837085964 -0.7272097896968379
Ni 0.5521120602192199 7.2204498423373895 2.450255951719532 1.0061323166045122 0.3884710619624793 0.9830314689209907
Ni 7.54190514230668 3.7848856321482836 3.891260388682669 0.746352938284192 0.28351785958784076 -0.40341148532239557
Ni 7.668162534443737 3.818045867136573 12.457021774818376 0.38019468088630004 -0.38250867373145736 0.5611360658617949
Ni 7.934461820419472 8.8767599125738 6.960840226357934 -0.09972846364058954 -0.5405654407992948 0.4006699180215164
Ni 6.8991746142387935 0.4721250356163245 0.4311550835960389 0.4344948369907614 0.8606009356971954 -0.5777171101489276
Ni 1.722378439594016 6.595069239010865 9.209846955030564 1.4663173592725263 -0.6550389239595428 -0.794265959915387
Ni 0.2425604112621531 4.852405703183177 1.2852539734844728 -1.5063144684907543 -0.9171196967195302 0.31322181441017666
Ni 6.272002295798865 2.1073000703893854 7.036611768467885 0.6241558612274413 0.6458037785145201 -0.7239753419199403
Ni 3.428271299426002 4.159903310055486 0.6231954311756532 0.8808956813904895 0.34675337050871896 -0.9053661557280278
Ni 5.6915316170234105 5.285892717504702 4.6042252488366655 0.2532798866389057 1.2862195532442493 0.6839640916343253
Ni 5.457132062941106 3.0478604689915154 9.171710433895646 0.42007274802816036 -1.4646350864740971 0.14158370911347873
P 0.2129124781117491 5.4348661761298 12.247180422461312 1.0681951473735283 0.8798728965529298 1.0967369635669628
P 4.054417208202976 5.927389753258335 12.45204098687498 -0.914965883601321 0.7113923630486071 0.6463845907186545
P 2.4092896011366602 8.412876766479135 1.5010421993712044 0.6700618797309363 -0.4551096850276356 0.20319942504274685
P 6.222914703847696 7.7285586398744845 5.810732892907325 -0.5215840146007856 -0.3314913021433259 0.5874281667891045
P 4.720908219608926 1.0175861412914635 12.432405950094514 -0.5141902932398758 0.07924936985063126 0.778354173781137
P 4.04787159570325 6.241786235896421 8.206630549020476 -2.0203628368361266 -0.4029962521618479 -0.7517111172723119
P 4.904788610368045 1.0141467685612093 3.8119963526406098 -0.25755126032075004 -0.7079931075590711 0.3341680776445406
P 0.05844232563371873 5.499394930992974 3.707299865941092 0.6819483467558771 0.43610486179035857 -1.1114511298486858
Ni 1.3142455446661974 1.017487101762582 2.6631144082700726 0.5108635428594879 0.028850862793421285 -0.10228645417575287
Ni 1.960280391561317 6.46312157575988 4.712492560732045 -0.8438892793694692 0.28347363661346664 -0.637187754710735
Ni 5.862851994801625 5.43887277525274 9.1515486868934 0.6587114877151237 1.321545225128737 0.2632380262928822
Ni 8.726435914918497 2.292296906746806 10.275867027382576 -0.24445766036158542 0.7414976670744198 -0.7475500439160867
Ni 2.385934279507656 5.2184287911492175 6.922242721234041 -0.10036326901111102 0.5283812400282771 0.8627562914773013
Ni 0.49777537323732296 -0.23281041982342965 8.902622735002216 0.1754996451346332 1.0406516905376206 0.5153897128646155
Ni 1.494731580662735 1.2007642517548758 11.480833256240096 0.2581598404390264 -0.6751701474917791 -0.24897714549849378
Ni 4.004735379078516 6.64681289105477 1.4226875262761496 0.37468892057672243 1.165634814979941 0.4647937450846189
Ni 5.5430443524491855 7.836322650891274 8.071256118070185 -0.6313690911464288 0.03313689176328487 -1.2678762748503714
Ni 5.3960967023693955 2.8274705064492003 4.8206284201618175 -0.37014835239389154 0.408621054547793 0.46194650544381094
Ni 0.9324031428596945 7.312628632945618 6.785208027635952 -1.2515546548722123 -0.001984634530196582 0.40339451604153104
Ni 4.928315000274208 4.694068507281995 6.989488760625988 1.2143410219363926 0.21612821728927295 -0.8130630380172319
Ni 8.074395671135733 6.846026401603477 9.03387171939491 -0.4647302388365351 1.0091181387057135 0.7445973890456661
Ni 4.3629973694176485 0.4599980954844409 10.312343285869694 0.914530081615483 -0.9131830806692853 0.19741958513617613
Ni 8.02411060124445 7.151419290706867 4.770896170913565 0.3109546156425548 -0.20135054475946612 -0.1840724744053088
Ni 7.155659983261709 6.122920794051351 6.952103139191864 0.1166380949117346 -0.20020820362490682 -0.37389290703798833
Ni 2.2065376783288166 5.294067980434208 2.507091135907307 -0.12402024630841865 -0.2550930285882445 0.6385674086670808
Ni 2.2734073675110116 5.285442537827968 11.293328018723908 -0.08181635924685908 -0.30368096479927703 0.30284304227901393
Ni 1.0563376078647997 3.3146729597987283 3.8386550927374943 -0.15090524362472077 0.26846147947535054 -0.23942009793767796
Ni 3.6354169758787775 2.419301597147243 2.7266176538296447 0.0716396758241734 0.6561205870594958 -0.33136146143368095
Ni 1.2039515238661584 3.405915376679349 8.170681901114492 -0.9266273790996493 -0.3695384867240345 -0.2014333342812595
Ni 3.531695578359067 2.9554835993255235 7.164144969808809 0.5693594822128517 -1.6954000798399382 -0.04257566857868151
Ni 3.8993393131613527 6.981044290249795 5.9606292198697295 1.6775514816942916 0.039108021745055226 0.27745545544384476
Ni 0.5430202314678827 7.4321513371187224 11.177483282509726 1.0043844806754705 -0.29500863383625964 0.8604034749744085
P 0.35145437326754686 5.489409945762995 7.886228669494747 -0.19194493517485006 0.21269476612769175 -0.2837556866302597
P 8.583701946612944 1.6704457120858833 8.088005503122782 -0.35108645066643407 -0.05586287260589089 -0.17521193869088533
P 1.9356195488697816 3.28713096717609 10.241829842384007 -1.311321747628516 -0.16984398951075264 1.25641686806052
P 3.8942162684401103 6.00106615915276 3.6289451928460372 0.31821155431528425 1.0133745999892225 0.14767928048825535
P 7.072367739472227 4.114318115989315 10.389326711669415 -0.7386874513191344 -0.908277415837552 0.10000819966453743
P 6.201585190763999 7.645095327807843 10.07601516205226 0.6167207451056347 0.05462231533057044 0.18165589454401618
P 2.355601172889261 8.554584325121734 5.784680094655326 0.3937405378915348 -0.24550718467202234 -1.3072835730034
P 7.052109654019159 4.035680730057271 1.4656859879198023 -0.26020386745224866 -0.05888134771724053 0.41993647956061225
Ni 5.452891370386264 2.631138145831596 0.5688263312570315 -0.30027013934551516 0.581938861539759 -0.826839265865718
Ni 1.594392357498297 1.1793447027358313 6.94023010039766 -1.3817969708309428 1.3407698776863037 0.3949224740147779
Ni 6.66182188147711 0.7466437021298848 8.949442321741994 0.3442234049980136 0.18249638816744054 1.0603867070727029
Ni 2.727710690084757 1.605781903319689 9.1296735560415 -0.7281734391616879 0.5621051146432836 0.48870397604331317
Ni 6.443871892782697 2.0306164642543707 2.6824064081368677 0.3938287267299669 -0.09026860377927035 -0.4391094529446373
Ni 4.122574411260632 6.77340341615261 10.378969878026453 -0.23031710719514525 0.6100037380967752 0.14965800148118097
Ni 8.234551592930925 7.024225524842202 0.5723404338136238 -1.1763565722728193 -0.14110265571200215 -0.9541780350244082
Ni 7.668387624282104 3.9361099891570555 8.257615198129406 0.45437177842034654 -0.6476534301287491 -0.8704048091614945
Ni 3.0498682703497533 8.359737557437354 12.360522159672845 0.5965671529758951 -0.513732893987483 0.0806274811450805
Ni 0.13734801865309695 4.886457293931401 10.051109421616578 0.03942966675053209 -0.8173156426459989 0.6375471949326826
Ni 8.640172485262564 2.3564925286491967 5.846443845943994 -0.2710860615823912 0.40336289147264726 0.37646221042706135
Ni 3.5790544803515734 2.7699645545430904 11.530842816169217 -0.6208846466753372 -1.3604434448558314 0.39818443259550135
Ni 1.410944139228844 3.3904562065802737 12.726716315916045 -1.1231293375175624 -0.17193403927056197 -0.3986621435628683
Ni 2.863034700911254 8.579722358270608 7.995774491672052 1.7610987075893285 -2.104864713334949 0.018441751644955335
Ni 5.612939249059039 7.726262723523137 3.591020256159186 -1.0523008447407747 0.37285906645683525 0.5522372207102682
Ni 3.2262216569138644 8.544212185369762 3.5860520732467402 -0.06664170838894974 -1.1639828811988149 -0.16374970368755667
Ni 3.599051461592136 4.294831162766457 9.317270630211741 -1.0130609254035456 1.1371886438241061 -0.3290708656272914
Ni 7.3734569108660315 6.334946418199932 11.511247395200302 -0.3903590230138116 -1.039112885295591 -0.9897487330401663
Ni 0.6717536118269815 -0.1515421838605469 0.4041758155693191 -0.7165859914344046 0.9123883526821318 -0.8421159895191304
Ni 4.817480763862087 0.45039576297968653 1.6328052889547287 -0.8083106109339111 -1.1049503526156905 0.138585031496471
Ni 5.98576905373731 5.708494387242779 0.25477288553261623 0.39087607185954615 -0.12514690371369416 0.4015299520289666
Ni 7.801523761879669 8.910235273335802 10.93303751876141 0.17811111461555132 -0.4608545579312127 -0.17238552498568374
Ni 0.10967997572097284 4.839422521306143 5.744093695719617 0.027497691199636513 -0.1334662222126669 0.8619193973983026
Ni 7.734771119413425 8.74952112874146 2.624806818857997 0.45104425670901027 -0.10665732954993888 0.17763726030292634
P 8.457120425108636 1.6385549837859863 3.553687755926918 -0.28118252658644477 0.17450539954216399 0.9892753929481737
P 1.8423873378179934 3.257536155227541 1.7723834977263702 -0.5915812697255295 -1.2275145832038732 -0.9761038885632223
P 4.603510363510011 1.0717157456220623 8.086726992840855 0.38057211883037684 0.8465457431557097 0.6332269702907739
P 8.387378589588874 1.3874987816644928 12.313741288385266 1.2494460931696418 1.1424306089493357 0.7431506292968104
P 6.1778427146130035 7.698126493727209 1.3817049692249155 0.2972298098572946 -1.1987593654480515 -0.23708785026007556
P 1.8366250379557871 3.2425181612116662 5.926525408279004 -0.9931747280025798 -0.5486628730954486 -0.046236148149404244
P 6.962929060057983 4.14300356499086 6.0464289644586255 -0.7718364272672772 -1.1974753565293053 -0.006004554322867078
P 2.34269902335404 8.362618707368457 10.262702873275495 -0.39087015832227523 1.2615426193228596 0.11660107102621207
