# total energy = -340891.09447819926 ev
CRYSTAL
PRIMVEC
9.05698997299253 0.00000000000000 0.00000000000000
0.00000000000000 9.05698997299253 0.00000000000000
0.00000000000000 0.00000000000000 13.25582032004939
PRIMCOORD
 96 1
Ni 6.126628165315339 2.1189553040652434 11.324500934687462 0.9886557570863038 -0.030103504253599773 1.254806843260923
Ni 4.8036826695019625 0.14408946786788557 5.915422777559076 0.19172073497918593 0.245516440643403 -0.525563568073824
Ni 2.685207385915247 1.8988523291749062 4.588144417652722 1.2382173143333577 -2.47190897288222 1.8834909313760206
Ni 3.401135287164383 4.213438620715719 5.204792309855054 -0.23523562754268518 1.3777153445624015 -1.9032434314125994
Ni 4.933559908409355 4.4315762287411395 2.5473183335115177 1.4921024386564303 2.7950958689249084 0.4026535241104485
Ni 7.384888637399526 6.081107732766626 2.797561160259318 -0.18052538048399877 -0.7385457835349475 -1.2474745712655677
Ni 5.075220291516085 4.685833113528254 11.37130655414001 -0.06261176129395024 -0.053282770583540494 0.20680668277803094
Ni 5.670527197802275 7.875052944907758 12.47773020897267 -0.566352834176044 1.383124688503431 0.04927184965193449
Ni 1.725954387003211 6.59118836163869 0.6800739942991572 0.6355836434484087 -0.6696538456592404 -1.9485956342951538
Ni 2.7537869154136274 1.4457945103559058 0.42417598289488717 0.6463167135951966 -0.5716305376352157 -0.2930206568719534
Ni 0.6169431500815781 8.858678304342792 4.562825601657909 0.38478024337445343 0.5214803991433857 0.47218052446699327
Ni 8.99781178719463 2.1183665997047845 1.5668774118170579 0.10705919297404787 0.8046570733417239 -0.33427837797015975
Ni 7.349982997319394 0.49053020991073276 4.977586843280535 -1.2814488713284835 -0.016124930586320616 -0.22613983588900408
Ni 0.5932437239275353 7.1054170920044495 2.5316098897764423 -0.37275905054386127 0.9444286689471284 0.5836059648295367
Ni 7.6614257179824685 3.6022004687364957 3.797129539474595 -0.2170687268256713 0.6315650092073188 0.28297047172480294
Ni 7.570421080845684 3.872814277754206 12.574961526845076 1.028911519282557 0.4875945450292183 -0.4364085090737065
Ni 8.124944360437315 8.580338882717829 7.210623089713534 -0.07390044683389208 0.5666359126341015 -0.3563664681184508
Ni 7.100327063534021 0.8483501543917422 0.4274446506439582 -1.3612834242586234 -0.1476797947088876 -0.5872631019661498
Ni 1.5278146132530706 6.642713578664084 9.409339683329812 1.187855059830722 0.7775710157582093 -1.587362582113021
Ni 0.1558880089504978 4.678460723537276 1.2485377931464539 -0.21276521435431098 0.07487798025581298 0.28006152560812414
Ni 6.468502372919057 1.85280659119686 6.962036786466163 -0.4321024254991848 -0.8428217573369032 -0.46070723372007105
Ni 3.437951952168466 4.773359866443249 0.4989486822652949 0.34244368738977154 -0.647089330095163 -0.16119968357219333
Ni 5.968610857978012 5.84392327443282 4.754610991111157 -0.6877412992885703 -0.959441854526509 0.8403205881816044
Ni 5.069641185576967 2.9133076831176643 9.378228016428084 -0.51604225884695 0.8107608722466165 -0.7070065752760857
P 0.18368662885136655 5.746696485055494 12.441250464002572 -0.2226451924721843 -0.8057294804702962 0.13929208486582462
P 4.114264578453798 6.3175676318875595 12.398844730370195 -0.060449977755941055 -0.5280246280198067 1.1478903465123262
P 2.596928902816896 8.350572099325806 1.5073322300041816 -0.663305020623077 1.0358090177333388 -0.21019616807555414
P 6.5385581918136655 7.69442939012881 6.028336273895091 -1.3834406770819527 0.019333410221289284 -0.7890098537227701
P 4.851956427059592 1.2924506099416064 12.941233454544243 0.23712024615990776 -0.698731736861803 -0.7103541515920799
P 3.958067726138814 6.267563989209198 8.174333939182768 -0.1652705112074573 1.1984536612821748 -0.1979716009849042
P 4.91742940893278 0.8131863900920248 3.6776551594660196 0.3085179811766042 2.2019670522066015 1.4615268798624184
P 0.23715728736332334 5.331940677626965 3.726542980956558 -1.254473371180904 0.14318679193454048 -0.6080874949106689
Ni 1.6713769642935914 0.8404597045635609 2.72462793559059 0.05943773444134279 0.2938030435639327 -0.9785837175622825
Ni 1.7829409690956313 6.5879369021709255 4.6462314240496925 0.21697976665629082 0.6618999127454342 0.3797647924377331
Ni 5.881636581462832 5.598659980875486 9.04061512269507 0.2846524874129162 -0.27667589696534284 1.3896735453655422
Ni 8.389743581771723 2.3606592004893416 10.379426653872324 0.2567377632805191 0.6014411932387449 -0.8434928152619989
Ni 2.310637443830658 5.089829216645626 7.295645584849039 -0.35941168270267776 0.2722404869018086 0.3618148928275317
Ni 0.42638588849414827 -0.0820047060138911 9.14764338682453 0.3817944212732522 0.47297473823351444 0.6482111024044319
Ni 1.2198588338019452 1.1341434789191307 11.471958697196188 1.1670072698474352 -0.1262915588410986 -0.9865662215471267
Ni 4.191529761516487 6.845870924963367 1.5997388892178732 0.3446890317805225 -0.7093041130610107 -0.17515871685544673
Ni 5.773487061951454 7.753245484233734 8.11916328361761 -1.1843953834168959 0.6146548637155415 -1.1091232530464576
Ni 5.335065339232478 2.8666370128185155 4.560280587422695 0.0822886708975873 -0.7731772575658877 0.2174222535103481
Ni 1.0555559752929495 7.2730438659024985 6.852026055476719 0.017522582264795628 0.5071614114175524 0.28436426674853604
Ni 4.7236098194893925 4.535097626280296 7.160436495833921 0.9756891696233067 0.1738446260297135 0.10499819667996112
Ni 7.992250397589881 7.069442727085331 9.140696675371116 0.37128709398402504 -0.090735773223676 0.08939365737348474
Ni 4.511640021763549 0.5282824619984372 10.541254236970344 -0.004041259948909169 -0.9864613205381462 0.3609900829333912
Ni 8.241489709827853 7.088389950501947 4.940245778546135 0.4351309279128635 -0.5665965747557339 -0.4586071566579327
Ni 7.292063545240401 5.850462421328994 6.991039986058432 -0.05013419765222979 -0.6139791778047554 -0.05109193357980878
Ni 2.1993179777629623 5.170173776363024 2.798171601396163 1.3984623473017657 -0.6990148153198606 -1.5986322414895693
Ni 2.181068142588737 5.61400252220806 11.52594922694338 0.44490934745586597 -0.5136868712408958 0.7003741575612324
Ni 1.1118361121528193 3.2722996021254946 3.8427831097786735 -1.0442070119890468 0.44567245087413565 -0.3890909549346654
Ni 3.7720824331846092 2.6482005241177853 2.6509384522434267 -1.730318746093994 -1.9081321269634686 -0.8564642878210024
Ni 0.6723275506145343 3.2818637837354117 8.242721460489737 1.4851992837786938 0.8837776309239747 0.4959262048233653
Ni 3.84317074895756 2.474596136713539 6.658875777606221 0.43096934033600615 -1.834504474174989 1.17519829029866
Ni 3.6902978120316283 6.95447329398279 6.061555502407262 1.1287716234050043 -1.5559444728130558 -0.24366447503632876
Ni 0.7104493279008037 7.673716053630818 11.430772034439467 -0.9370418895647539 -0.14283635057365723 -0.08919491109911735
P 0.18246665227669254 5.530533300885151 7.972779680141966 -0.3460666288543395 0.1444985687674286 1.091114732284179
P 8.454002926963351 1.590271617402678 8.079952856113998 -1.0373974452663812 -0.8829296811013827 0.38624088708037996
P 2.0305409661144793 3.280487121230954 10.310668701667774 -1.6454057501996824 -0.6402039158292394 -0.020645187054177346
P 3.8742724531701116 6.093660721129641 3.996735639931786 1.1443918464407645 -1.5242232304503749 -0.9204734436831116
P 6.821290253666668 4.034871002703297 10.308534874785865 0.8632460866295262 0.45427664760337894 0.8482131035558037
P 6.142188074411775 7.817613513307292 10.299004204039544 0.5525159282929517 0.30907771033481607 -0.07460904286514247
P 2.5167564259125568 8.669006816393098 5.597495251940793 -0.6918332099697568 1.221507971998477 0.8633324756957453
P 7.029102892908656 4.047713814751461 1.6398776582129764 -0.2811136210217223 0.6468036805339441 -0.11623340327414822
Ni 5.396815898149534 3.2800704996835526 0.31736055803421026 -0.41562988176545845 -0.1426849125974575 -0.4099359167044746
Ni 1.2119883093521178 1.1154679652073427 6.924045429838211 1.7894584896789438 -1.2701506727068448 0.19277308750310027
Ni 6.688523834897946 0.5923733471730723 9.22176941709745 0.967669898863256 1.077934486148479 0.2537257159270727
Ni 2.7404459689066125 1.4162777794215133 9.108419373835678 -0.5106863938516754 1.090547289816483 -0.08008369282646853
Ni 6.216781445376998 2.1265812897807264 2.27577256020625 0.6511915251889947 -0.39526725894870635 0.9636510075118502
Ni 3.9718343511833907 7.047932375453179 10.35278280021697 0.5389713568392975 0.41461635289927945 -1.144504460759229
Ni 8.229498254854814 7.440380816115397 0.10625479716971689 -1.0654381534536814 -0.3125849521571262 0.7757074801869092
Ni 7.330601038375056 3.6053794722829737 8.283178129839488 0.34456433327720015 0.6058588626904663 -0.3089848935106937
Ni 2.950296430934804 8.178136063652316 12.27257036214881 0.4878429135945986 0.6711677112006054 1.5034412607080172
Ni 0.1660725943864366 4.9578054710701 10.303961094754607 -0.9333742109051796 -1.3680158578864505 -0.14899928485125952
Ni 8.641609421156359 2.39513010504175 5.913580585760348 -0.4707509911093183 1.4237337202740448 -0.5592020820638757
Ni 3.739160273949716 2.7203394507494014 11.520103845493532 -0.9232101258879842 -0.1952914830495798 0.5454173695749575
Ni 1.2533244124464926 3.2811301675323783 12.463241741812267 0.00232402014748632 1.5057765937094134 0.30608546047571156
Ni 3.267073718802652 8.416851153323314 7.840022318363405 -0.38813836121340894 0.5948090326342079 1.148895904958705
Ni 5.990420090285474 7.983917966641847 3.5339623877671813 -0.1348366201976323 -0.2307660218071058 0.26230188763185797
Ni 3.467196973398031 8.158292198209772 3.593294730311277 -0.8370483451882359 1.002977830135931 0.49586989766413314
Ni 3.3508599347811936 4.73668811328174 9.535971802662552 0.5390806287236523 -0.4331840885991379 0.17385568177330704
Ni 7.262338503532307 6.278215009638423 11.31561874443666 0.3841860614338803 -1.1479291701700618 0.28548681038875345
Ni 0.8154796200007661 9.0312954798195 0.29514376116950786 -0.23061175561742864 0.29406683874828066 0.8530938286868728
Ni 4.815882435248702 0.18166692004548454 1.6581972322114409 -0.3781928199649228 -0.007333814657251886 -1.5915635075682462
Ni 6.154849746656723 5.6573221061476735 0.20736612962705528 -0.38727986986785556 0.6587130303770203 1.1878321770125866
Ni 7.7987025178513205 9.191577034697053 11.460862978550063 0.18549146624002247 -0.7044149032895094 -0.4635706713107951
Ni 0.419904706335004 4.950822531656041 5.827775566674941 -0.45049635462534027 -0.9891578935337029 0.33641393625592386
Ni 8.036548136466873 8.854847197504728 2.324712912239722 0.3612309952996037 0.15121300467312668 0.9498207864969771
P 8.647251926026604 1.6331111808637635 3.697220975310625 0.3983381845645462 -0.5937183706731903 -0.19286693276848718
P 2.0692595990523523 3.272281488145173 1.302849846044359 -0.76718735853104 0.4826981361688654 1.5193887851762091
P 4.832166903558012 1.1541231992140892 8.230698306051133 -1.1685314198014456 -1.4227389604609433 -0.8432333909530253
P 8.582213679681136 1.939246505292547 12.583856396882103 -0.4305253108200521 -1.3406490358377234 -0.19653718253122282
P 6.3624269041545265 7.63594840465984 1.3199603118563423 0.8260599644975322 -0.2699406351240383 0.7648394271241536
P 1.8350367765011626 3.1845917094072815 6.327387220620014 -0.6174064583187496 -0.5677317168014415 -1.0272989233797987
P 6.503199702225489 3.8508420196238475 6.1120998473982295 0.9500107910205962 0.8589723989548369 -0.7431958807124491
P 2.334982633383173 8.653537477198272 10.259527501025202 0.11274647316681227 -0.1394682054323727 -1.0086540545851015
