# total energy = -340893.06690188946 ev
CRYSTAL
PRIMVEC
9.07444565292449 0.00000000000000 0.00000000000000
0.00000000000000 9.07444565292449 0.00000000000000
0.00000000000000 0.00000000000000 13.28136847208127
PRIMCOORD
 96 1
Ni 6.206857269486502 2.0063054755528915 11.331438080229297 0.8952668625104969 0.22075003233200044 0.6190882168965468
Ni 4.75058116510464 0.2358421188181361 5.970533297606991 -0.46606464137724246 0.1843856347703534 0.42040904832165665
Ni 2.7604191282746835 1.4573287400714976 5.039389008002611 0.0754374523037088 0.43265624112012585 -0.7535653968722312
Ni 3.4732712768519085 4.4810701307757075 5.054795601742803 0.12487025301353981 0.8691791642845096 -0.0488887552809029
Ni 5.352607109565392 4.716279760735503 2.420369705960934 -2.7831302119226002 -0.23154480895465931 0.5566042394297124
Ni 7.164029791406224 5.984161300009522 2.6632862625690645 1.1101966886162946 0.43697826553424746 -0.47341825352883626
Ni 4.9647743790541385 4.411342090782997 11.246184571259032 1.2628266282416059 1.5201356906445627 0.44950133770192263
Ni 5.752626820517849 7.958061930323739 12.536283983140827 -0.49179649892570787 0.11572355351726522 0.15640817572082094
Ni 1.798219363492395 6.541876726604006 0.3495784976386254 0.2546052903185486 0.2712051036587587 -0.32577214027136153
Ni 2.9499207757457637 1.7874933687928396 0.5876474854070753 0.5974852939147903 -0.9996317964818332 0.2257289736038306
Ni 0.6802322389778237 8.817384705335419 4.728379626498945 -0.6617644156088345 1.3028368500859562 -0.7160617434998183
Ni 8.751667570298041 2.247259229577677 1.3805317069561525 -0.6224653608988957 1.1181203143387453 -0.017633911031679307
Ni 6.743029962225872 0.8638636275900695 4.538283602841044 0.05629456082667079 -0.1533958712570584 0.009187580036539016
Ni 0.5360837631724865 7.355228360204561 2.3326198170060257 0.4182254104067765 -0.08269104854232855 0.7505721185718622
Ni 7.511771621255349 3.300929406010997 3.660730266618361 0.9978243109594493 0.8803824891994967 0.5386540827091949
Ni 7.859277515518865 3.8495250147771776 12.659269036917143 -0.32198541953541965 -0.3861784092735608 -0.3994625279769765
Ni 7.876528036605038 9.006750236122494 6.614453235070651 -0.013145022022390266 -0.2378848922400742 -0.12438174341289547
Ni 6.451241163948202 1.062635728686417 0.5439249916157063 0.9220549292376186 -0.37297733720225446 -1.1787677528174731
Ni 1.7705332299658776 6.587993059144734 9.385849720188018 0.9387861259493703 0.010923074670406995 -0.6599083362367023
Ni 9.108747004669874 4.928794202248946 1.478614667116123 -0.1261699456615698 -0.9606567007702165 -0.11958509335520051
Ni 6.469961745221623 2.0477756919462657 6.815520263459315 -0.8753631816080344 -1.217767274009122 0.7191637794639099
Ni 3.057044606057314 4.3868410876621855 0.5798688706384975 1.0884107030894545 0.2049395476623051 -1.4016769975843213
Ni 6.116375972405904 5.55384201519766 4.906615349757251 -1.3678073414200702 1.20598185133842 -0.9042405267640168
Ni 5.53147350679292 3.063197080174318 9.112572790934962 0.20857534464267946 -1.3869252931964435 0.6451113804331857
P 9.263375557699 5.565058029959633 12.494022475091105 0.4936852313079885 0.0543009274354097 -0.29448258612946054
P 4.1126930116314995 6.0520018553173704 12.626025712905001 0.03350224552250359 -0.3176420549650594 0.9296422546665732
P 2.397595569837859 8.379043610612891 1.6131015806908202 0.5727733929904072 -0.10941920856579221 -0.27047876701569545
P 6.2591714483722365 7.742144571710184 5.854135383891933 -0.20319711104990165 -0.7716790757538065 -0.5338381493777903
P 4.629446390786225 1.029078428856505 12.554837594615202 0.25879824535397367 0.529522809831888 1.006921388164711
P 4.0660412868003535 6.112873236404188 8.380437445457098 -0.22862352154280627 0.32968535928283865 -0.10119913464884507
P 4.639410132055355 1.0831349012974962 3.755718840828629 -0.42978380466833727 -0.2775325885386833 1.397896961716599
P 0.029555469320179502 5.676582966387329 3.6630279162443573 0.4144836839761571 -0.4282671109134947 -0.2781182858388242
Ni 1.5262763777425827 1.0896594276841127 2.628515709362392 0.1369436392383061 0.2367510357459471 0.4387386998687799
Ni 1.7563861692750087 6.708029825545513 4.670167057973014 0.8954105871772127 -0.7964012610908349 0.035723678653854604
Ni 6.13829075853063 5.568842073774958 9.28811249640542 -0.2790307703507646 0.2333633502206368 -0.1269029671728524
Ni 8.585450950237332 2.1464149156215346 10.160340040505286 0.6421232443391394 1.0433490348641257 -0.12498389577326864
Ni 2.4960442301555217 5.120410195544896 7.176188641066068 -0.7365315813183961 0.08128362667184065 0.5132443843868386
Ni 0.6520424737204894 9.1668234565118 9.188594866396041 -0.13506827659246415 -1.1206384527749087 0.5631659518076301
Ni 1.434615402733945 0.8888129083235363 11.574221242487102 0.2016091977374915 0.791918542729133 -0.9996513368658589
Ni 4.087411606189062 6.78522613426727 1.5600033697052205 0.6968288634121353 0.435011885836496 -0.6492027768937401
Ni 5.791991765531954 7.677570816818443 8.024828978717071 -0.9877018778134665 0.7286622058726483 -0.2256456698614049
Ni 5.282389049510265 3.068650821980099 4.810351815940141 -0.30699254567101325 -0.9469846025997625 0.2693611084714845
Ni 0.6961805771203523 7.643251263558106 6.870956959076112 -0.11647174453719941 -1.2195292510055513 1.2626425372552579
Ni 5.200410507957148 4.502513045729218 7.3058815250301254 -0.18499292933704914 0.414431490581983 -1.6400941081787819
Ni 8.371720533013448 7.015163511333291 9.30988027651142 -0.18293270437391076 0.7389237356996564 -1.1850445869651203
Ni 4.731234447084798 0.2835510165617172 10.442382884208234 -0.6166492684377509 -0.40648266804855154 -0.6804964448006989
Ni 7.889958216093483 7.387714875453638 4.47296574341008 0.36547151574351244 0.2523121234089977 0.48408421788311473
Ni 7.342750997504147 6.062836743364129 6.9979665294761615 0.6985463603238744 -0.10108240656532269 -0.1369302695018674
Ni 2.364700704536769 5.415529315357877 2.49025654875165 -1.4664235458330872 -0.449062193281975 1.6493385095951851
Ni 2.290871015132722 5.212089319444735 11.480109259721823 -0.11200008191909099 -0.0450243872294902 0.2892686460286889
Ni 0.9755936464883322 3.3689333013396503 3.916330175842032 0.05756211468518473 0.023750565452378452 -0.7876705660860563
Ni 3.5880630136957126 2.9803110940611712 3.1350803009971004 -1.2477635632608963 0.1139129826710877 -1.0614179765506946
Ni 0.9019427236626114 3.300330492601377 8.1801408374999 0.6965085039582392 0.886303739779938 -0.08498678655504073
Ni 3.648898097000129 2.6144022241202443 7.201994549464202 0.18099820635535924 0.579675262316563 -0.6755799813356882
Ni 3.9689356444315353 6.858075783546485 6.201004252074308 0.44264471979140546 0.32223635920396115 -0.5639010302014417
Ni 0.6025014454102076 7.522561137074107 11.466549315661295 1.0412451011472454 -0.46548177229057897 -0.28769898754872386
P 0.3036255051187025 5.598588106452744 7.779827114509993 -0.049573182942437205 0.14457210231784134 1.877564795699573
P 8.65777428167173 1.4937535647111049 7.8705652184010795 -0.7951005400015404 0.38176588202816186 1.5190897658785516
P 1.7896893846281126 3.3626265616474416 10.335640180611895 -0.5896573132299393 -0.5846297781083608 0.4205165204337984
P 3.956948301793538 6.122337883165302 3.7513358836036836 0.5905736543966216 0.7974988650303879 0.4304124393912716
P 7.0648642498861385 3.845632077614649 10.48056724384974 -0.08695753712816637 1.270142959397361 -0.48335993812258043
P 6.2976652466087115 7.691118964099693 10.151614053616036 1.165153247357832 0.08579102762389096 0.8711326884664546
P 2.3933578037425187 8.523554156797681 5.953399836869062 1.646526751178003 0.22834198574664544 0.5407135363413849
P 6.971361162420639 3.813753550220792 1.443790574680409 1.0574142547079404 0.4780200139669058 -0.8144684030051909
Ni 5.116671523957573 3.207988934172717 0.23602179284102207 0.5986451185508465 -0.12069992368593406 -0.2108901088187852
Ni 1.6701335638441501 1.1815744871695586 7.2434320978534155 -0.37301076154335117 -0.6384640503199973 -1.1905776009682076
Ni 6.983575366198644 0.56877989811493 9.199366233323598 -0.43076853717910973 0.01654530595319086 -0.7107665565391501
Ni 2.6600103877073558 1.6142985000654997 9.383339728534976 0.7809926398452485 -0.28723336076621503 0.3308984057543333
Ni 5.7964110205393 2.3184664042032366 2.4777855381631566 0.1756603390822136 -0.9025055463507813 -0.6798043038296808
Ni 4.242421285933399 6.859582141516134 10.631854586008831 -0.37022008617209146 -0.04970276654176601 -1.1022272972575728
Ni 8.179088201810265 7.212323990891025 0.3241237702852219 0.7986057249413214 0.3558463339489226 -0.8036427731445966
Ni 7.5785050941999605 3.75422518708282 8.06852424917164 0.9428011606460344 0.5550384376044892 0.27516768785093254
Ni 3.2567187070463315 8.366856630171688 12.605572819966484 -0.18511814206100377 -0.11750609933898472 0.3019806942787186
Ni 0.1193316819776348 4.834238479093812 10.196173211291754 -0.28579482854747557 -0.8530349504244792 -0.06909145548102294
Ni 8.751785538090845 2.4062707398317467 5.903010347895153 0.1574075635196128 0.4173298951757006 -0.7020952540173974
Ni 3.5574367597946974 2.7302919688816853 11.579599666394401 -1.1908377966081298 -0.9597750694962114 0.14312277146582447
Ni 1.2067742226015938 2.9993765042674028 12.898519517502752 -0.5531093389025764 0.6511311042647043 -1.0434783613531384
Ni 3.2194499589658965 8.455278028101018 8.187618180674548 0.4403602946326029 -0.11104131755024749 -0.009901832494744238
Ni 5.5907840832364855 7.863841961655817 3.5821446602751967 0.011386387460070714 -0.6346613887444553 0.3031590308575359
Ni 3.181455255237437 8.413980226174049 3.78530970048665 0.11834967828620263 -0.2173178667219999 -0.40501611080535405
Ni 3.5041062430017305 4.1087819255777704 9.263342889694838 -0.6270090144055201 0.8612007740647233 0.02402233105652637
Ni 7.403214028538951 6.106466677810376 11.284527733698543 -0.24629034269495004 -0.20557101059871694 1.3574069720223525
Ni 0.8232010368551219 9.068402019530938 0.33669096999707837 -0.5441865824916499 0.2541885144961042 0.19394576765496277
Ni 4.522549421614682 0.2037285632832318 1.803703050968657 -0.27624780828898876 -0.3592373619083426 -1.1444862059267837
Ni 6.248672314812689 5.7690061948263915 0.17007235199627638 -0.8273645422415685 -1.000174813469497 0.8312636201856587
Ni 7.757743543697101 8.838382972454514 11.522290912650261 -0.023912287841223335 0.03424349456390232 -0.3282128885023702
Ni 0.5183359624674183 5.024239221072909 5.705689250650293 -1.188204472750341 -0.6100235355911171 0.12442648060790182
Ni 8.120639697698728 0.11095052402119704 2.068878315189765 -0.0237986450814945 -0.09030639899574125 1.19393726146906
P 8.690288020257606 1.4089800939130952 3.7814176707686804 0.3661014360180275 0.3667503824559361 -0.4585019985386362
P 1.7444532733106133 3.2600853263640435 1.8481424259624497 -0.25772532400476905 -0.33854358100441695 -0.4181799018808217
P 4.85862151442182 1.1737704639533 8.249363430872673 0.038794861380010606 -1.325036269001131 -0.00808020590497318
P 8.42123070820869 1.635033608262187 12.28890461418647 0.2577698040894593 -0.07755424153639547 1.7777846528854413
P 6.58184058502773 7.828841824975457 1.540890772381867 -2.1135848668167667 -0.017947842727672317 -0.29244910063919954
P 1.8949166558091999 3.2976989033772894 5.914631990375458 -0.14505778370500824 -1.0318070956627972 1.4142054690686354
P 6.934065191003403 3.896875471919547 5.835488305627876 1.278424996900495 0.21517433801643587 1.02585833427853
P 2.5731770177580784 8.4607862165804 10.39911229780776 -1.0575780339793142 0.3344799524580046 -0.18014922809150263
