# total energy = -340869.6147426772 ev
CRYSTAL
PRIMVEC
9.27718784260373 0.00000000000000 0.00000000000000

0.00000000000000 9.27718784260373 0.00000000000000

0.00000000000000 0.00000000000000 13.57810216016916

PRIMCOORD
 96 1
Ni 7.32586112945909 1.6120783481884031 5.354293614239755 -0.3924251615142209 -1.0073499910616974 0.33599484644063426
Ni 3.0220067769035697 0.38333896110994964 9.600044012657925 -0.5807080744564516 0.10729804845773133 -0.7706370076425374
Ni 6.16396759046565 5.9529208480105495 9.523124066474885 -0.8562560284649383 -0.6735580658096529 0.026378232883212636
Ni 3.1225993228810047 5.437229816631073 13.154464879446822 1.038083158479496 1.0985470201925083 0.2802646427578657
Ni 6.261804811703133 0.517338659910841 3.613322659066432 -0.5968633440600754 0.470100502009513 -0.08625948261987725
Ni 2.840359442195632 3.7293737828693945 9.128680311716039 0.08152762436184668 -0.18533051518212595 0.5267961549293444
Ni 7.010919162213683 5.1738133497415335 2.8976488592549745 -0.6973842216949732 -0.9616126369255826 0.4589863943742224
Ni 2.394080329012519 1.3311651053407854 7.306729713032394 0.013837677214040684 -0.2196647696876217 -0.26026917347254525
Ni 8.356111375321495 6.530824699949342 9.826920420445619 2.1860938326197705 -2.4859839629180476 0.2791143312035064
Ni 6.225345464134073 8.06100403532867 2.016660213640244 -0.6154881582501142 -0.971792919892694 1.1178835157375906
Ni 0.5750214297276717 1.1933895911555155 3.9655394386776726 -0.6066569331117294 -0.17844972890189267 -0.9166404430902665
Ni 7.356030543783411 2.553017108288127 7.847898684928132 1.990396886601656 -0.11502498478834385 -2.433932493638447
Ni 1.782667275185827 4.3599535064359545 11.750964614072775 0.44875263246135616 0.8844929118234445 -2.116109175900517
Ni 5.709005029617234 3.08079631521022 2.1152785740800972 -0.06783110071136061 -0.2382890696570283 0.48193169031648614
Ni 4.01879420681646 1.8579052672430985 11.030198565945629 -0.28124526150358015 1.4144926612917512 0.41058152070827353
Ni 7.415348881787627 8.127771955037202 10.89990232046524 -0.8184968074382937 2.212260463712809 1.32666609129507
Ni 6.171138856539667 0.5541570346429857 12.329758148309754 0.4780727215817121 0.013810423520531055 -0.16846176445124536
Ni 7.625876101732839 7.9130421690744885 0.13967640994020636 0.3223237767114449 -0.5023886726192575 -0.6224077681880829
Ni 6.600978793159834 6.450808956238619 5.353221171344339 -0.17767865506382305 -0.466041758559107 -0.5958801542111996
Ni 2.004345674718318 3.766547473889553 1.7088041623422285 0.016391296873829838 0.4120856160576258 -0.39606764336281464
Ni 8.445330089207411 4.020631089976428 9.668898371874924 -0.6722208350554681 1.1097966249643985 0.22693764919995107
Ni 4.960465864742635 7.977657781242046 9.463420725182091 -0.05275620865610914 0.8989443113620841 -0.08524621086401449
Ni 7.45234630624193 5.455181174785306 7.497013181748484 -1.0359884807339965 0.9118563914380619 2.5710666516210043
Ni 7.840726491135348 3.746128383813344 0.9060630284670601 -1.131380007562129 1.0101496652940216 -0.4030307049442091
P 0.9637049786581138 7.657956616718541 4.97076632621997 0.4576591909223667 -1.747383414885765 -3.5409176172959795
P -0.06791272466782369 8.139136509941043 12.169387115819344 1.1616974275987477 -1.4149616305083694 -0.6267842999892238
P 1.800618633340059 0.6758969299292428 1.0196584806920252 -0.7298490270918979 -0.05414486147351965 -0.10310200809851276
P 6.760268105567152 8.628025746122805 5.869867753054505 0.2821772863995463 0.6236982048647323 -0.1447518224288152
P 4.688588602692031 3.1617305005009273 8.06983220712173 -0.26246823800639313 0.2627114643654508 -0.6720573128944103
P 0.5266798601824152 4.410736831777693 0.07583358750610955 0.6378500708850822 -0.6258458473353544 0.9356493800926016
P 4.292146541707644 8.764706552162236 3.356791720870469 0.9795314261875324 0.08416223377121634 -3.3065391955472663
P 4.345750132103071 5.884102669825489 5.631273329512492 0.12311573221627829 -0.754156750599327 1.2132076796628979
Ni 5.774288599297509 4.339506584796715 6.479334452906646 -0.684539247411505 -0.9019049366523048 -0.8269739916713693
Ni 2.4927061112025135 7.187092956192423 9.110240973490018 2.706949196584648 0.4878999920847791 -0.3730282450448479
Ni 3.2391950176005837 1.4642649169370459 2.4166303890980445 0.030006316554103157 -0.40463250221369024 0.4324222707324489
Ni 5.820952853310835 3.1849791328185004 11.930861343466136 -1.3631688142067944 1.1653679344717993 -0.7166129880175981
Ni 4.696075293147051 1.6612288884990596 5.5965404665700484 0.266185024736348 0.6779772779232711 -0.07995153812397843
Ni 4.190663385713255 4.863166720390395 1.6116256214297846 -0.5193543539393184 -0.07978698752165612 1.5997542709091546
Ni 9.284516654870126 3.845904537275237 2.83518926550346 -0.7597406724450076 -0.4752627629367428 0.4515399653985062
Ni 4.094041476061408 1.2305632821756742 0.2081633925252119 0.5796374671000921 -0.17682813413806966 -0.7477811860902862
Ni 0.13814196309849577 2.277864998987681 6.1881244594567635 -0.01629976560128806 -0.43692324392659593 1.7890975067950996
Ni 1.794616292913295 5.381501750257704 7.364870775920449 -0.8336228644464545 -0.46429572240227784 0.4149847919822917
Ni 0.7673783498894831 2.8117949813393635 8.840226570724877 0.37376846564498206 -2.271685342638346 -0.9292452763384708
Ni 7.770266250731527 3.8670750795532514 4.916427054841788 -0.5925546893823924 0.7226887618980328 0.0894939303967749
Ni 0.8919143895414691 8.84526964994588 10.087823697193565 -0.9649702405439059 0.6945637215270425 1.289409778046773
Ni 5.609869002105027 7.129565115409791 7.408755584505864 -0.011650696865050903 1.3495872188676177 -1.706583093039951
Ni 8.879502472472554 5.94215003311801 5.875461897223499 1.5636318141549843 2.0770266080767583 -1.7490528321683878
Ni 2.1235853679257297 0.19941500454617284 12.308535653780751 -1.5351789581309303 -0.21365430182748368 -0.7569227433802383
Ni 8.916564837240593 5.768239872932362 12.215322182881287 -0.9592014563809287 0.528950996488818 -0.6605886501331784
Ni 4.307630167939898 4.687466062983162 10.804448408741875 0.4129183963715663 -1.160862076181646 0.04395840785882107
Ni 8.60251348001214 9.148448143217351 2.0637493628491588 0.41761914428134533 -0.5999797782018699 0.035508220208938845
Ni 9.305019239635422 2.9820035436420467 11.939441814348228 -4.253416583145203 0.9862561465058756 0.8748512749686225
Ni 8.20741661124086 1.279917920615216 10.21894746781471 -0.1996595302102884 0.048221554010549214 -0.6970975436924897
Ni 7.963816217228551 7.990590180863235 4.010468858595473 0.5989693346594845 -0.5155591485629443 0.677687257486678
Ni 5.7583225593060705 5.015507419227936 0.032572205932562284 0.8644128532441178 -1.9414754783106047 0.9720795978951775
Ni 0.6557153358575549 6.208665080691536 3.3777154899562847 -2.3853180750648533 -0.21000590644161896 -1.7690724698234241
P 5.94816165073245 0.689485226719167 10.050443124888218 0.15872422544850728 -0.0205719106140807 0.19546451829233435
P 8.074984757157315 6.6844363734985786 2.042336685972786 1.0613056193425463 1.8907740953009955 -0.6580054627870345
P 1.2351554900755939 5.59728913561555 9.821950631007262 -1.2066297693350638 -1.2895280487921918 -1.0133828275193386
P 5.196523905173864 8.283406055499936 13.739138295233232 0.3166231267822418 0.5528203469072479 -1.10040644199875
P 8.11022879314074 1.95085341057501 2.841285305525757 -1.914209700616116 -0.07719557264539607 1.5995241571762193
P 0.10054801547658689 0.5214122730196386 8.21009400760433 -0.07423700423770441 0.3388554558178809 -0.3847401341651374
P 4.076303493223738 3.394402367430196 13.356126818848267 0.14250622092774812 0.5703724968583983 0.22311750412291254
P 7.119285991464113 4.849640580757905 11.113852822663116 -0.3473503806627696 0.033096782553968807 0.6620811755183049
Ni -0.061028123693014656 1.9300632329917369 1.1052600191028328 2.364606553549115 0.7982938501278575 -0.24143609992644227
Ni 6.085473305533891 6.558359392973507 12.179027969252871 -0.6344590429256621 1.7206794232320173 -1.5435013619536966
Ni 0.4626292287443624 7.480465462089722 8.310490804921788 -1.3757219682814565 -0.11892483406338229 -1.9377797746265724
Ni 3.0342526646366896 8.247744546071067 0.6609959110830788 0.816531970402439 -1.1544343182784311 -0.16769017639254347
Ni 0.9118696202338478 4.088512272206151 5.01876556753996 1.677608560184472 0.5099672562974636 -0.3806315113134025
Ni 0.9879277156817311 6.571996858858118 0.536522028588526 -1.7642269688056649 0.7515211127486928 -0.42882375474791307
Ni 1.9827669361825333 2.3679650457028742 13.145653406591581 0.7224627619301557 0.9812432666723163 1.2902952659755198
Ni 4.180940893028172 5.572788082961634 8.07846834112988 -0.6503736572733896 -1.4630865110400544 0.06225823460927342
Ni 2.8647306142220748 0.3936709650253853 4.586248234556324 -0.7145476208481372 -2.333611647829497 0.8649496995841943
Ni 3.6006806354195215 3.493677552757552 3.6899577955878002 -1.3930056950625687 0.16213762200543042 0.3451173775671927
Ni 2.58894765615962 6.027166180986424 4.355623842947282 1.6550291322220594 0.012505588666178463 1.0205963145486423
Ni 1.8832690983509384 6.913026277850141 11.388334191294545 -0.39310650385196166 0.7710830940410204 2.13643451772143
Ni 4.926168101902224 6.331838301473829 3.4880240345874287 -0.4043635648230197 0.1508291389711467 -0.6453417512764369
Ni 7.406442781618086 8.128133765356589 8.546994150361495 0.3120277941020755 1.0893563548321754 -1.0805112457367196
Ni 1.7208626508842804 8.388358879685377 2.713325983621104 0.09713139233737465 -0.06133340880215889 0.2589777083546314
Ni 2.0998821534120022 7.657882399217128 6.660330529039687 1.5897408525372105 0.12437223033119871 0.23700686051049505
Ni 6.202375147446798 2.9733200959767436 9.567565506320898 -1.6179671943727556 0.12219810549801537 2.2069804462607925
Ni 0.001049249926224094 -0.18182360127379327 5.9027813594935665 -1.8150584496352353 1.5150011976314746 2.3820430038580076
Ni 3.3077441573430226 3.6861606426717657 6.395191288398601 -0.3291292296690525 0.010959841445613384 -0.41858587906998884
Ni 4.207816905727299 8.847190027794937 11.528908633001846 0.4752290814853299 -1.6167068396030928 0.9854341648252125
Ni 5.942929316882846 0.5987385600229139 7.557326961990399 -0.8896759986862806 -0.10502467904252237 0.10025116891327895
Ni 6.703324727608147 1.0735747123121542 1.1095729836536867 -0.18784196875007003 0.04205502018852112 0.1277869124397025
Ni 4.548141258455899 8.019154641719505 5.201051172760049 0.4602899436769944 0.18447690893257906 2.945638329893572
Ni 8.810350315531137 0.838083508047965 12.784719781439401 -0.14463946522066704 -1.313481988504628 -1.0274773579391916
P 9.091180063689665 4.292489797651678 7.1583346021137135 1.1887402906491529 -2.3160618118711915 0.3497484485813009
P 4.002392139004221 6.679602958719066 11.016946103349598 0.2124875352128921 1.2934875476605723 0.11378288485112663
P 2.559251378406806 6.281973417712074 1.7952963107699902 1.255922959143237 -0.13552773272738594 1.861089423752369
P 3.6958274722307887 8.740038510130143 7.69832258801822 0.5618204935233293 0.2594636468521144 -0.24532000836188073
P 1.5886905580556805 2.2455339999347106 10.993008175987653 2.8046248914612666 -1.9940385971193013 -2.8119435366098666
P 5.549910538151125 3.397185523733177 4.313382952018162 2.219612018981874 -0.5364550181753471 0.7149057755185042
P 7.265253262367826 2.327052648049044 12.953604489060632 2.0213390847064674 -0.9296669372569215 1.4625779468347522
P 2.0915512388784108 2.126498404856184 5.117409904105307 0.3649441824851328 3.7819891347941508 1.3392740098670675
