# total energy = -381168.4343435934 ev
CRYSTAL
PRIMVEC
9.21303373624621 0.00000000000000 0.00000000000000
0.00000000000000 9.21303373624621 0.00000000000000
0.00000000000000 0.00000000000000 13.48420614071501
PRIMCOORD
 96 1
Ni 7.813435885701847 7.40071960446614 6.042367385691255 0.8790282891644473 -0.503191885246843 0.32089218647124096
Ni 5.588442124962742 7.799293878609927 6.593979366547687 -1.265578737065446 2.7781839236609183 0.916195642243364
Ni 7.964575707423655 4.61959947624191 0.8256149805433515 0.2557890262140047 -0.5654632324822391 1.1964011496285203
Ni 1.511453495421688 2.1667489601950485 6.7907135719158855 1.397981036789973 -0.6076357520852309 -2.7191197705089105
Ni 6.701551672089046 0.9030707994509758 1.4539613997502103 1.2589566037632383 -1.9433238443732532 -1.5798490473447953
Ni 0.3551956251590286 8.487028435872313 10.498843646970666 -0.9516737805453159 0.4630266258818671 -0.5940736971300801
Ni 8.101886765207368 0.3501431973484685 3.4269980297081024 -0.7635145376651431 1.1893036193517905 0.4380213620867811
Ni 3.035657829810946 8.851597401757935 0.25882821149076096 0.8846052690315925 -0.6949979808509837 -0.08348680497074654
Ni 4.836981011964315 8.93019379426685 1.9766361623167288 -0.8020119224093929 -0.10003699601994384 1.145369894083318
Ni 0.7062288015857248 5.337654128188019 2.276498305655509 0.2117704545412095 -0.60514666711479 2.327198545214302
Ni 6.326765451568282 6.903501375968473 2.0438277401161384 -0.24384316670603806 -0.06731430897594214 -1.8611609004202527
Ni 1.8112087675668094 4.68578591203889 7.859418138076949 -1.651920668500065 -0.3743765315426262 0.6233943004710683
Ni 1.116868464972235 4.111574358937193 0.4800921197138398 1.192223621212063 -1.3031626088564912 -0.8160249488590333
Ni 1.7706806312818824 6.4526247081694175 6.291406748624905 -0.8598990245341643 0.7030375633260086 -0.810893541169739
Ni 1.563341302549833 8.113209583914841 1.9106174037373855 -0.39885909006502274 1.6849901973605237 0.9862944559429788
Ni 3.9870970574264746 6.097968966799044 2.584531488792221 2.928176682773699 2.5057503469116975 -1.9722125023831456
Ni 0.7781227119061224 8.199895020219657 12.699722291382017 -0.5215621602239147 -0.9426024143716669 1.4253440021839583
Ni 6.189049020291381 2.6889160845916877 9.710435503978276 -1.3057787063230994 0.7320110677402232 -0.6273111190269712
Ni 2.589986526185789 3.405063638513023 9.81847122512662 -0.749004002753794 -0.8221326044186681 -1.7113182937320914
Ni 5.789221773532284 2.772174272272271 0.35143302209952315 0.11487611791530539 0.015724095603476144 -1.3960565660737505
Ni 6.107006953090363 0.6890400441711332 8.392084435947174 -0.12946430014212543 -1.2714717055111135 -0.18011940329483173
Ni 1.8343795479161142 4.313625406189917 5.086445095762418 -1.904034559855327 -0.9387280190179252 0.6180824013398517
Ni 3.66468693483247 6.176307394357747 7.49754214201085 0.24084706019219163 0.645801721631991 0.69920944782917
Ni 1.370125554841833 0.5393088953381565 4.061078641236794 -0.5150580405568097 -1.8717718431668797 0.17036592345249368
P 5.892720996770491 1.839437503547036 11.721456551551338 0.9631686685587929 -0.7361343458799774 -0.12382689935068997
Ni 3.956270245876266 1.219418745715023 6.748737146696202 -0.2253556494248119 -0.6181379371681354 -0.7656542097159653
P 4.913808501957496 4.468708406436377 8.627950081655586 -0.13377064082696316 -0.20517608915314342 -0.4246313139331203
Ni 7.301145133684713 4.036018267627194 5.453322847952428 -0.7487052405664525 0.13552284763137948 1.0114172191525355
P 3.371795372969747 0.5658940260641819 3.4572563970644534 1.4823859826996146 -1.0239598317042364 -0.4496062387109031
P 8.829007042546605 9.077805023991129 1.2161647021287905 -0.386500825609986 0.12056494076996656 -0.6452635897403338
P 3.525118683734411 8.472527120456883 7.504661974636672 -0.5297755492726424 -0.6398462753795046 0.4636138658439048
Ni 3.992164226091332 1.9973673312797526 8.999534772883552 0.689801781362025 0.29360789683399113 -1.593039063672508
Ni 5.315828450793386 0.657455921231377 4.616493762502049 -0.15882552691306195 0.9062922670867231 -0.029246298459627052
Ni 1.9655086599287008 0.5423676226049435 9.030898704312236 0.5524876461581775 -0.7077113146525941 -0.07243774624543653
Ni 3.857856617370789 5.337497506611106 10.308648853090315 -0.23853666689146016 0.3774158325895823 -1.0317849841756102
Ni 8.572184508543733 4.0213971827705945 10.115217520388212 -0.6266737425532884 0.8788843073874153 -0.011161415933458197
Ni 4.486977852731675 0.30665491325987065 10.299600732461666 0.4951821275684891 0.025272401413543574 0.11292696460873455
Ni 2.2491779748213827 6.44897634673072 3.730945232294152 -3.3173627685253324 0.7206318793690041 0.9667191049142125
Ni 9.21478441255314 5.43251152559416 12.093080858825228 -0.5008598946795568 0.699159311317525 0.6043020597263077
Ni 7.0462573368084245 4.331968556756704 8.170094540649929 0.4167722229000177 0.7340707784827293 0.4308626395548128
Ni 8.560751133429028 0.45106645629814013 5.918474190532086 -0.748540175743498 1.1634542623888544 -1.238331471313719
Ni 2.0750792725308007 6.425897696720775 0.6198335758498975 1.0657705970924356 -0.9671675053055407 -1.6040351576726954
Ni 6.1791450088100675 7.843322967790574 4.124535255078506 0.6939445998858049 -1.4873937203268512 0.3103606908122977
Ni 4.982252131068822 2.2614681620921466 2.3622440124988406 -3.3239273091167276 -2.0183056971967823 0.23796125400396434
Ni 4.346276398459475 7.331833749725881 11.591320604597062 1.4116539062913753 0.5303861862734478 0.741006329260298
Ni 6.524053360276041 5.599672813330854 11.23914040544532 -1.1159338482103878 -0.23978622302784508 0.3643482007723467
Ni 5.044596731714447 3.242591785049807 4.485899006457757 0.9130822934253631 0.5467152624507745 1.3273376634407978
Ni 5.637612087079736 5.659327208067135 6.475250998213098 1.4231886464038523 -2.5278129831386917 0.040538069323362444
Ni 3.531844198507768 3.729095255079782 6.973964502118593 1.6004476974317534 -0.9572355909038094 -0.543856967066373
Ni 7.903880239852594 6.733511686813395 10.03664508176753 1.0453578377640385 0.6553934790854842 -0.8613403849663811
Ni 3.9582141960367845 5.310475678076509 12.7136247595916 -2.2553385258492065 0.2682959004317637 1.2046726456086931
Ni 5.833600958002504 4.311709095131208 2.3139170429870006 -0.22514764717906385 1.7087924419864444 -0.11836947578054453
Ni 3.6938646133081154 5.34728174865125 5.104944867906117 2.5524899170600817 1.0327689453554343 0.1670671980965639
Ni 8.914209180387706 7.585118478697287 3.22286023026885 -1.620097867562513 -2.0284191314817 -1.7399171884157068
Ni 5.945631450665544 5.067601677452902 -0.011994448881415466 0.7811990994290997 1.3288204186339114 0.7086821632062956
Ni 8.863519067671255 5.607430187905055 7.746204691856513 -1.1591687476396229 -0.6576215970850545 -1.4434039450094625
P 7.082252660396788 7.677875304365994 8.320550755253679 2.0437236230492544 1.9592456578098323 -2.0791081731961354
Ni 2.626414862369149 8.975181038976851 11.307195244524545 -1.1647529265956198 0.16915699074605706 1.0459453348363923
P 4.7065060253611914 7.345542744222804 0.47207125236906655 0.42605313398131145 -1.2254600146676895 -0.27765523015947663
Ni 5.25105160918863 0.12179262342173738 12.88181330061217 0.3300175458112768 -0.2393856451553168 0.16609840642539137
P 0.28607668066018593 3.130598144522511 2.468189296247084 0.2719088145940027 0.8814055311473724 -0.21078932157486277
P 2.146784315655508 6.69196090376156 11.555290271479743 -0.7442945130932667 -0.552016877169346 0.21450379431197253
P 1.8642942691066482 1.7644894724768196 11.15425703857841 0.26564097930742 0.2641047451685516 -1.070578302893724
Ni 4.965963487069788 3.768563892462057 11.303324848967986 0.36212882452352474 -0.8630740798280362 1.2152514495658038
Ni 3.2914669300808455 4.149605763025435 3.0093509327097907 -1.082653231780387 -1.5329739800598114 -1.2662536516452838
Ni 9.553731931062455 2.469599811742701 4.485791213960704 -1.6843998720746927 1.258028178411698 0.6013326926853385
Ni 7.6672803153394735 5.511891025987643 3.266238879253608 -0.09067509518906965 -0.3718378242811725 -1.0351708699287074
Ni 8.739585335162767 6.7882094692920525 0.9996814372151567 -0.052948784282889454 1.1238906411636191 -0.8689243679612261
Ni 8.056319099359392 1.873276977194351 10.174008653844679 1.6758926059346297 -2.967534615746031 0.8827666731609571
Ni 0.6559108954402922 7.407675445087898 8.378923616969447 0.8427083716874907 1.3409038321610067 0.44417272640015765
Ni 6.57910123804427 8.870253795478549 10.674070945918421 0.868608379382704 -1.2547826748912065 -1.0752965343049996
Ni 0.17964587002351048 2.6925644460303855 12.108493343296939 1.525384854858644 0.35247330371163166 -2.2409133515628117
Ni 5.73938847297189 2.70835558619687 7.333088564947977 -0.07622909496706871 -0.2742498040223535 -1.947404699310846
Ni 2.4013496563440335 1.8834758057616194 1.9652285836970431 -0.36828121727816576 0.2466454120415236 -0.49393797074874285
Ni 0.64049288314822 2.413842530361392 8.68030959612126 -1.7449596359356205 1.1886731848566432 2.2007838305317775
Ni 3.112890693297316 7.30465529961437 9.566437626163738 -1.824339103606213 2.003550393264478 -1.3732580801219962
Ni 0.7756738874859056 5.685750189395885 9.797436026043705 2.5903992905113458 0.17502373393947923 1.5625010429846509
Ni 6.932199976679442 7.437995539771621 13.070281571932895 -0.6673575934258958 -0.544834500488294 -0.3579147864421771
Ni 1.4343772535122312 1.2042448788222575 13.284869715765872 0.013267149422551344 -0.11385076197458457 0.26811206655573183
Ni 8.518435668560496 0.19989151209810185 8.237609495940497 0.1504100491558571 -0.0410566608309938 0.7924728725707061
Ni 8.725609162681696 2.2436040892900384 0.7032686537820542 -1.5175375909000832 -0.9574196818901575 1.2533248593987576
Ni 2.0792527769038567 4.310041535988773 11.641589681662634 -0.7458397460931994 0.7674601525764525 2.3379372717880447
Ni -0.23585827528126327 5.386068621522253 5.014277558334118 2.2306299673589325 1.5553433488939472 0.9119718339700035
Ni 3.779048325081345 2.0249880070201964 12.513370253956415 -1.4209762121335656 -0.03762526655194165 0.10530312951488961
Ni 7.714782718314033 0.3824302747775494 12.428716291634512 1.4169475505901468 1.4740160134683646 1.376732411823842
Ni 7.490141311849977 3.6456067415507962 12.234652023500997 -2.163838106545364 -0.34186904583322414 -0.39356570287656734
Ni 5.448173683285538 6.90701154189813 9.170001697196522 -0.827097147512795 -0.8593490655679652 0.9437259864531489
Ni 3.8025507746523495 7.918289424928662 4.813295223017981 -0.5561391268678357 0.546896011003013 0.22287530620511936
P 0.6903869897325917 7.765915056659416 4.858979894396946 1.4489557280656271 0.2392126099125622 3.5005564398701132
Ni 1.3354937602760133 -0.41780371857522564 6.766428935763705 1.3023200583505377 1.0247694720897254 -0.8627352084313786
P 9.146119670627348 3.658283876246877 6.700154054840939 0.5563473862238999 0.6981740645861202 0.038332834141927535
Ni 2.8651982759251258 2.3814310769741738 4.407151520192291 0.1700339940343717 -0.7436404244490354 1.4665420736888226
P 6.963551931164008 2.046039789564197 5.129877180344005 0.10564971422103095 -2.4643558431253108 0.8753634387183505
P 5.8085967838999135 5.420064716746482 4.3272441129542685 -0.5800802110644655 0.6479640193906324 -0.5291931944066113
P 3.429911191038699 3.5609573857458607 0.7303540522508101 0.31637218711370035 -0.1270549193696844 0.21608399431489883
Ni 7.085901021835486 2.3851899948201045 3.0281888231989456 2.3245361678907903 2.177621019262069 0.9289555130121937
