# total energy = -340852.63393286994 ev
CRYSTAL
PRIMVEC
9.40735576943343 0.00000000000000 0.00000000000000

0.00000000000000 9.40735576943343 0.00000000000000

0.00000000000000 0.00000000000000 13.76861607865803

PRIMCOORD
 96 1
Ni 1.8145754422338112 9.482332369955854 3.4113677767717694 0.47476396892345335 -2.598500836572557 2.780988225878933
Ni 3.9751157993336363 7.548020103803872 5.926452557176749 -0.8962965893265918 -0.7659766260523905 2.34672864482743
Ni 9.119829323690707 8.29940442184222 4.297502117761208 1.0969853321323428 -0.2657183695125746 -2.7625246198571065
Ni 8.241784367906112 7.838763840448668 11.971921334821626 -1.0864715770852127 1.3712114820056127 2.543025429213072
Ni 3.1925178749344707 7.357060189542799 0.5307329075759452 -2.975777572481114 1.2015744662993435 -1.064006306103161
Ni 6.549617438621958 1.092880738925644 5.923244648867817 -0.016624753040874594 0.5320913418900126 1.8195265127089177
Ni 4.878551208273099 6.404565420394878 4.315910431482379 0.9011426045649836 0.14007807110222972 0.8243884903323802
Ni 1.3802001980793805 0.7733900045962823 13.71581366893228 1.603994020022115 2.81954757420937 -2.3702706938134277
Ni 6.65399205060908 0.22902772001745808 0.9332783635682821 1.334170112981599 -0.3163130517409907 -1.6668124980102326
Ni 2.541886336921547 6.77890292018682 4.340886960984481 -0.2591764546289988 -0.5244163418432581 -1.1555146958268034
Ni 0.6599335313732543 0.44767912664854426 7.659866978458987 0.7816588126743377 0.4616431152707791 0.37339925523102147
Ni 8.51644152622752 9.283460869513512 6.059953283284947 0.16697078172801566 0.5998746200825733 0.9320786320222076
Ni 8.937505362003243 1.6937473650492592 4.019912686654185 0.8468596748517028 0.4067608614106027 2.9211051206388983
Ni 3.4072783992295608 2.1574829664828075 3.831695957328258 0.12743312864470957 1.0394496998097194 -1.4036109813822406
Ni 5.667564949290131 0.5277855830211398 12.521633582612445 -0.22329671001325416 -0.9474322316601425 -0.31589164793285596
Ni 7.077680538637565 2.883279276895651 12.40192968443938 0.19719101406513784 -0.5433833698640642 0.4498597494826059
Ni 5.600462280763394 4.37926520948044 13.738517381286467 1.2629765235559087 -2.3803463328818744 -0.673786122660059
Ni 4.730328911160066 -0.3185039027117457 7.609528217869253 -0.9872514205396093 1.2062857557320839 0.16969178020360454
Ni 1.0700114571103492 7.886534392920107 13.206319748421077 0.6156460239842171 -1.9655438321137184 -1.971586438763372
Ni 2.378809825087678 5.435833555231655 13.199751532640148 0.49287276270902214 0.04891163809903835 -0.37726568016496315
Ni 0.9734543577470478 5.807405292434663 9.68911263437274 0.27199880320464764 -3.042891592520792 -0.9724225830568932
Ni 2.7839846370106507 7.114021153879228 7.9093810970816145 -0.07622009610600422 -0.0070502219785620514 -0.6121176991159846
Ni 5.734883986998995 6.757764591828544 12.314608726946197 0.2100131055304706 0.6315410979479188 -0.10355992157153779
Ni 3.7187089111568885 0.17950457717078744 5.139824521576566 -1.6056847774609766 1.750921252835694 1.9550789280266523
P 7.610127466430189 4.5014197238249904 0.9729012052292613 0.650050469606016 0.3708782885813806 0.01999289818215912
P 8.83528503448165 0.07801331971940623 9.393541983495352 -1.687303418874733 2.3684372401491145 0.6675311428892826
P 7.607032446390192 6.833766618889739 4.270886826888385 -0.36646293312250433 -1.0425766754744754 -0.43749917103472397
P 9.108427608528167 3.4769586832303374 5.451201411576149 -0.30889799022384223 0.16257290977063615 -1.5404360927648115
P 4.840874748515693 8.6877965111167 3.867714841003453 1.357259904921527 -3.580664301066298 -1.8298011551620488
P 5.390800543281916 7.081584591271603 7.661477517762475 -0.8819531761207263 -0.9807005067949691 0.5965473554815532
P 3.769311077707473 4.552285296336426 4.6436034392855206 -1.2781306055885278 -0.19822768285976827 0.6019243035227505
P 2.9854713823500103 4.734675109514105 8.479553402881518 -1.2432258232915427 -0.2230128602242482 -2.0759410883220633
Ni 3.71037399396711 5.1308000452107025 2.401949098012845 -1.7600779796342978 -1.4253530010450226 -0.022512579280219294
Ni 5.741694912558137 5.613707837651891 2.580059505062272 4.717518187258804 -0.30029430771523125 -2.667388146462574
Ni 6.84804698491015 3.000833594281058 9.97320066682818 0.5737516977432764 2.053212022155664 -0.634422790371088
Ni 2.639798095512081 8.940120606900262 9.301498533418345 1.7953344888437466 0.8839455239604067 -0.3001829789483475
Ni 6.851254893219083 3.5521610850532364 2.8111521396656856 0.1218317232975321 -1.525624738783592 0.01781774490771125
Ni 2.6081799728542423 1.1906043504012847 10.94355718232851 2.7341213861240656 -0.2201123987480016 0.37728239233551153
Ni 0.5122747348693265 1.2190521941731691 11.192108928458456 -3.149787263333782 -0.5953998721406714 0.03209559498296408
Ni 4.623273202785712 3.5683323295783254 9.094928053034565 1.4092769214187664 0.23755553392511347 0.6101410350055879
Ni 3.1584914692059964 7.941068834171965 11.513909168623135 0.09909854336607449 0.4574612159789477 0.49233051705230696
Ni 1.0912626737375606 1.7365884631104902 2.4084890917265405 0.43264569959716453 2.8950449332167367 -2.6783839833524454
Ni 8.859668900571837 6.5209814477351795 1.8449536754045022 -0.764641966401367 -0.4616485145874178 0.6049422644134678
Ni 4.998589067575099 1.743822719678142 1.1111742829067308 1.3209003924558864 2.6350758074831133 -1.540966768457301
Ni 3.0360735489005948 2.1449147392079273 8.398167546127647 -1.5269961652098218 -1.220258415862092 0.5036405427484875
Ni 8.93186094855644 4.961956824305351 6.991524211785571 -0.3666452243366395 -1.9108821789047803 -0.008526292303456284
Ni 4.780253748097034 4.79537136877872 6.78838177183515 -0.7529033378082001 0.33955428165711843 -0.3842516245644931
Ni 9.73708356352154 8.91441971100582 1.2045291183745463 -2.7585229548968813 -1.3520436508279103 3.919706418973688
Ni 4.804995093705518 0.9823443089257619 9.568513155932783 -0.9620049872679948 1.3450001137175676 1.5511773904417157
Ni 7.056786801528651 8.24484175852313 2.687330641883179 0.39355413291234154 -0.7822668785719817 0.8148710377602483
Ni 1.3807928614912945 7.890118595458826 6.07004549452783 0.8660745572172567 0.9673629091457985 -0.21577031972922192
Ni 6.2006703919848825 8.2352744777308 5.765415560068325 -0.9481955921887282 3.1634912431834357 -4.310625171145711
Ni 7.7680675620274675 5.4796247962230975 11.292977418959541 -0.4040360062802719 -0.12591257823512508 -0.9256040800414576
Ni 0.25457151307096276 2.486552270431393 8.893190131296823 0.3044044732288628 0.21403508220567008 1.4611134464740836
Ni 3.368181428754709 0.5175080468700869 1.6829797056639086 -1.775962512075038 -1.4390505531367732 -0.22277734717467437
Ni 3.322010126759865 6.243360972354199 9.885439445086147 1.6764194249723774 -0.08275044102535425 1.8914204706357425
P 1.444828732045269 7.457502526828649 2.528454514389306 -0.2973583650153589 0.58552375067754 0.03291114890572397
P 0.4622445355480181 6.870276566534807 11.331653880632606 1.5156244330377704 -0.5205010659492519 1.2293974020488827
P 8.478144180990967 4.840790082313991 9.056101073669584 -0.12058525248494072 -1.6580198394192671 2.008125928450303
P 5.1004142861554165 8.518925068144114 10.329022609043463 -1.9557522999445929 -0.9341684246717007 1.5174856546162252
P 6.024423582108475 1.9095426984762631 8.179590457606944 0.8223681174682417 0.7341265714213292 -1.2665529280532573
P 2.267191549177159 2.9863650811457543 12.107459694184119 -1.0872771037056437 -0.341178961744735 2.8401354256630507
P 5.550377518778767 2.429600138753156 4.775025139774146 -0.802927749355443 2.6987370930875008 -0.3798005307716749
P 7.789111816828296 7.547051146162171 0.3565406641941733 -0.28424702444438144 1.1475381053792302 -0.11013834612000385
Ni 3.7397719806692065 2.273447440747365 6.190700476366681 0.9857473251902571 0.6611828320737516 0.004060543222618814
Ni 1.4247252128189074 3.738962948075165 4.346518204133241 2.8999971350156892 -0.44323813040103016 0.20115462669857614
Ni 0.6994999288997653 7.941134685662177 9.314661305576287 -0.01603494197567561 -0.6404854516254002 -0.6116587572016949
Ni 7.106805712023066 8.199996893688285 10.141976154772172 0.36170922048760284 -3.6827890328532056 -1.6457744463930108
Ni 7.063889355115877 8.559555437605347 7.723821945753556 1.6181024343990391 0.24861333440117184 2.40965716603085
Ni 6.7513111457877 6.306700698583067 6.196882049826503 2.0733316757236744 -3.601175790756088 1.3138967074445438
Ni 6.363549349348113 5.3906688403014895 8.836890870107265 0.20923483260354933 0.5186832960142228 -0.47216278385518035
Ni -0.22447550057261187 3.519536375330718 11.181410883505619 0.377521247819195 0.18884392765202315 -0.0415179167381285
Ni 7.105648607266471 0.866753306684268 10.54981607057761 0.775203029746665 1.6981169645504692 1.0713416634223096
Ni 3.839452322139739 4.399509839042972 11.710992330738414 0.12689371120147178 2.1159222567006912 -0.523944287302846
Ni 8.7399602987209 2.6301179264508145 0.7513805550960504 -1.7125974175548313 -1.2375321153408754 0.574174901323624
Ni 1.6719787438560907 3.236168005589743 6.728364723655298 -1.8497629429959563 -4.010294610875906 1.1295272706241062
Ni 4.715945064226464 7.8214354911669846 1.950530547455794 1.6754876571867274 0.3234722884935913 0.9994844722706916
Ni 2.0967302630837232 3.575011552157042 10.181492693313237 -0.5578386260574457 0.18012480261147043 -1.8638194210890224
Ni 9.513282570355821 5.212869816727212 13.414680448603068 -2.2370775227564894 0.932162964205898 -0.6350110587743903
Ni 0.3990788454004258 5.86320972671205 4.148965614966302 -1.0810560624965964 0.8869835394557821 0.8371910414136872
Ni 4.492040590147554 2.4701646567241764 12.383630496044846 0.23117225610658895 -1.617528307063124 0.7339270538160134
Ni 7.024764162573792 4.217477505383592 5.239550018354673 -0.16268449564783596 -1.0200599824291978 -0.4659584548166814
Ni 1.3300213625373063 3.48302642768565 0.40768845737794857 2.5847240945034393 -0.9651311916018024 -0.09435100137876008
Ni 9.384448833432554 4.051691675095258 2.765646878457564 -1.9230931191486753 -0.650766264726118 -1.991494747651525
Ni 8.388087564447233 2.4349247021046394 7.051472586268487 -1.6048131734893007 -1.040689999974724 0.1092330606969151
Ni 2.014096050222535 5.232550004945063 6.497560894873247 1.1848049601504884 3.4864847922683957 -0.9828360650807332
Ni 1.6072749510442448 5.4723058734537435 1.7610475880466343 -0.4871093778626837 0.1218584627704095 -0.3173540914109954
Ni 5.851666901213339 0.9921091441887301 3.272235807514811 -1.0339004878567162 0.5693599964334839 0.16103976095556138
P 7.7599019772410935 1.1092213158541373 2.545004875350905 1.0092158406258425 -0.1478723703356679 -2.489413814535203
P 4.757629057531101 6.0563897769288655 0.45677698038921544 -0.566662652106979 1.685598006147852 1.1445759374271127
P 3.5395364136438876 -0.1113915586370728 13.185102398274546 -0.08184361294036874 0.8672994307632934 0.7344430742204835
P 1.7598998906457843 0.7905527844168598 5.861217248765329 0.1874748152186384 0.4741301919941963 -0.850313180617942
P 5.477799769208631 5.241007217759522 10.788261494431058 1.084970567059654 -0.26346891135676564 -0.7052867643715015
P 9.199424960646368 6.91704993929731 6.913745135224207 -0.578107917829443 2.8482976497588686 0.4930157160447896
P 8.290269879414145 1.0540471744116429 12.992809461704454 -0.1399132633895913 0.03675237702868509 -0.7063897676276931
P 3.20196286010212 2.876082649750978 1.5823031252200161 -0.9173099583534654 0.28592235526427534 0.5750544757150999
