# total energy = -381172.7900567473 ev
CRYSTAL
PRIMVEC
9.21560425182391 0.00000000000000 0.00000000000000
0.00000000000000 9.21560425182391 0.00000000000000
0.00000000000000 0.00000000000000 13.48796835009473
PRIMCOORD
 96 1
Ni 1.369171524140865 6.775109427646262 -0.22178549415048224 -2.010154014623925 1.0619375964995905 0.8551483972230562
Ni 0.9458988255402636 1.1236125359651274 11.595633450018536 1.3240916456996743 -1.8516308494426303 -0.40036987028259435
Ni 6.190342481924456 0.13087632389388848 2.9015993189163773 0.7309188631173089 -0.07521119522551563 -1.9276791958574606
Ni 5.538172607450967 3.551481880439885 1.232130882631171 -0.21251067514134367 0.395682492109254 0.5250182370933152
Ni 8.633334632809046 0.2222822152141568 7.002966161810637 0.8111797049515901 -0.011223636629961316 0.7607724561436316
Ni 4.904489234901988 2.7280031404256473 7.790636750340387 0.4741078233966931 -1.447563989924423 -0.28863666887164485
Ni 1.0595917339364234 1.0969333619514383 2.0501438478241583 0.7770997325487455 -1.2262454866834622 1.6024289895278405
Ni 1.1993279396599357 5.535306554560377 11.184358546460569 2.3200138545404045 -0.8933079390119132 -0.4950216907312249
Ni 3.2812803667675654 5.868515153804922 12.690370733501076 1.9479515729532517 -0.6607470300879137 -0.9277977452586667
Ni 2.271038193053354 3.2460122496862565 11.71821204393594 -0.6851126034164716 1.01007407486108 1.0704327784547951
Ni 6.044302802962476 4.2611479092040145 8.94178090370306 0.8987550781694135 1.2534688411757897 0.22074977522168432
Ni 4.486994720103317 4.103210885284635 10.873284906823443 0.02218090697241341 0.5239486581782203 0.38326303539897866
Ni 5.607160620116417 4.657593984124531 6.580078675463497 -0.031462589384655494 -0.3041784732609858 0.3652334315907774
Ni 3.220558751024492 3.8884412305734006 0.5609722558070063 -0.07297304992361626 0.6665911475735166 -1.450602776750747
Ni 5.063928402297787 7.3097895648138715 2.7270917171752314 -0.48734669068447034 -0.8369020494183587 -0.5844135483324967
Ni 7.3311513352331215 6.839784537569602 0.9004622108400588 -0.6198286946069971 0.27878394444728116 -0.6779459104647033
Ni 8.946490077423611 4.205752912659529 10.036761479135155 -0.6377935066155338 -0.03413473690017992 -0.010196223806711473
Ni 0.768608111345876 0.5888669680080547 4.754171672493669 1.4100834764804617 -1.1594824222253 -0.39846982504640405
Ni 7.347297073703582 5.46900949830667 5.135084846619686 0.09597362458384762 -0.48218417264692437 -0.8242655916012709
Ni 6.407250156798446 0.12446594964728326 7.401738255218563 -1.172183414731736 0.1790526525932142 1.1926396257035587
Ni 4.372094567563532 5.883508941756657 8.316101283358188 -0.29909668786270427 -0.6622680947181304 -0.6658573547312856
Ni 4.625532897287354 4.89066582867728 3.0733956899166506 -0.23295145949419882 -0.49608175656462306 -2.087843239076288
Ni 9.198444694879313 6.319646623750387 2.0808834170262522 0.40771268380091075 -2.3780503377588467 -0.5247307877598834
Ni 1.539162558288191 2.642933898518786 4.309959278143879 1.1550832647163398 0.5153483181037188 -0.33207725655378295
P 8.264157530567807 -0.020091860167407594 2.2987541225338965 0.5719856069817891 -0.35762219490242275 -0.11578217466934253
Ni 8.768334017999557 7.114907183857918 6.0781231486318505 0.995928122378001 0.049093415092541254 -0.3966057752544718
P 3.5349583021992816 6.240401643666203 10.28982289064925 -0.4660181044100232 0.3161672701917458 0.6041246536081789
Ni 4.846661318861956 9.01836257418795 4.667848186862019 -0.8634026668120486 0.46273300590084826 0.009826499172118561
P 6.465188660088277 7.438605279619862 5.458998587518736 -0.9042952912613522 0.8382397943931756 0.04489300385794849
P 5.477957849936133 5.721922538593954 1.0972043007134427 -1.5061982546278643 1.5649474476426146 2.569073018229743
P 5.51896728840277 0.9295872061951066 9.474286158291315 0.40634280003657763 -0.20046428549977088 -0.9653196534635248
Ni 5.18322439801703 9.46451761789252 11.528153110191994 1.0098650441740673 0.23613808475229653 0.5353494438159943
Ni 5.61315076281379 2.238829656549781 3.23182482709763 0.2647644902397376 1.2090566336090016 0.8334362023569453
Ni 6.9203381334430585 6.933488800564833 7.553788351207046 -1.2692728980875816 0.7044897223915029 0.3813560481842529
Ni 0.7692301646259879 4.535468797931298 5.962046163442135 -0.06520317617021029 1.2923657753513034 -1.4123283066505805
Ni 7.981376717231001 4.078909337141596 0.8551896338937207 0.9895181050865991 -0.7393831918345782 0.24461012677904967
Ni 5.169732753541713 7.1101150697000195 11.62569751543645 0.5981332119114343 -0.8023500224751021 -1.1399415239788948
Ni 6.286258489915639 1.7195211471040492 5.735340458236071 -0.7903668819712969 0.9343244906335909 -0.14555426372545255
Ni 4.13390806270764 8.12134331305826 13.411100095047049 0.17215078326705835 0.0314114244317459 0.6734613923307885
Ni 2.9732948760810403 4.216608894348001 7.01894970564806 0.4628695314787125 -1.0883842207268932 -0.6746806094498704
Ni 3.2195818969846126 2.6610702074856043 2.349900725565321 0.22154013233346365 -0.5529267905781252 3.3362320946260087
Ni -0.23796440879588207 4.232155618548724 3.4974710676387004 0.9911042186267962 0.6809137348437756 0.8116756707514021
Ni 7.776384818522711 9.19285082316038 10.074756493484392 -0.30959784450434424 0.005594720478958107 -2.3651323441455974
Ni 1.1120838151737198 3.365898044071086 1.6905141114821192 -0.9534959213557193 0.8891502080897976 -0.22112232806975465
Ni 4.5435324515623785 5.958044748120289 4.9781928722108955 0.38961237465577414 1.2597433613305917 1.2399882901908514
Ni 5.977720062980126 5.076231233837779 12.758916397167335 0.2083082070242219 -0.444467374822441 -1.6299189674179928
Ni 7.466666794256024 6.7871634378742085 9.942183576866523 -0.7855609759422213 -1.0225279843537165 0.09560852793494502
Ni 3.0993827720586893 8.700009528832894 1.9523156019718901 0.7731651733810297 0.8934989719767966 0.8303161686707249
Ni 0.4074660943628535 7.57142978223102 11.046079327753139 2.4224010959600797 1.7266366692567168 -2.1389225742506066
Ni 2.315660148346716 4.43500028149011 9.379722079428909 0.6462604064359644 -0.47855968852045966 0.12495638496944286
Ni 7.537424202918236 7.503483132834499 3.481109684031134 0.42272406960807846 -1.5510897158239159 0.14370229811837834
Ni 3.596315794628692 0.5251032813351303 8.325286476014302 0.6468936691445891 -0.6099350896423689 -0.16545357375254086
Ni 2.5835854077940335 7.599436003242282 8.424450062907876 -0.2943987681664027 -0.8425541054978135 0.35350045942456537
Ni 4.769139656753786 1.305003272445764 1.4194334291739081 0.17939178110018783 -1.7589749763781062 -2.3420865180697277
Ni 9.012888505322964 2.896353797034308 12.21475801113165 -0.388478261051331 1.674470785886439 0.27733641336747716
Ni 1.1592861396290275 7.98481413757888 2.8437760106784182 -2.3154627448346123 1.720362663322547 -0.06801262059454738
P 8.87619344896889 7.807054349133267 8.686386101218234 0.7336444895785882 0.5768087394020452 -1.1313710087010644
Ni 6.5687812663362495 2.718971848358837 12.922889641804838 1.5743810822516886 -1.0225956043668583 0.3290616096559107
P 6.99162083154181 4.839924712228447 10.79726723131252 -0.7322221553097648 0.34109051579598676 0.7060745503801195
Ni 0.6167036219029597 5.839227963816837 8.401331798337672 0.2724608304427308 1.3134678474372412 -0.3525455517104638
P 8.720892087836354 2.0680092180289726 9.995285731098537 0.5017502677043101 -0.6475994369623621 -0.008662560771004435
P 4.557125467683343 2.585704996748489 12.689062117711803 -2.5019834236700977 -0.21294159203117521 -0.29994103814087053
P 0.6545751471565884 6.118562141201616 4.334817448777566 0.22166354528520532 0.7118479625287869 -0.10831774797149733
Ni 1.476183119528415 1.5627360737033955 6.898879599180235 -0.7688140955011856 1.0306197602229152 -1.4237907987642253
Ni 8.455593275571731 1.58154512177315 0.7274401644878614 -0.9939537722604496 1.1990874382114316 -0.8670456628812746
Ni 7.790751945392259 4.876114389724735 7.464606185168126 0.7308340167129864 -0.7959474613828679 -0.10621509980619773
Ni 2.7160689330516483 7.308066246837857 4.205440503678851 1.060081002906826 -0.09166368435458407 0.9509451299094075
Ni 2.59089338188483 6.365494254395673 6.451929248837536 -0.22455140835596168 -0.2435441474083806 -0.6844199482248212
Ni 6.406872317028303 9.034840074407803 0.19534776896551806 0.18796178215738596 0.006609020676085392 0.47268394646597306
Ni 4.460518289380923 8.059783077337553 6.700175507183357 -0.3746431549404516 -1.2387942698827503 0.4222543290605115
Ni 3.5281203239201258 1.796397716921733 5.994956928981923 0.3815558228998848 -1.4354522942625534 -0.6178921397059165
Ni 0.42219723759631883 3.5711387640914216 7.882044484781486 0.7527853241730971 -2.271237970688282 1.0707883620220011
Ni 2.575088620767912 1.3340969347467024 0.39672715084708426 0.3716095103204503 0.2528214589452485 -1.9306904718799587
Ni 1.5211368365711702 8.422195926132835 6.481076361642543 0.7586183859151063 0.2779251959914117 0.18070741458781783
Ni 8.647609603637095 2.517389723185975 5.352160245489203 -0.1265170445883434 -0.16583126880693377 1.786655215902194
Ni 3.6378044445111195 1.74993264079841 10.639296109657788 -0.11432333073562892 0.2707929558220046 -0.9895229901826055
Ni 4.517406213797677 3.4126580195272034 4.861967515794368 -0.19963021963424976 1.000233177511258 0.5281593538254581
Ni 7.755400887873603 0.8712791571788675 12.039077262982234 0.1131650487614696 0.22484502833698053 1.2832710121388866
Ni 9.05692066195074 8.60645271550406 0.2981275589274772 1.2046973281990412 0.004948088033894704 0.9158140905342291
Ni 2.5988925262868614 8.700341290582287 10.42079044902422 0.605244626145235 -0.10158017213734763 1.7445258908323116
Ni 2.604956393817434 6.340529182753849 1.8039213361496347 0.8084515073871497 -0.6925927138436008 0.052048126845491004
Ni 8.315857069848219 2.0867076788489296 2.9727078420966975 -0.9682764220990032 -0.07955533112682428 0.7276054824733598
Ni 7.845170087896865 0.2088689033741138 4.770411410126458 -1.8665882420834112 -0.34615970278877806 0.08993204637545803
Ni 8.543417983119385 5.349492328087834 12.467144840421978 -1.7185860310380983 0.8136114543215343 -0.3298907904254254
Ni 6.62774270168671 2.610771440035962 10.653242083417688 0.08011865982946201 -0.7666870218558538 -1.4033986082611185
Ni 7.0278473714546985 5.0868660410266555 2.621143602506569 -1.1154697640897757 0.632059175234918 1.0834536161944954
Ni 1.0960670951613565 0.8512711590092231 8.963550925386148 -0.6909407800624745 -0.6919239699113503 1.4648307474246707
Ni 7.8982427521956 7.671188697152672 12.14034477230321 -3.7751669696659946 -0.2750633010625843 1.1130205312183348
P 2.8904742415867313 2.4684272183380545 8.367854273142672 -1.9363103891698974 1.28318976527899 0.6252856039565102
Ni 7.461662721202678 2.3482465246204307 7.927054417009553 0.21498510482376523 -0.03431599967305058 0.4816758655519382
P 2.8335771015658278 0.8203712382949226 3.822746874831092 0.17143498814695635 -0.31255152781602946 -0.023140699782521437
Ni 5.090616791915626 7.892658096080817 9.165087894098676 0.4505025252729274 0.8662853876764823 0.8301032813289705
P 2.1908255745334406 8.650051738736794 12.73140136785726 -0.5680615893370345 1.2093080874981754 -0.9423103370525449
P 6.938409933180829 3.4268408343137553 4.456694735219169 -0.43769328932340107 0.4897745833996726 -0.323655608148991
P 1.109420505574426 4.648516614036971 13.428351706015487 0.8716055143378151 -1.1848101023568112 -0.17442672378542864
Ni 2.438034155851993 4.753049211908223 3.9498033308048854 -0.32876490435109834 0.6997478368311433 0.14997707538349656
