# total energy = -340865.84231029847 ev
CRYSTAL
PRIMVEC
9.32025186287980 0.00000000000000 0.00000000000000
0.00000000000000 9.32025186287980 0.00000000000000
0.00000000000000 0.00000000000000 13.64113070682346
PRIMCOORD
 96 1
Ni 0.6756418141136782 1.5720934367145616 3.727698000589054 -0.5402692497151147 0.4199493350764187 -0.44103572343307273
Ni 5.324566530076549 6.918823525068907 13.447125712498146 -0.08280649107427031 0.6464709797848738 -1.6720300376554302
Ni 4.992793534275582 6.9395051633441085 4.1244098493339 0.20910807721769795 -0.5024328955936316 1.264440509695945
Ni 5.83841996091327 0.2894786261168593 4.15366984717129 -0.37498948253627673 -0.5354247771386198 0.27466863672732694
Ni 3.2362336781185737 6.8007172969376075 5.651369967730453 -0.8315790945435486 1.9474581782566007 2.487678319901335
Ni 1.690674997676882 4.710986407241336 11.530111201066516 -1.213272214352246 -0.7903306294167227 -1.312231918147611
Ni 5.432746690265943 8.224208642322827 2.3555230284257513 0.9498994622537125 -0.02051277524137112 -0.5125185619644077
Ni 4.6015946143454185 8.9277757942464 6.232236939514684 0.09332821654120056 -2.0729714641707786 -0.48875128434148085
Ni 1.8589521401098532 5.384672832571716 8.776893969378476 0.010625598034646215 -0.5345200059361632 0.15270038785193057
Ni 3.5558344253447722 6.48853546997597 10.506057878015822 -0.7818853268628471 0.34871203689698654 0.5741556180499143
Ni 0.7925205651107532 6.90890677737859 10.898963336011866 0.6537181482655904 -0.3805235249806285 1.6127931063709837
Ni 5.709502240939144 8.124966603406943 11.11778047470942 -0.21218568770175716 2.0108507835806337 0.5214999395274116
Ni -0.12141305339495037 1.1095945921312702 7.84418190797197 0.4241646587093469 1.1785533228138219 0.29952554787000674
Ni 8.50589460608642 5.110676076368753 1.9303564515807743 0.3638452929939992 0.8883094573560573 -1.152796782675008
Ni 2.9607456816614284 1.188266835791016 6.104118897126863 -0.07396035353755004 1.3152802180556316 1.0648804811779982
Ni 7.588828451021773 4.049873001304036 10.762442154791724 1.252263765124095 -0.6238144187276224 0.06446886910734703
Ni 7.6633252219698065 7.5919134542976145 12.611334015336793 1.1106643722813323 0.7247250756017711 -0.4140249991721837
Ni 0.9958036404855131 8.729571323962293 0.07142854412505148 0.48160130356026093 -0.4567112251868005 0.7851832808878284
Ni 2.1792705467083775 9.101570525619849 7.8297355180095725 -0.5607012923172215 -0.1229403829806786 0.3125075619519715
Ni 7.285920274390837 6.4082881037977435 3.4234458436790343 -0.08280057753699933 0.40002200002487237 0.7099137216205516
Ni 1.313065004562962 5.012850715694344 6.170933916715535 0.40278182215819663 -0.9206511069115564 0.9430832106628274
Ni 5.03721385334706 4.888490598747064 0.6697551432102905 0.7557814306869435 -2.230165369017688 2.9027844679528396
Ni 6.866993605984457 2.8579805876450375 13.421317003824031 0.6770925613254727 0.16594285468413356 -1.388599338464757
Ni 7.6245902563674015 6.450350399217295 10.278823620108565 -0.3838011672906358 1.386857930293618 -0.4002145756516527
P 0.7321290629169741 6.661295653423079 13.095893895430407 0.3829228784507405 -0.6080193606768948 -0.3933199054143484
P 3.3315612113672266 3.313023230957413 0.29961067161887445 -0.7316871087419012 -0.054383974067519235 -0.6063805395218911
P 8.726793888988876 4.428517542344296 5.0066900293942505 0.6828793432105789 1.1252867501801975 0.704935808789986
P 5.456867501377355 1.3813358474497808 12.360951048558821 2.1045608089412853 0.6220889513960834 -1.2070848545946113
P 4.375354827282669 4.744762998998582 5.382298964492088 0.2524296228234685 0.21446702753676614 -0.315823770809398
P 9.067868495875311 3.4943673661176633 13.080589110296692 -1.253005785496442 -0.4639655927563687 -0.6251079407280653
P 1.1896089520197808 6.199980480791545 2.634702776537159 0.3718213692209403 -1.3644821337015791 -0.05005552189549444
P -0.05181407465674974 5.182022602279825 9.82468317714997 1.068057079133767 -0.8898490339290352 -0.046647781765526114
Ni 8.963136828773717 8.220527142945311 7.120656369296475 -3.1757916578173435 0.028499907211905758 -1.7736243508601648
Ni 7.16745055644758 1.5328272167716037 10.73195467982011 -1.9173675295188075 1.3026347613774794 0.15132896142570065
Ni 9.106417056445943 3.983671254269896 7.805700453212777 0.8030529620793976 -1.2661466937537742 0.9901572813324948
Ni 2.408986787613691 1.5759986221302036 1.8288933967113168 -0.2403274402432958 -1.5641061826882419 -0.31258958014281646
Ni 6.554821099274408 4.295284545884627 5.448308714343502 -0.4597479551305953 0.7821434656202401 -0.04576255094709538
Ni 2.9582571744872603 3.694696853763982 2.4211236192324237 0.7756758556180254 1.1149696845249055 -0.5677697691282286
Ni 8.509007570117028 2.765253404589616 1.6824153907190256 1.7340761562538973 -0.6070364279383352 -2.1866905856635053
Ni 7.419516760662463 8.973650072565707 9.138997859924368 0.46995806289437775 -0.9248869993697748 0.4646703321328772
Ni 4.810722419491417 5.176393170320284 8.912213770168842 0.4532024407025937 1.9055967621361247 -0.7801732292677468
Ni 8.056863525048719 5.784837834530155 6.755224216908276 1.880971507388277 3.3093869494087067 -2.299198717567266
Ni 0.2832312614769911 8.1634126412101 9.176401893599914 0.8760429812838785 0.9662269957691424 1.0659438894455062
Ni 7.847838242670196 8.018650493535278 1.3496041188910828 0.3726420653500227 -0.6581741271544149 0.20620144509386423
Ni 7.268938775996327 5.2271139794656865 12.75052824471256 -0.5089377865916848 -0.045852796668056514 0.7163941871385726
Ni 6.836003769452215 0.220393193241193 6.962391973145183 0.1726207809249414 -2.0128382463243075 -1.627142176003804
Ni 5.062043003579208 2.098510566692775 0.9806899205093678 -1.1371217951419128 0.5975505999350871 0.9811689617909553
Ni 1.4451609303288162 0.24193602276318524 11.163737703267865 1.0026932090159764 -1.2091980442828723 0.3595988590128194
Ni 0.34649526521039026 2.119658217547409 10.66422627557575 -1.6331729555789165 1.4765845455264892 0.748866191624349
Ni 8.276877384050255 0.6589902526254064 13.440769300914692 -0.1137592307020428 0.19235862567350098 -2.2029872659409997
Ni 0.6041172713972637 8.198969401020777 2.904783163022573 0.1777493604007584 0.008192820223437503 0.48697876582209026
Ni 7.114735213462208 0.8916554211333674 1.7178817440892935 -1.9951845377982864 1.1767653776754636 3.0130212873239204
Ni 4.395486570714141 1.2154074084171478 10.211613421852533 -0.012342323615436808 -0.4469397476223335 0.8398770728862824
Ni 1.9934992920435208 1.6827434635749459 9.118686235637234 1.2036796855678045 0.7764351023815531 0.6361405443931432
Ni 4.658056698469425 4.428135412029161 12.276117186573822 -0.03336237751052964 -0.8422535435382592 -2.878668548741242
Ni 1.1672217077038576 1.7380498365019605 13.311955967758356 -0.284800068734374 1.6030334558810586 -0.3627376617521172
P -0.14609960377779227 0.5440044447259852 1.8437489457184566 1.5587593165540314 0.9562817116309725 -0.6727651375947123
P 5.019272369038919 1.385790927709153 7.263205889244151 0.4696821835251717 -0.1598783936576085 0.4595556366141311
P 2.7392312621541217 1.2779183358221848 4.053762342291977 1.10765669580326 -1.0274745297257144 -1.7204639647871016
P 1.786291458724783 2.7455690332343994 7.280557401626731 -1.1797501713354004 0.7636616047659687 -0.5936993445097969
P 6.780585553506136 6.151738858568723 1.2134837084892518 -0.600513796328469 -0.5187133779212099 0.2690908855292333
P 3.732294748672573 8.484868118502439 0.8343759509450366 -0.633581011196083 0.6411207712165539 0.18006463879749635
P 3.509950826773877 3.783220603352925 9.555134045005108 -3.254769776284459 -1.4605143794375042 0.9278280842759697
P 5.809163691176516 2.2506450333742145 3.0504708116801473 -0.1384708745161099 -0.279517480179196 -0.7135662307714743
Ni 3.4408225207409027 7.177171578854536 8.156877280796143 -0.7878808823246496 -0.12745909678663855 -0.03159705807999074
Ni 3.061674686114856 8.04730094691877 12.40615799686438 -0.090351907521696 0.7943410361276966 -0.590676241412757
Ni 2.502357068028729 3.3357460043305283 4.766879023993276 0.11151054387718215 -0.9320346661581497 1.1507381003737664
Ni 0.30697646644938 6.61777007850411 4.902608915853542 -0.43610306201814575 0.5350985041474526 -1.3829300559941216
Ni 7.291894555659158 2.345292188256897 6.900433736659354 0.1197128771823164 1.235146388717518 -1.7375011227750465
Ni 1.2788130799746944 9.033905499086293 5.427423894583668 0.02566115221153 -0.198557041174729 -1.3793585365927794
Ni 6.6919313203949535 4.543743812734704 7.719979303276539 -1.985794354832638 -1.5309947448462535 2.2480098533982766
Ni 5.4635780825211775 3.3061635257881714 10.140106587614136 0.635140385263403 -0.5416069946899318 0.54094365007432
Ni 0.6474415288819174 3.996710286242409 3.229592066836506 1.0882263549927904 0.34041791520899434 1.0610143133543728
Ni 2.9622369219156113 5.881954856083828 12.959864823494144 0.2824999598462877 0.049397062375889124 1.213680248423942
Ni 2.724421382379766 2.5124509004992306 11.429384446072563 -0.2197583578426925 1.7184165953397696 -1.0835559461003146
Ni 5.2494173415173115 6.495702743447638 6.918740574829768 -0.4772692518438103 -0.40624586944739716 -2.5393652067526653
Ni 5.405904365690647 4.454250756980541 3.2835432751825318 -0.45862309749753266 0.04539179787123795 -0.19120368613345134
Ni 5.2066373867254345 8.781242798769735 8.833273103263343 -0.8107199917063522 -0.1792853374293106 -1.7742244463380088
Ni 5.026066832447042 2.3307153147722572 5.068662246257463 -0.26501285880511777 0.5215955845650114 0.012409429407946369
Ni 3.0606028571821624 8.40029615558708 3.12175862000621 0.10586800087942412 0.5321867298172963 0.1803873122442377
Ni 1.2586440555368683 4.564844862331395 0.48091100159665817 0.11844480910317019 0.38508620465064647 0.7626385628180931
Ni 8.156385171512262 0.09645901179151437 4.123127382715302 -0.8929047900362235 -1.7719158528094903 -1.536248022825393
Ni 3.8424135211924044 6.546162585548557 1.71399426715167 -1.4152490798418011 -0.871789348213847 1.151558539392533
Ni 2.811416610708171 5.502601975922832 4.045222195761302 -0.7725244544732373 -0.19297260510841605 -3.03774938619822
Ni 7.648422139679565 3.0796348109261737 3.705135535543264 0.34657133640489995 -0.4572673548005867 0.5194633687133569
Ni 5.766532860410058 9.140864706317572 13.930459047482692 -0.35098977718756974 0.5307183728018859 -2.4436124399303725
Ni 3.9509571711937546 3.242888337752866 6.969471636251918 -0.33450000706266264 1.547850897171644 1.4624108251292685
Ni 3.519746411193542 1.0906465206515565 12.930699892222957 -0.9742341823443349 -1.3246991973766862 1.8271596037741433
P 8.916470329069375 1.1237240935396549 5.648928061814227 0.18825308814555966 1.142141102733375 2.214921041264108
P 5.615526144170845 6.099964860993804 10.999293980313302 0.14038428948873888 -2.3276096646097915 1.1013119845321548
P 6.99504454256084 7.771067330334534 5.211894008621429 -0.5005058537742477 -0.05431841093690646 -0.08424630884459038
P 3.266496535026901 8.665075182968874 9.90339270181607 -0.8893106449270619 -0.27982524122760194 0.40969731833110734
P 1.38395483814619 7.321868484768237 6.836511723163795 2.511819950144545 -2.562517219389097 -0.07567425090486321
P 6.743015619352311 6.8526683792927106 8.169509017774232 2.1858958576763516 1.2928560847241606 2.227440256777041
P 8.527703994803847 9.371512972381751 10.99705618790687 2.0092448725460947 -2.012176958591225 1.008971071604888
P 7.243979142241938 2.8238218655726564 8.887114332640621 0.9284348646220334 -0.3005573315686308 1.3875441577273653
