# total energy = -340870.2612516878 ev
CRYSTAL
PRIMVEC
9.23800779608586 0.00000000000000 0.00000000000000
0.00000000000000 9.23800779608586 0.00000000000000
0.00000000000000 0.00000000000000 13.52075820171037
PRIMCOORD
 96 1
Ni 2.7398268664943015 7.793063391660074 11.158140805756098 0.3912442538322423 -0.5595759204635266 -0.47483133182627896
Ni 8.92349070745236 8.441479167935219 9.832390593196523 0.12086396006762412 -1.1792698892648723 -1.444828336160815
Ni 2.88355179379575 7.28925015343928 6.149538639682089 -0.3165717047190161 1.5957850018487616 0.9112624666078047
Ni 9.034623942793436 5.828222248025129 3.5406679259349203 -1.9811689402454848 1.1543584707351733 0.9950130667628994
Ni 3.2172101640408806 1.7880533859689327 0.365616334861831 0.5272131878621049 0.5662533324837022 -0.2512625990985608
Ni -0.031137629512936364 3.521953569479895 3.5990502884210813 -0.14077612561051883 -0.5096885487147803 0.4131649651647336
Ni 4.752530129190103 1.973312396902424 5.693320542093112 0.61212464109452 0.9060621533537879 -1.2674692692199396
Ni 7.361907085771579 1.1179375290773137 2.4581951092827423 1.5768326291159747 -0.3868913761801853 -0.8013586050961102
Ni 3.9711055148068306 4.134341114846463 2.898188493552558 0.13842973686552934 -0.9156467117184295 2.8210336718365934
Ni 8.418254816011075 0.5042104725615815 7.444610351722614 -0.23091411734919587 0.9190577942825074 0.41728644353227484
Ni 5.836767405356009 1.2174863024800913 8.597863861297467 2.334781499767882 -0.7426947727063145 0.018828188450096605
Ni 2.7564183287280972 0.07573041756903769 1.896841091097779 -1.6502329963849967 1.3024038763135957 -0.611366936992889
Ni 0.07267910355131892 8.960923115565581 5.138185550843445 -1.5026249354543089 -0.5339147682519967 -1.094951846642082
Ni 1.7830463856734329 4.9034791786891185 2.846673666158047 0.40493897771051546 1.483034414916891 -0.43676769218533806
Ni 5.672829716714056 6.042747268065895 3.29851110038886 -0.45536782378502866 1.439479927364708 -0.8089852684034327
Ni 5.250541898433824 6.358151334650679 11.671158795073639 0.11697516653617918 -0.6437839198710138 -0.6702215452372521
Ni 6.690359337651541 8.23353160953725 8.260304280305492 0.1887613952405459 -0.5067333227411982 -1.0038651178368905
Ni 2.2719587171107567 8.762897177679358 8.715710356997839 0.09622584980396977 -0.9216661784396321 -0.25402216412156897
Ni 2.0976375075607927 2.507574109244929 2.5831003668388184 -0.521464972524418 -1.1386402886689682 -0.9382163694888292
Ni 0.06515844129935146 1.1137065214475372 1.0831111629998147 2.450726168157018 -1.014511284696827 0.7748525883857816
Ni 8.67751027042603 5.664182941295997 1.186152827199139 -1.0677901986256255 1.7121423322952833 -0.5379038348067317
Ni 0.2306462676711664 7.842181879798768 0.40692593490128914 -0.3266825679007729 0.3129701034106868 -1.7821254463526406
Ni 6.445284225401886 2.590272756192003 11.547281727799644 -1.6929703873525233 -0.9268166122923199 -0.3906955804176239
Ni 7.188269488808085 4.762193085479942 11.256801806597256 0.3081811666624757 1.8346651681225692 -1.5340782688675838
P 6.190269016624633 4.40853442807659 6.968207206816907 -0.03660093905248535 1.3731534362233317 -0.45023538765446974
P 8.615938947604063 6.352904146149122 5.8472276017298 0.7672058704738013 1.153841936110071 -0.25757285758730475
P 7.901138846377882 1.880599749364351 9.715272976321454 -0.06353298755663897 -0.448626391296137 -1.9832916430154424
P 2.0356874264138898 3.008514327000963 10.927098227544937 -0.4247120465723847 -0.5090542575648911 0.5122838202457822
P 1.8069728261998985 0.061874329481915735 6.285489783314419 0.5347879148855693 1.211082920010411 1.629580867352284
P 5.068562380313807 2.96426426903889 0.3820821601878435 0.7714636173088907 0.05868645809761506 0.31831722665521306
P 8.68470667859982 4.559622047694483 12.714123423231785 0.3585171959128664 0.44280669929056643 1.1344460480819623
P 6.824430546671077 7.183170108433332 10.287174028154707 1.1605679419799946 -0.18309082721832984 -0.15782202534921205
Ni 1.0402366444178146 1.4982940293847156 9.450212357726256 -0.18348214911947755 -0.2453979127876677 0.3011152609546298
Ni 2.634171769852916 0.8484925519207793 11.145837626801216 0.7591801719558474 1.2185614877756432 1.2482579863988115
Ni 7.957887929062855 2.4907701728288516 13.527789609075066 -2.4992086891384377 -0.1487491165136664 -1.383458931914398
Ni 3.6740019419220182 1.443346358245172 9.18233876571781 -0.6330007132125808 0.13423421072694303 0.4869435417087807
Ni 2.464728228487498 5.981314515362809 12.739610163296831 0.5283131057945031 -0.4086233685406382 0.9739351630466775
Ni 0.41114678072234784 6.689638773033369 11.567089864393022 -0.12612443713561505 -0.4972127848452727 0.9244928492551497
Ni 7.172093736930925 1.925468753857418 4.740945667251807 0.6587809075004782 -0.17836771071104762 -0.2941851094936998
Ni 6.840846486754293 0.1896784739249435 10.483333888440024 0.09664725361210452 -0.2842724783656782 1.3612962797744297
Ni 4.916430865800356 3.1567935922095733 8.196418836498244 -0.5537762830626141 2.256961920385242 -0.11088525158835742
Ni 5.803159532523854 0.9545171688791757 13.532386441818684 2.1419253656326727 1.103503335756519 -1.4114307345369757
Ni 1.4910421931633737 5.118604669245029 5.3147395869089475 0.950130604427912 0.7970080414368984 -0.5866339530225833
Ni 7.288187782527873 2.626245559053029 6.980483595548806 -0.19377118975031143 -0.3632647379001808 0.35455846837543453
Ni 5.2749302393565545 0.29213721982418317 2.053721865485614 -1.2843416194952462 -0.5959007230364899 1.4978951340788074
Ni 7.2629680208918685 4.0352727178558 9.11487082243714 -0.5618333490391356 -0.9958515035037947 -0.7602119556544714
Ni 3.959142294543597 7.557447999525902 1.8180953877419312 0.7613219008891984 -3.0083429080116444 0.2613752620525305
Ni 5.423930069183336 6.21440793133338 5.871835807241151 -0.5089393292535817 0.8623816817467018 0.6106262021721226
Ni 0.4011558751511615 0.4533450771242175 11.622079106568231 -1.2472179751700714 0.3513736428895497 0.7266248637276452
Ni 3.9950134793174454 4.265234449139703 6.078973192344074 -0.03610600169393782 1.1218170464640422 0.4782352153015055
Ni 2.31370527492508 0.08933338423900707 4.1738446843365296 -0.2453122950523969 1.86681012828623 0.5451782569809578
Ni 0.0902442518204393 3.6052064969024857 1.333480577591446 1.2272469313647831 -0.8722164084489366 0.290724404638609
Ni 7.86296739763064 6.058867591895503 7.898300006542445 0.6448349868433475 -0.045243702329147886 -0.5911395542024206
Ni 4.323406185045168 5.047749148458158 1.0225172214163423 -0.3211104731296341 1.3159067958960369 -1.8042119938390349
Ni 4.264264458307549 0.2077221510045932 7.11448829091128 -1.55175820264585 1.17337126439225 -0.40245297806386815
Ni 5.865497610003619 2.694569865668373 2.6133733188099493 -1.1285168270817207 1.1526633424209374 -0.3076150097463605
P 8.05169066153611 0.1455401958587658 13.080670949292484 -1.8103759565579014 0.10977427791236577 0.34081283665456785
P 1.3866896556394523 7.115113704047821 1.9451771199652026 1.2456601437646482 -0.8615525009771872 0.9439476155456517
P 3.976177181157807 1.4804739120968577 3.4361112284358506 0.04586205263943715 0.3691811033846158 0.29789881089986114
P 4.38901451733048 7.537595520494484 7.665391350730378 -0.054950130983634396 -1.9709930281537476 0.8263291589985189
P 7.3027376450101835 4.49681283181053 2.852555505804071 0.678758893284302 0.19621296642258465 -1.2610823918569896
P 0.038375608722390354 1.4439837807920162 3.4317573553006677 0.9561683259815597 -1.323140851750631 0.30961841332963447
P 6.305319167326024 0.6748484883517379 6.413855598639303 1.093380131279588 -0.6771583815664015 0.19206269169963697
P 2.278388370626749 4.0386815427802265 0.9085867172754943 0.46284639155026097 -0.13536395345601204 -0.8610375090139817
Ni 8.918576087236115 2.9053534924994024 11.200664280036937 0.7583021402262682 0.825097857694579 0.16670518677145482
Ni 4.60214459817453 8.715986573434805 4.557117623745941 0.6744363546495481 -0.33196361379405415 -0.17065337278592543
Ni 6.994151228274252 7.668562758851126 1.1150774418236482 -0.3449456278760188 1.0375864213487356 1.2862226385680429
Ni 3.991318276147335 3.938717059020812 12.134596395856219 -0.5993843107097162 0.030011972981057986 -0.12310801890679444
Ni 4.742118894258317 7.993925397979358 9.826305517376143 0.37459456109070327 1.8904359952352863 0.07092593758660043
Ni 5.5925052378037785 6.044530203595474 8.502988596104085 -0.187965895922444 -1.7561282509579306 0.5923636564175088
Ni 0.5780203082829541 4.635974183196892 9.720843495100397 -0.4720298578217419 1.5940821602250417 0.3904107021873534
Ni 7.5409119653396575 6.849751926394259 12.56336744809841 -0.5053259008707104 0.030367042327631575 -0.7010979231011345
Ni 2.7479193614368436 2.848151747426092 4.806102260949574 -1.0256973832206335 -0.2466934916706397 -1.2775695908787352
Ni 6.161298623770966 4.26463397862456 4.6241670852675965 -0.2932911369245207 -1.583209479176596 1.3927390716647432
Ni 8.594442103161944 4.1566324279701545 5.63462778254066 -1.3639856536811348 0.6534525533090295 1.8970686700604558
Ni 8.965117171163657 8.473673625554808 2.6649685168734094 0.5885849061013669 -0.24753218552185116 0.9547434206095751
Ni 0.12535052953807438 3.0754067423878886 8.106749188770756 -1.5540331147229558 -1.323596965451443 -0.6838327082627836
Ni 2.5675287806799725 5.889350146466682 8.000895474958979 -0.38983631774112215 0.8760846331550911 -0.38361321964954576
Ni 4.079328777651442 8.80922578742462 13.15079020084771 -1.1244783953462893 -1.0266031828643545 -0.7028205622191961
Ni 6.365818881228659 4.596361605213308 13.336971164972143 0.1680123356186526 0.1307755627543812 0.9050689362025832
Ni 0.4643022783243878 2.016832652238401 5.6135891432916365 0.5699685765517604 0.1444528031311577 0.43195227307456574
Ni 2.7039926337521543 2.4255405988684755 7.043936700585152 -0.8182440679975392 -0.9501444883849831 1.1727575420676513
Ni 0.5080137604244177 7.829950757305703 7.284335533223033 -0.1261977135757117 -1.6266091863184695 0.15504137728028136
Ni 1.542867417624174 7.228380919219633 4.1074307977601325 0.37257238845435187 -0.5977336624801706 -0.4535924770521607
Ni 1.2186872435103775 2.6017463620351964 12.975263431263498 0.6791594711568303 0.3457683808876303 -0.4631886053810281
Ni 3.6350545005090535 5.981092803172602 10.106104453815327 -0.9538936710147701 -1.8196589245217243 -0.2572841227022924
Ni 6.971564298896952 8.016623183451761 5.409818088276684 0.8403524698608044 0.030440318767728222 0.39411849005624383
Ni 2.6888238247388507 3.8779124908566427 9.12588991829041 1.1654658935022444 -1.3710057937527096 -0.26789377989733865
P 5.064802511088219 4.339859077160085 10.228210594970045 0.688230580220163 -0.7276785018031403 -0.5572107626654598
P 1.485333104265553 6.7242720647452305 9.796573912669434 -0.3550323226880595 0.2698516749546578 -1.8643009887111313
P 3.5940285073129017 6.426512593297724 4.455914323123746 1.4585500566222815 -1.7331058219208282 -2.1163480313842005
P 4.851229005863756 0.6924875406842607 11.174203853936568 -0.2810172046531741 0.04416872409741425 0.40491558067174777
P 1.3802877161472358 4.286916053740327 7.163406314277996 1.4296943087328537 -0.3152570996726506 0.19455820442798105
P 1.877024640297269 8.681658135984478 12.786824698002127 0.363544988144761 0.3411841039510576 1.9068602022295806
P 5.212425877734135 6.886879480245944 0.09720139558896491 0.030874835201985536 0.3441015347081687 2.0550390480620733
P 6.900644112054606 8.454162952816624 3.312478044571085 -1.5266464951798868 -0.6942294781160754 -0.34075858637786477
