# total energy = -381166.7526042868 ev
CRYSTAL
PRIMVEC
9.27728974612538 0.00000000000000 0.00000000000000
0.00000000000000 9.27728974612538 0.00000000000000
0.00000000000000 0.00000000000000 13.57825130627822
PRIMCOORD
 96 1
Ni 0.044407603123028896 2.775820774234647 1.3465717114627171 0.07210118884162421 0.30699923053923256 -0.0027976173497951816
Ni 3.908383036681896 5.19895609913571 10.204014985830295 -0.6422453717393004 1.075285478561406 0.5972780629999908
Ni 2.0728712482073166 3.5009337456128278 9.506270019385145 1.1943134138615559 -0.5536107040190272 0.713839539037519
Ni 1.3292315290829453 3.4271978462203796 7.167686986063452 1.217946479899464 -0.032623956682608334 -0.13906917022174115
Ni 5.341009960672848 7.179731691420928 5.798564966264899 0.24211898492607978 0.5907065804300601 -0.1335001607743959
Ni 0.32821659746549353 7.105068063047699 12.404778312683133 -0.19028425964297552 -2.4929683646556806 1.9200695018310032
Ni 8.14489453657611 4.030833984855137 11.806167681937264 0.6763477127396481 2.2486472298719598 0.41066996665702177
Ni 0.7187329791773521 8.750015041580118 11.309325209467112 -0.6438435694643557 2.291128538964622 -2.7013956137562705
Ni 3.7117416019156217 4.815850416522328 6.404494450940148 0.7041549647599034 -0.3654398911746287 1.3854646494905174
Ni 0.048125940877997875 5.337772186529923 6.810171779655924 -0.07681890603226771 0.016939970288448247 0.6182726629737868
Ni 0.685307831728805 1.1238137781584867 6.8630588256632885 0.44006616043095176 -0.15211160522799608 0.3256153029785231
Ni 1.4402343016333539 0.25638625339956844 4.644264158339999 -0.5729536273220133 0.7197193948570638 0.483251180458858
Ni 3.73708715767055 0.7201171508166769 3.6291811444579873 -0.7963282417610544 -0.3516551786857105 0.5647227547717887
Ni 5.566670757957941 0.08906847625781092 7.676654876312408 0.05894202575184687 -0.7837897429744114 0.11470102579002181
Ni 2.188160128648932 1.1456339637864483 10.494806996211096 1.0748797584825551 2.2338199350511396 1.6369823020226775
Ni 6.378173852026419 2.8802366710215126 11.376211685794456 -0.20470094928893778 -2.0312697135566182 0.015359256064889677
Ni 0.4011314567099512 7.634272505554423 3.63291525360563 -0.70312446661286 -0.013515003767299305 1.152162748635435
Ni 4.57442750385377 3.986015397793623 0.3998112983703003 0.8351614125781682 -0.36833186801044304 1.8098722774486058
Ni 8.848929505510954 2.31244798020412 10.7029884517693 0.8103885765088624 -1.4686033270932257 -0.2364214203206702
Ni 4.865010775213896 7.042993716943663 11.409248114800056 -0.595438952908723 0.8214579469491465 -0.3399283771670855
Ni 5.850667153554523 4.20544185632787 5.0594599863985845 -1.4784511664215827 -0.45379559420190235 -1.930542376337869
Ni 3.1801992823773304 7.928139937506511 4.6081059213140705 0.5667271867963273 -0.5377927631501641 0.0025232806424859773
Ni 4.2787695549687745 6.437659834274076 0.11276824080083422 -0.2827275024760615 -0.7539605754281209 0.22735956722871808
Ni 1.5153710717867812 5.114913130766787 11.369409576907373 0.04112608061634852 -0.1917634152916633 0.8662285662966179
P 0.2905387403690477 4.416379594687974 9.150614909584082 -0.8319526758328833 0.8920930927682057 -0.19252060517266198
Ni 7.010207774762875 3.731734161451446 0.4711499460764116 0.7528897109614453 -0.540280048348392 -0.0021774672672930243
P 5.715441377315931 3.899931425666984 2.724231621071395 -0.2209400368556195 0.5045717963135051 -0.3587084859880661
Ni 8.681659970276197 0.9619343483020656 3.310947838554675 0.08262651385298028 -0.7598823402291945 -0.10574613058957917
P 5.596682790486196 8.499231343495484 3.779207908855955 -0.1243210653782891 -1.2651907575984083 -0.7823208717383688
P 3.286721123950568 1.649177422684779 12.564159368394312 1.0948081219753663 -0.09143819860733929 -1.8107382249933266
P 0.9093126327832045 4.30010732152673 2.75817722447816 0.35421496899308674 -0.7744759217726532 1.2450171108640107
Ni 0.4224747896417916 8.694509016660009 1.6272718859905857 -1.9391910531518024 1.0731128963901198 1.445674486211194
Ni 6.705049881114684 6.337734145754189 3.446241339008864 -0.667027978000619 0.4544630525825721 1.504638109229596
Ni 4.6483211171729515 0.35950425734232205 11.045595053455683 -0.059772234962626083 0.0515498470528338 1.8344342830586862
Ni 4.3214358107948785 2.8347593963836437 10.446305325095883 -0.07951419347624371 -0.9615265049696796 -1.3229511043373279
Ni 3.6876113711255165 2.7160100868437165 7.808607624706806 0.5044938918877182 1.0957555734903 0.2573265459044536
Ni 1.88444949221076 7.226665500558623 0.982960397922479 1.6093102900287057 -0.7308908380928508 -1.8413140408976545
Ni 6.743086769326692 5.009690109766643 9.916753911950346 -1.8933068890251779 -3.015456636238291 1.0120376263453539
Ni 5.7714019894366215 4.899568679747976 12.226563430933126 0.34995387972388764 1.3298169782192257 -0.14148575008303374
Ni 2.2117522766301847 6.240489593988758 2.932277628198405 0.1229054159776851 -1.3666346612682077 0.7755634984098773
Ni 3.7862011299130796 9.001308990604182 13.461003323675824 0.5894377410199655 -0.7661591743768418 0.31955521282737226
Ni 6.0212115720914365 5.662421666064315 1.4230954364424115 0.7891803178623634 0.25218665357472697 -0.907533852803308
Ni 7.617220846887674 1.942033630047817 5.060587177110233 -0.9622968074768007 -0.7488489652331684 1.8575173901303945
Ni 3.477350874921383 3.9443325346871467 12.15567194859575 -1.265580279727343 0.09674289864970435 -0.03568639765801596
Ni 6.356260893500379 2.0007403199516185 9.090408081918357 -0.3679523731838373 -0.5637220814214162 1.1662981595955526
Ni 5.324403611916874 6.997971029506377 8.631436434172654 0.27525330558620337 -0.10328121398885438 1.7330603133948737
Ni 8.371019198351593 9.269589657266339 13.398814866907154 -0.01881096205891599 -1.597031729771669 0.4299468126087628
Ni 7.345071550375661 8.207776006893425 2.0060237364971645 -0.4766912678531532 0.012627458956023414 0.2773490117729675
Ni 1.48940393761473 9.297050435097447 13.348507835195338 0.5648927046907497 1.5974798730526811 -0.9051033889849444
Ni 5.045695271510741 0.6967513687067347 1.7062837800967339 0.016121073931578685 -2.883266195414254 -0.13538760760509586
Ni 6.170548106127702 8.246527246420634 13.379683239865493 -1.2511005980539291 -0.9091582757806084 1.434011190940653
Ni 9.008498890205232 5.943486438081631 1.9977409721567545 -0.8401987178917594 0.8834199904742398 0.2822474775158494
Ni 7.208129475522625 1.4805441258482746 1.39641487868414 1.4532289015196844 -0.3531711011096047 0.6274828687181451
Ni 2.060736553138705 5.9465479437182065 5.258829872097333 -1.8827440259076669 0.5093507057593872 1.3197613937554369
Ni 6.908129755007575 0.088027564341375 11.684397686835915 0.4343665389430132 2.0372220744853107 -2.692045025779305
Ni 2.0805992306172194 4.763684215933029 0.9198358626121999 -0.11050215721732581 -0.29180658195919423 -1.0767072986095974
P 1.2403272608547327 9.183524239719315 9.249341972260801 -0.3952788289129321 -0.8239619443179229 -1.6375235192381281
Ni 3.6564025682120542 7.7774674737379215 7.521944008290479 -0.781669611307615 0.5364354777913213 -0.8297294429293194
P 7.694380066219203 4.276218300271628 5.903104251006209 1.762930104371112 -0.913228074974608 0.5236406400194982
Ni 8.313815429396657 0.48908851364878686 9.16144985635062 0.7520690148323629 -0.4079847065153748 1.9296514890924827
P 4.093947387417647 2.3758953651997103 5.206608007769189 0.9688947724092927 -0.09128933173430084 0.8169819134556638
P 8.557130909186007 8.766751272393401 5.16473217703471 0.8254467563935655 1.3793405388706501 0.08570489566798788
P 7.730802706004654 6.767124227218719 0.06921414834012356 0.3613922034678163 -0.3264084883037798 0.48734823334636707
Ni 4.123365673398203 5.658478817895998 4.337042995438552 0.8025125161948954 0.3393370234399898 -1.885518760439327
Ni 7.879341393117448 7.048652863726425 6.241025821339649 -0.6933380766500575 0.6028406446894328 0.04084763014398127
Ni 7.841026186211206 3.349185116226532 3.261224348371773 -0.26783155920083546 0.8919236570698769 -1.1481397435189709
Ni 7.759849900392896 0.3158156441793981 7.093767396332809 -0.41232961374763183 0.056604892978237994 -2.547159505986104
Ni 8.586818236570988 2.731141346520249 8.289549750175357 -0.5836396462809497 0.09854138531102384 -0.6484553572047542
Ni 2.0388607037718964 5.929125193459146 8.029512883236418 0.8168626142689802 -0.5327099493106181 -0.31843369762841933
Ni 7.230886667421175 6.971790517668746 11.26511521261699 1.2397517487000131 -0.9354637464443567 1.026554074793974
Ni 3.240696489214039 1.9988384755410182 1.0854763057567058 -0.7541472375176301 -0.554035964481904 -0.3968680277769229
Ni 5.7712349982200815 1.7836610157387467 3.418569038970138 1.4929498742583902 2.574981156184062 0.6474845086510526
Ni 4.366940917302171 7.24334606763306 2.3363416401041266 0.05301871828887643 1.1705607915266485 0.5259546328646555
Ni 3.458629304089229 3.8173821009571185 2.455613261060233 0.9121536109635066 0.4327323457736999 1.6381174440683854
Ni 6.332872845894898 2.8232741116015787 6.98208645389745 -0.24451062508670793 -0.5229220166859188 -0.2731213468448651
Ni 3.989067626140391 0.8177383605483051 9.043536430622376 -0.7692234151244624 -0.4979254946415812 -1.452694369172453
Ni 8.682680472155056 5.5560482611280015 4.413026782151432 1.0539553496250624 -0.8883660216256056 0.10740012125323438
Ni 1.6667857187399964 8.115040217974588 6.5305820967180495 -0.3108358306765034 -0.19294278031174514 -0.9313846912789766
Ni 7.663737177984018 6.522305826480506 8.855124879644608 1.2339335993563394 1.986331458283031 -1.5369512195400046
Ni 3.2577203160113646 0.8601086708295395 6.551275091634363 -0.24034878039953445 -1.1145320827668548 -0.7759057122406443
Ni 1.699367560545014 1.8551981974467453 2.948123239190139 -0.39718401635544504 1.2109919029585015 -0.10754178903742125
Ni 6.229542392015547 5.306368560530497 7.293680003485315 1.1529631330495433 0.12556933596309344 -1.2023306277390777
Ni 2.8085046662275506 7.560165514569663 9.888755051310385 0.04636161798367499 0.48986637178253056 0.5227682647168739
Ni 2.543099959405813 3.6771836973815417 4.680192318578691 -0.6435586912340852 0.16390576964944675 -0.598948251613562
Ni 0.5934997717907488 6.485465708653705 9.765478424344249 -0.17041580285382263 -1.641808005546095 3.44208106934204
Ni 1.4664704772098316 2.7308723051158226 12.71315357043667 -0.7416707023171744 0.5999234710426378 -0.1349453778613547
Ni 0.3249231595837221 2.9756907058540367 4.987468217490004 0.5820453052106362 0.46242858728655195 -0.11655864782405087
Ni 0.23210109186967257 7.667735689891182 8.15999981984118 -0.9333806386630829 2.4415427018855373 -3.069801529537758
P 4.651521782156644 4.643496926472893 8.412242835612583 -0.4420741919999161 -1.064761696211947 -0.276608276952201
Ni 9.25135050550419 5.087508016674526 13.453494285305386 -0.07909613210221861 -0.7212597427609901 -0.16137117615305113
P 2.811028089055274 7.185873257273696 12.453470168239408 -1.523115342098177 0.396472335000401 -1.550616118621607
Ni 5.591134971181128 0.6108575810211553 5.383328318131158 -0.2051655476301821 -0.306958092888652 1.297335974872385
P 6.73721424487835 8.364460154457474 9.719027034276559 -0.9043600830610166 0.5759492196152275 -0.5853861966584112
P 8.726599162105213 1.9413471106020392 12.972770176147316 -0.49050709069032306 1.492443881156249 -0.7390831440956561
P 2.4260298393210986 9.201754114191656 2.030002747463403 1.109164390697038 0.21639329802520152 -0.11579143064072317
Ni 5.613446853168903 1.692168383654156 13.431226006579706 -0.9318616309153952 0.4697978831674296 -2.6232165941516823
