# total energy = -381164.11068259255 ev
CRYSTAL
PRIMVEC
9.36853426287804 0.00000000000000 0.00000000000000

0.00000000000000 9.36853426287804 0.00000000000000

0.00000000000000 0.00000000000000 13.71179687968565

PRIMCOORD
 96 1
Ni 5.382419663725183 0.29584706925742454 5.566249042706309 -0.7414133348907296 -1.2773991267391418 -0.5312531622594334
Ni 3.6157014755557424 1.6470070575700708 5.6998434042052875 -1.8066985077063142 -1.0165326860022301 3.5443379558314376
Ni 0.9844830527394075 3.051303498420947 8.792716962783969 0.013099513496435504 0.11910918216004647 -0.5615117040336588
Ni 4.567132339474163 3.2277785780187185 10.798958592322009 2.101375726345084 -0.32037539473582244 1.4179754776340288
Ni 0.9797425744107738 5.217467881250375 9.962484327872955 0.6964948771114844 -0.3848442638431695 1.1293218394815194
Ni 7.032209175966408 7.899454391147473 4.850630743741524 -0.8147023733928679 -1.2485822025074496 -0.0356480882209128
Ni 6.499551792858117 3.591418234789303 1.8748273259581776 0.8472731082400377 -0.7647643509118441 0.8574737029221232
Ni 6.418766922052171 0.13586060993316149 7.685558575209659 0.8384521675142979 -0.10403866098016921 -1.1501097227611483
Ni 7.381055917162067 1.8891742993029792 0.25860152450778817 -0.648219072824232 -0.32685611736415965 -0.5698045401700702
Ni 3.292749363016889 3.972895580764865 9.19177155271246 1.0165421990839267 0.7417930868276515 0.33512941311654537
Ni 5.150726443279651 6.235752605550475 9.53824149676983 0.29598411037565153 -0.32237288478182546 -0.35057531535797043
Ni 3.823280088851269 4.211268566128017 5.961245183599298 -0.3523223799560642 0.019869228120101265 -3.086436566991278
Ni 1.0700271389424787 4.46889388936734 4.195988486772283 0.896354696258037 -0.45419514363316615 -0.2932291733383337
Ni 9.431397111104344 8.484791042322774 9.209419060672237 -1.0309028386809729 -0.09773148781521879 -0.3236142133880943
Ni 4.944674901066274 2.2378617754164503 4.249327299650234 2.0101149338558737 1.3581613336898737 -2.946279820132313
Ni 9.050875355621907 8.932841192652626 2.6761723975438367 -0.2389056201951047 -0.3292035345504137 -0.04558437349801827
Ni 1.3717782584819287 8.429947642844867 11.233828151820724 0.15777137461693475 -0.19551516902461166 1.682605242068115
Ni 5.839950770712302 2.3465929838791424 8.817658811507924 0.4750095092753561 -0.46923943956079833 1.0825182488644196
Ni 2.3220567926880524 4.836346539576174 7.536524869272759 -1.925878395203296 0.9400503373737745 -1.4097536039448688
Ni 1.6087178581053954 2.7307684677176423 5.963712855519778 -0.2794796849627251 0.7085705773290958 0.7690856039950174
Ni 5.101878905719382 9.203320144877889 9.450170716880528 -1.3680405404767988 0.3868949757246111 1.0175554708397896
Ni 9.37171954795534 3.0100069994632057 11.044824531375362 -0.8969051694448682 0.4827824683525556 -0.4889729134339837
Ni 2.6371018623230187 1.6591112038163054 3.7337356385250224 -0.4624229308595972 1.2173183593971615 -1.4745711146408862
Ni 0.5601006304760126 6.943142520886725 4.063257904130815 1.3448779863174063 1.6865341448088762 -0.018903521772722285
P 0.8369230172394521 6.73375578048166 12.406625300884969 -1.265636586886575 -1.831873464310045 0.3534657495318881
Ni 7.413723996078955 6.400067327696534 0.3677234008485517 2.14734345132445 -1.2071866702797984 -1.5068613421331596
P 3.8301003817825836 7.214989279111948 1.4912673548196607 1.964006055312953 -1.2096847541113036 -0.026716847169553987
Ni 5.668356697456859 5.952569920887214 5.361421967918925 0.9871120667482676 -0.4899910702858529 -1.4681230450226974
P 1.7490678696493893 3.0605502417220563 2.371948921816785 0.09305182295136233 0.3603372798407407 -0.9022594917782462
P 6.731554174933776 4.213123535908787 10.205580928203098 -0.5173185544562123 1.185205280912701 -1.1396584455208374
P 5.599582287554687 0.8116214168004384 0.84515795884196 0.012882769499939103 -0.44900820011558795 0.24869895213644266
Ni 5.644813570895878 3.4956156035865207 13.26280440341429 0.19853312991532904 0.33147561841404205 -0.3763999897305582
Ni 0.2549609120996715 2.272909462031902 0.35485197164754423 0.9013071551673058 1.2540326840990597 0.612226456779707
Ni 2.703224977033486 8.839774173449767 4.305833613956862 -0.856043655343816 0.09799142634482479 2.0672175924061365
Ni 7.778984409274153 8.731277178343232 -0.18690038450706703 -0.4757443305588516 0.5982396555823116 0.6817205470157872
Ni 3.8044212294134434 7.958597947844438 11.50995633019651 1.0021975003264803 -0.8809761569194376 -1.7043264357952908
Ni 8.019062467870132 6.17465102519603 3.6686327571939787 -1.8094192490715868 -1.7975703201528008 -0.7123706678014763
Ni 6.753083066631801 7.687866045194526 2.293311319060095 0.22052403236412343 -0.4063631117515518 0.18568172787395762
Ni 2.5841977494340975 8.382936337996874 9.162990478654367 0.002343560531512093 1.2912743420593373 -0.344569989704155
Ni 2.004407270532612 5.531388726775784 1.902004506953303 1.2936325578788688 -0.9475525592880907 0.14188812772777498
Ni 8.441002513255514 5.0721806521585755 11.6185123470688 -0.14897280248869826 -0.25403476252705925 0.9317001656368663
Ni 2.5811998184752776 7.293085380589201 13.460912365440219 -0.5953229961561488 -1.8608428549592018 -0.02229403551150999
Ni 5.584695686637296 5.542228120898766 1.1754222123600593 -1.6693658605597057 0.7104729365581314 0.6548021253583884
Ni 2.135866543076856 7.913291716229274 2.3276601130207717 -2.457954824694973 -0.020822850282622204 0.2260004820976624
Ni 2.7819487703052426 6.208733752784112 4.119586216286763 0.5391497913986908 0.1285502729682883 0.6725280818832416
Ni 4.010257295339155 6.338843956396888 6.6740529222901905 -1.1226547118739891 2.0261182512626656 1.840075283394547
Ni 3.5625631493106638 9.252420632862808 13.349065182487202 0.7609640033291476 2.363537488854652 0.5688390909330074
Ni 1.8901861010015808 7.059996248540968 6.043392239284658 -0.7476091792887964 0.5952708027619747 0.7112193278058526
Ni 6.979408116954196 7.852030870792643 9.436581657956253 0.36438625309913375 0.6883426803179952 0.4382051959628131
Ni 1.523679672751625 0.267286155754119 6.582554195720163 -1.052243509140278 -0.1710053568087055 0.47080704115823435
Ni 4.234586847867087 2.449553175246107 1.5331568819951937 -0.12541506977341627 0.13157723272007016 0.07694309031495782
Ni 8.191499709207744 2.9579273175879597 7.706112202492641 0.2168635527934007 -0.3280771342554543 1.0467215508807846
Ni 0.869844046580991 6.594876628814337 8.190234957084492 0.28465634406765816 0.1070980166317833 -0.5858749633693716
Ni 8.291255861862469 7.4459049112150355 11.614482003636036 -0.07763857372008565 0.5407500460062752 -0.6827204490352113
Ni 1.454436836137136 4.658915869485278 13.146870665823032 -0.5507956031677352 0.4428185263651083 -0.4872003949145932
Ni 9.046528355731617 1.0026767462457447 12.074101356906658 -1.0896677154250072 -1.1173762370838691 0.21994784814567928
P 4.526079422406826 2.840652005892631 7.236372958529153 -0.8195787276485628 -1.9460193889275454 1.3055390795084678
Ni 3.5865653340497134 2.318552960879932 12.744786291919283 -0.6666983625753421 0.48234718058734993 0.9427422823836409
P 5.972721638051031 5.33200758094578 3.2884866799348176 0.24694545978044566 0.10691058321132556 -0.05411220846337133
Ni 6.210448194551187 0.4021996068749784 3.1390276425431347 -0.25812873009077475 0.31410627389765905 -0.6946819922724616
P 3.0831190407214217 6.419497667723384 9.437240265913768 -1.8071571925102878 -1.8030174593103014 0.36651872606110425
P 5.990971542762845 6.878162367354307 7.495649954356101 1.0733954606275449 0.46937519380771425 -0.04771581801872428
P 0.5834207859219314 4.96957646509297 6.145120468398232 -0.7293785152133826 0.2648364811282536 1.4049106740302708
Ni 3.6104082537065767 5.449545211600006 11.764981885182483 -0.9007883065493583 -0.4364509322758677 -0.4830228664981359
Ni 3.8370143600563615 0.1688743877637389 2.1031019682572305 2.276969216745104 -0.4139031288823388 0.8859265589461774
Ni 8.231559561644971 7.367715124395319 7.216148166798217 -0.7378829531399679 0.8295795476150163 -0.48281717824523296
Ni 6.501453605310118 2.473901995752271 6.227705971486318 -1.4572940727279935 -1.3597425621340646 1.8974422513497904
Ni 7.825190020176961 1.021601185423294 9.835170631732703 0.03537400862391972 -0.6976343900325663 -0.6913156469033901
Ni 3.354628531713778 0.9297445808450582 10.803991368919128 0.07251847888470092 -0.27631105742675643 0.02000961035270747
Ni 6.835338797314416 3.7426638516617574 4.577943627994407 -0.4569786199155743 1.7274326827954507 -2.7562657834315885
Ni 7.911521063256721 5.76682936091984 9.031947169030659 0.100039310012789 -1.3588264780776984 0.3906644700693724
Ni 7.48861605884397 0.6231705398756069 5.137055878107433 1.5981123644303574 2.80101249151966 -0.08309625440054721
Ni 2.1697993741169967 3.0575429422289906 10.95106330378485 1.0257290077895174 0.32277757641941185 0.9289472854820775
Ni 8.71378612490537 2.7665562685385523 5.32611477290485 0.381456321207543 1.2254744128453927 0.8336148940266547
Ni 1.114209146448084 1.0020115803142564 10.146071061817102 -0.19329167901073163 1.2369150505821667 -0.9620800634803044
Ni 3.0164525510246682 1.724128831485708 8.426722056503861 0.3034922458272386 -0.8302632039456023 -0.38654479147404397
Ni 7.652837095647566 5.070962742706554 6.470144900712369 1.4231698773507746 -0.16147607716203158 -0.07550661497874739
Ni 3.6560798581573457 4.532009704584741 0.48237177554121446 -0.6369707536039224 -0.14913606753943992 -0.8301649878048413
Ni 3.8797629818222816 4.578590056857402 3.021654898091645 1.0823418711875552 -1.4028298802418422 0.0521028913428264
Ni 7.067369284992815 2.561638318968979 11.377267905959153 0.3910401082412362 0.8135479480734505 0.9745668830934054
Ni 5.590354281322069 4.562251333131835 7.69516975449295 1.2847259994178584 1.0066928170936726 0.7533666505978638
Ni 3.6754071443074867 8.93260697929647 7.0837201878129035 0.756504167785581 -0.6618554326607441 0.07470880166780036
Ni 1.8456106150576304 0.7325865881917045 1.3167737202149843 -1.4403733857132548 0.8392114142778258 0.1206868110598115
Ni 5.5984768005136205 0.9238077406931705 11.673263934911093 -0.4592126514524156 -1.5644962190378089 0.6751570348656566
Ni 0.4728271128510722 1.0283558986148846 4.471334392538504 0.6599931826410246 -1.0284492349341576 -0.0937475634668063
Ni 5.578568665240209 7.725443236056481 0.16466229476659722 -1.3496029025969014 1.3886505034176666 -0.42607833079229196
Ni 4.515286870955074 7.72521839123457 3.674514322993813 1.7802318288743533 -0.5093717888053099 -0.5605290284054153
Ni 5.971232041105867 5.808463127110449 11.718828738071453 0.6254447552421938 -1.5339034338526165 1.119395838617059
P 9.360346147380318 1.0891670544076932 8.214421701948195 0.4505156378990499 0.5023647613598574 -0.2984788517730472
Ni 0.26420671854735645 6.633521832580373 1.0699072217041259 -0.5964295989567664 1.9041286622310305 -0.8831739359017047
P 6.027124716419363 7.872641646134529 11.714399295079799 0.7313451520214501 1.9604715597971332 -1.0343308905259152
Ni 9.28558524409475 4.626313370308113 2.2360789433493773 -1.4439058243465455 1.9068285776606968 -2.4464347398705155
P 1.6372356763511677 0.9549253271922945 12.845444634421929 1.108266304362801 0.10446263589146526 -0.41938369238093576
P 9.057967336046364 8.607987267661773 5.450411801017789 1.2247604174975035 -1.3145276561603232 0.025051029431356855
P 8.181634642646378 4.133650259897325 0.2539481735476452 -0.262701951283754 -0.013100284827383889 0.014743476857761704
Ni 9.039305215827712 2.7090615738689383 3.015319895234289 -0.9706073842250251 -2.975972462100739 0.1843180147572116
