# total energy = -340892.550908608 ev
CRYSTAL
PRIMVEC
9.07646246356101 0.00000000000000 0.00000000000000
0.00000000000000 9.07646246356101 0.00000000000000
0.00000000000000 0.00000000000000 13.28432027831017
PRIMCOORD
 96 1
Ni 6.5461352126038355 1.926551733736074 11.553904461473756 -0.6900833171581858 0.5331341813322302 0.8327620591080562
Ni 4.747452679674676 0.22778471303878892 6.129238777071268 -0.5834714961342016 0.23594730889772914 -0.37999516328098426
Ni 2.6383551362687663 1.3861845510245758 4.863788419843787 0.9680211115550876 0.48179747873146694 0.1053704924177153
Ni 3.7459558300839015 4.587879396072578 5.109109765682053 -2.0049462451707405 -0.38434778382272516 0.0458175725547469
Ni 5.027053100661115 4.782760118000832 2.612853000159511 0.55265682474619 -0.9052242308335249 -0.2293143769622438
Ni 7.185571981261349 6.185137077759049 2.7120342265917503 0.250059322819079 -1.3567050608593214 -0.6989443670932415
Ni 5.068605145045985 4.59517687175747 11.27627544809771 1.2677101815861522 1.4475665610275845 -0.5347084677978856
Ni 5.802800180059559 8.107595327000238 12.601838307456374 -1.052907110866206 -0.25250469903577805 -0.9819163814799411
Ni 1.9763270529598893 6.484478804236334 0.388523414399518 -0.42513165060830654 0.30780295738745056 -0.6666813932944776
Ni 2.8664920160445866 1.644927261657929 0.4712199700122287 -0.013389019712396298 -0.49998212006029374 0.4418736459533358
Ni 0.5984166049631091 9.141540529294355 4.629413287532859 -0.05138992443620182 -1.2574152274180472 1.691653211202996
Ni 8.710780705252953 2.34345179985356 1.4508606983975048 -0.3472429085506278 0.6178265765753037 0.29874496095024033
Ni 6.9776393065533995 0.5778275578939437 4.688010020460836 -1.1635928448492479 0.15329559823376826 0.24576686609131218
Ni 0.714830402707955 7.4687757577787615 2.4518338361138774 0.783362939849638 -0.6172683900789885 0.3123250136275202
Ni 7.598405792270835 3.7160851926722356 3.6850700133652152 1.0532130721423991 0.6994287629288277 -0.147018764086121
Ni 7.931974858061215 4.026345903289975 12.584661102563764 -0.6386982778179904 -0.9791817561575973 0.3857212671314841
Ni 7.840910711859074 8.989990838360724 6.836575652508766 0.837526570376235 -0.5242577047782068 0.7662586760691836
Ni 6.830373705822837 0.759560116542179 0.6123934492506279 0.0628390468134079 0.33443033016699175 -1.2218776966330698
Ni 1.9558324010985884 6.562336697799772 9.255743300824227 -0.9079413726543718 -0.45782734106911477 0.10346196254109277
Ni -0.020805974518007343 5.000885659865663 1.3608194694959699 -0.8193496423568921 -0.403472420467318 -0.09996757623458913
Ni 6.26859514855828 2.2264017421018596 6.785471539205015 0.0908195911867339 -0.7893343269417245 0.520755090941587
Ni 3.611242976706828 4.5504480655694755 13.889686650688343 -0.7077329119191489 -0.39125068159014553 -0.5667485269525657
Ni 5.793968782246872 5.760758006710778 4.765709983580347 1.8127524272098778 -0.27840779205478505 0.39251206480107237
Ni 5.427724452195782 2.798527466382309 9.377135538137685 -0.16148276203025091 1.174090401946462 -0.08839298402311228
P 0.2998999289084062 5.645541394342596 12.456161995273604 0.4636727441062983 0.5278119977883685 0.3308163875634883
P 4.199651874343866 6.181306810670709 12.493371860096715 -1.484178041603031 0.5927750329233146 -0.0985814945203399
P 2.6268280291545705 8.375931858279028 1.4533839549154153 -2.076921707067778 1.550488334794491 -0.35844906167909235
P 6.350637291239547 7.829810198472727 5.728757123598559 -0.15770683992758644 -1.2691348298478209 0.4052703929080053
P 4.804416557035847 1.2167542293704978 12.642806735315698 -0.16712170548358316 -1.2724919192455117 0.39648904717094946
P 3.805542805048225 6.152253054865561 8.329693636411434 1.5148466743314812 -0.4781971629747183 -1.0876203459776752
P 4.678081278356728 0.995960207591042 4.02950632746097 0.5968098651143205 1.2111374273974302 -0.9591019546885869
P 0.16385011263533225 5.457540630833679 3.7059404307655144 -0.15348046055106473 -0.35647908243691506 -0.6732629031667372
Ni 1.4427490640447835 0.9271878527845412 2.6972350548203363 0.8147003165103389 0.8150268466118221 -1.524554902758181
Ni 1.7958779060801164 6.48887181198694 4.762761040980818 0.4819355469712281 0.256647517559558 -0.10341311158102834
Ni 6.327338012529202 5.748069112422868 9.074479087630396 0.043770717328047194 -0.5136850714686831 1.9674901572068115
Ni 8.533717078809081 2.3382419104964356 10.316416869283607 0.8898711454162223 0.038133573646927876 -0.5850126153690763
Ni 2.260647234339543 5.103721977663954 6.9650756674451575 0.035624948292461225 0.5819599445856817 1.2488364846101008
Ni 0.7041328842474902 -0.16065065967647102 8.702199817799599 -0.13879894727949 0.6681230108370106 0.841305577802693
Ni 1.3132733294117185 1.0182610754489767 11.397016903064642 0.019333667331605412 0.966422142499084 0.01130102683511602
Ni 4.046096285243116 6.819599945079098 1.5612395563626433 1.1421765839570006 -0.03102627317818528 0.11983140503805169
Ni 5.495462090300693 7.898319335872684 8.11799513749744 1.200687178598384 -0.25812255944318774 -0.5996781878010511
Ni 5.323953258781142 3.1669683003087026 4.586650443077883 0.9085471245591707 -1.531067507065718 0.0791221002441476
Ni 0.7396118677110154 7.212574456587908 6.929499565835079 -1.3630587709914912 -0.5218071863551851 0.4738905651795644
Ni 5.296360813405431 4.725950540498669 7.327936292352804 -1.121566878126449 -0.4047574578273287 -0.9964474852165807
Ni 8.421250634516175 7.04871708278274 9.173208306240362 -0.5145829006926042 0.47163056550079424 0.16331210192950582
Ni 4.5279838213902375 0.29219401242025533 10.332531220441515 0.15489456728977194 0.1555910791361643 1.2059450845632136
Ni 8.307912849842984 7.205322363214489 4.5127898235090065 -0.579053569572164 0.4911454956052703 1.4830277300486716
Ni 7.281746175735373 6.201238721869743 6.8475354807295465 0.22474655508590327 0.46235196841234566 -0.13387631316689202
Ni 2.0404522590715337 5.049807791633783 2.550509503596305 1.493949262057182 1.7953036356058116 0.8099664013697792
Ni 2.284627247721987 5.148114954747047 11.40771079094019 1.1059551397311211 0.6349187561709001 0.7635453909030785
Ni 1.182309054962332 3.219357640673375 3.880416357809184 -1.0002185222232387 -0.1735342938781463 1.1054504321805607
Ni 3.506545984138136 2.779612118960276 2.9346653243396412 0.19212516950645622 -0.3243217809780802 -0.24533543498084842
Ni 0.8030327403485954 3.1033241466986747 8.018469005498005 1.1009101211080459 1.6291725761702716 1.159530501854416
Ni 3.8439271640922654 2.804182102391871 6.9845501249445405 0.39353639230052867 -0.2073854380996364 0.4562237440274208
Ni 4.073334748589336 6.8349573192816315 5.970889908232718 -0.6212705692598461 1.1430044791749348 1.1242009733151863
Ni 0.6686103337649506 7.5014873278886505 11.213174974579132 0.27356434791955464 -0.9161025683089254 0.8138261414355017
P 0.12694430929908934 5.358180598094236 8.158020520924351 1.2688036717606472 0.41127957521656267 -0.5833007748842921
P 8.326274533065044 1.6686803634830065 8.032828876494357 -0.4273793089919027 -0.8968676313387134 0.5682770477819503
P 1.9165585487496735 3.152700101581526 10.541625682323177 -1.1498181596626584 -0.5788365684653515 -0.3621205969934086
P 3.8228970009555803 6.2329881869763994 3.713538337352359 -0.7508829649440617 -0.12231586202280223 0.21290971035197526
P 6.996926788929514 3.9424340093760124 10.533721898957001 0.2374084668242879 0.6526907354423405 -0.5988526065759622
P 6.507197189359823 7.708267291885179 10.090928501205362 -0.10193009927759863 0.9035147043415859 0.9154250826259267
P 2.2587865595691414 8.363805704653387 6.0872474319113365 1.077682260928357 0.6190054273747533 -1.0342067062432254
P 6.896141751609812 3.8488647595805503 1.4450154566797555 0.32557750776205213 1.0413857404901679 0.19348913973351836
Ni 5.113796850811007 2.761985629184082 0.9792912845869324 -0.4943254359951486 -0.1227022988279435 -1.4374145601952473
Ni 1.594071843421051 1.1934004918863845 6.988429404929271 0.0395430523999448 -0.661989387135447 -0.15429112937781814
Ni 6.675846935256562 0.8121473237848746 9.40621561568349 1.3419515566992308 -1.0218440709128145 -1.3090856592091453
Ni 2.817533578427289 1.5547616852229575 9.21716561313331 -1.124462454506689 0.8378001357525959 0.2753054989803775
Ni 6.345690619288967 1.8886938095051231 2.685610829559589 0.5997545495649412 -0.3849684481258596 0.992247331092304
Ni 4.3712333175617735 6.957099272380627 10.365848190586455 -0.283250464859067 -0.4646150534149095 0.33845822037946227
Ni 8.249242597570419 7.306370617940736 0.29723780251738774 -0.5750359637723388 -0.4678165910713427 0.3895750936599355
Ni 7.612909979017672 3.9132441066364443 7.950372847132454 -0.4816226437164996 -0.5443997269437205 0.9475929256077228
Ni 2.9833605445503943 8.63179733036498 12.342528317929608 1.1158366605108911 -0.6846019823286403 0.7522307372212077
Ni 9.26434506414086 4.755249360785772 10.349162929950214 -0.7003828993119809 -0.20765257571809395 -0.4684359698228965
Ni 8.580751306419915 2.149669329862958 5.8014087583897895 0.4874626474370443 0.9090119800107314 -0.212613262157479
Ni 3.804526241271225 2.9154867595110634 11.676412196003223 -1.2557339830608825 -1.7091318276037337 0.37818819197923254
Ni 1.2569720337980554 3.1920284127042087 12.80935255725254 -0.4995823135187138 0.3012831539910618 -0.4548602880209908
Ni 3.2612273612385576 8.44937859116727 8.136738939782104 -1.307942803853954 -0.14484849590767956 -0.2945784882773766
Ni 5.4175043556520155 7.868158251667588 3.617346897599975 1.4729837155491083 0.15137292728975865 0.17950182431549086
Ni 3.198817606500601 8.418981518942514 3.6776046231278725 -1.7119741821485355 -0.40699843134270547 0.08606973520657435
Ni 3.417778182896539 4.099674642168386 9.29602191754916 -0.05533759623004018 0.9548174683806201 -0.6976122785453791
Ni 7.334053827939394 6.246366892398702 11.59211001421059 0.10511441054285121 -0.16035841861782058 -1.5663497273067797
Ni 0.5278226041740737 0.06463076506145568 0.567478575585593 1.5989384598760785 -0.7814567239658606 0.2218224394605728
Ni 4.62192520613978 0.32222711850699554 1.7613546740962167 -0.15111273164983652 -0.20720597509897865 -0.31786008451313646
Ni 6.025019206419273 5.778402649411561 0.2449945931956592 0.5996013118165286 -0.9253415704086901 1.1742978899715777
Ni 8.00329769877251 8.982076163239794 11.46699824264879 -0.7411942769013881 -0.5827261333277448 -0.5486127365838036
Ni 9.09534133621463 4.798117492203366 5.95625048219769 0.36175370057229306 -0.7596743379834465 -1.064283728134264
Ni 7.79999401983483 8.738627291572914 2.47056493135133 0.5333390982541847 0.18733340454476768 0.7400159403225707
P 8.537556422359714 1.540638709892495 3.5620576275321647 -0.21914360707682906 0.7577573234663918 -0.14794127590039038
P 1.6970170787668781 3.1734579708493715 1.7029303939518372 0.8788174587052219 -0.8154233107192924 -0.9725819914528928
P 4.689072874195539 1.1589462410159244 8.179408296675446 0.8050818195839683 -0.8383819763979947 -0.10176709133717313
P 8.653617145721299 1.4731733656564228 12.711181541073696 -1.0984603740159726 2.11008405275236 -1.2755263351964614
P 6.217058995649304 7.633114184085546 1.5020310698760067 -0.05820694735803524 0.9533622239913323 -1.1352343483112126
P 2.028425946531133 3.184367878527531 6.059429890270719 -1.5580257808221167 -0.01315504932471928 -1.3060191044686797
P 6.959068864698563 4.107734540686028 5.801953346127468 -0.603394974531006 0.05806245136037098 0.24651994220725285
P 2.3129548865435634 8.541314077749696 10.245518807007702 0.7142488586607957 0.032879781447156274 -0.6898835424425539
