# total energy = -340889.080486263 ev
CRYSTAL
PRIMVEC
9.13534901427025 0.00000000000000 0.00000000000000
0.00000000000000 9.13534901427025 0.00000000000000
0.00000000000000 0.00000000000000 13.37050669761613
PRIMCOORD
 96 1
Ni 5.578035046107785 3.028943765044875 9.501550566858235 0.12811627075466323 0.2580816789029233 0.8455360709442727
Ni 4.505517651683307 0.3467933832348725 6.105601458618655 0.8733525789359088 2.403042231817494 -0.6702076612801812
Ni 2.5343102861634716 1.6475510810376253 4.857572082484673 0.605832123217589 0.5797770780017498 0.5446434675234104
Ni 3.494892247644302 3.141865815695037 2.973480319845269 -0.108007158709614 -1.0787646953592582 0.008325746256875984
Ni 5.572471618484943 3.651554349949911 0.29391889597995197 -0.7135443763946033 -1.5965943851239341 0.39026183531431496
Ni 5.075088399514089 4.888078667384046 2.632760116714937 -0.7041395381409357 0.29646773488028944 0.6852779253497424
Ni 5.025647889998784 4.8161926050455515 11.574860989048377 0.991993306099969 0.9213257643810777 -0.7088461995879857
Ni 5.605057408847303 8.469665378313683 12.688156754938934 1.1184920958558673 0.1945443204709101 0.41478141772223404
Ni 2.45507940312093 5.133929183288678 11.750950324823174 -0.42267856108212365 0.6585327960454143 -0.8440594863987464
Ni 1.056768052516795 7.344519237526 11.585718351494597 0.5172213667567156 0.8388398898710198 0.17386853728911347
Ni 8.060118541269963 8.959749453326163 7.306982087932801 0.7899148820355428 0.710702278960118 0.2682606763184541
Ni 8.718978191540248 2.8642608261992737 1.704499020471569 -0.10770376853658226 -0.9485753441256503 -0.13569048355749536
Ni 1.3583990102359966 1.268762964529388 2.7508080117644043 1.0840393134946362 0.3457619531297271 -0.7815243439790024
Ni 2.0410562450013607 6.498558501634327 0.35605571372222783 -0.8322630079844504 0.4480334949071445 0.9625428620493357
Ni 7.627705925342873 3.824797110934433 3.9019816757708714 0.9385603830918093 0.61566376459603 1.1415767455894728
Ni 7.687716033806664 4.04671301210697 12.844845349757033 2.0265144582598196 0.059017101964156424 1.2163889056043566
Ni 7.356486544892047 0.6691149932085482 9.461959790779627 -1.6500414491994806 -0.8420005469871885 1.1083197833085556
Ni 6.848871734890679 1.2416492482985264 0.7185792546316019 -0.3561016444928383 -0.6528483440661272 -0.9970622359824441
Ni 1.8300114092987438 6.491140598137204 9.212613176761263 0.49739353339751113 -0.0546919922262413 1.3364686792077887
Ni 9.113725762986261 5.249710598217904 1.5089824512275842 0.02930723360454953 -0.454840490526649 0.4862706840114722
Ni 6.52236522147854 2.3098364872333055 7.076835237190181 -0.36148270629909357 0.0834999175968691 1.1156338004714657
Ni 3.417771630251804 4.39117048656818 0.6840138341118205 -0.3857652329955421 -1.2867132050512162 0.09969426796854443
Ni 5.9198249986217535 5.805550916299702 4.941779903735628 -0.050061178322449267 0.5486908981199067 -0.08680712759323114
Ni 6.456179616999905 2.2315191391042024 11.708259011248355 -1.683569148643281 -0.5034207134281975 0.8981056175108727
P 0.13495742629721785 5.597694317444987 12.674959829579397 1.136608345840604 1.3430617590442742 1.2304219866586552
P 4.149120275903453 6.057074484016789 13.109287214685056 0.11733640653033985 2.163668670847035 -1.29923370611573
P 2.4939411783386136 8.753930037328415 1.6851119825385723 -0.9221472318411086 -0.21276727123684 -1.2366671962374185
P 6.54608058783141 8.35632310160334 6.095359818704093 -1.629875001553935 -1.075315046247761 -1.3504858194224871
P 4.733919650741259 1.5618523708079375 13.089646214046125 0.3159968060521526 -0.3813974429451496 -0.8110408653808806
P 3.8842956398466977 6.326411982545932 8.274204534699418 1.3927439567607498 1.3255569173912913 1.4544853996346048
P 4.641460782152125 1.250181664390044 3.8577117738656304 -0.2126541426977434 0.9436941047739489 1.3499831687544557
P 0.15902633066158822 5.85672714215054 3.8946953213012843 -0.929403913403522 0.3339657318257474 0.38362556094471995
Ni 0.4358219282240445 0.2690168477745254 5.1960066212615805 1.136676222964062 1.3229824717958958 0.3274253596040684
Ni 1.7988781394487519 6.870604730481387 5.081126865291919 0.09364291956814196 -0.5185028045723005 -0.8612802211524071
Ni 8.591083303658825 7.41637789381709 9.846736128645455 -1.1919510842769667 -0.0486936085509613 -0.9084748765603385
Ni 8.455989760659506 2.41705808002361 10.735260283224065 2.0350759746765856 1.1381695196801367 -0.9526387155617465
Ni 3.55196077368682 4.736203488024856 5.088868160148399 0.3963257821202078 -0.2244462502366651 -0.9488514806051723
Ni 1.6440157009226175 1.331614166573973 7.3211281760674005 -1.0566886893958254 0.47320433774581727 -0.3140173137282785
Ni 1.380241630016317 1.2140878999600795 11.684887134022938 0.45397248609939883 -0.6189164672053727 -0.9940100794196817
Ni 4.173822259962836 7.145980694788359 1.7470843639964293 0.09094583235195305 0.3853924230371556 -0.3736795054756016
Ni 5.307537358238576 8.246105114296956 8.047975835200537 1.1033925212102673 0.24716014689441307 1.1984554610543878
Ni 7.05076295076064 1.1527805719192061 4.972932357818803 -0.5834000194663178 -0.8629532379794558 -0.4207674601023399
Ni 0.907712041900477 7.71929693576424 7.278636926638625 -1.5327006717937666 -0.7239496308883274 -0.7450501603123685
Ni 4.996880675574599 4.536477349899745 7.742913640346459 1.342742170921326 0.6342186447800819 -1.4801997736815733
Ni 0.7512426954616038 0.12967536742771507 9.301193176107938 0.04879208180203855 0.4399818282472616 0.2111654739673589
Ni 4.8336867986379035 0.6507693850768715 10.541253787191994 0.035105585453881476 -0.47512160937318815 0.1312059654235805
Ni 8.317031964976339 7.759583825446889 4.7294287131067945 -1.7924021456883 -1.8396410240706058 0.033150261499723555
Ni 7.233122790181279 6.438173843856027 7.237869517591508 -0.47789068747789315 0.9361474027749426 -0.11591304382025197
Ni 2.4586147832359377 5.4874671947894695 2.6776174215695194 -0.4018274286647273 0.6652821989541059 0.37096750586107724
Ni 3.2808601527747405 4.332192672556575 9.2460266297552 0.4179307619844931 -0.17832323062635738 1.8299901312444031
Ni 1.1006085930127198 3.913437403585393 3.8775537521855195 -0.40438439075862614 -1.2667650440640634 0.4936016704552467
Ni 0.5650460094045208 0.2919474876367511 0.5029274623605137 0.8449876546399705 -1.0108433489269364 0.8541271550473936
Ni 2.50517765777391 5.358156327792216 7.078225637328435 -1.323466867631482 -0.10146164428161236 -0.578345744871862
Ni 5.510360379720244 3.1430990878281793 4.940843530449353 -0.8967182502450426 0.19654643850260342 0.19236865297583
Ni 4.095514047182868 7.2523618354582995 6.131058936051453 -0.11042785233596465 -1.6854275420082587 -0.4839872872939342
Ni 0.8203178108714471 7.417337105476202 2.6151910132596834 -0.047915592734356194 1.3646883361751143 -0.6266845411865659
P -0.014862299506734789 5.985435076104923 8.234614672155724 0.46513518758443767 -0.8058037853516573 0.2491131568557258
P 8.547233627813766 1.8188480126565225 8.18611967127583 1.1240073692471417 0.9518023357033802 0.2903847619110031
P 1.6503190918253448 3.287949183703025 10.546548635550286 0.19902960993577337 -0.04332643070177699 0.1842082286522247
P 4.000268897107745 6.534734484206501 3.857912751546587 0.45443168512400445 -0.1347610297646905 1.221172185925613
P 7.0472367059947665 4.336879106662516 10.901001095499428 -0.907589902852224 0.11098038240532501 -2.4032371214371193
P 6.21908990091515 8.031798958953363 10.469280939036723 0.4064111913806678 2.31890570907789 -0.059955554618025785
P 2.3524437555960884 8.804549006882056 5.989906829506206 0.38200216640868406 0.28589741556361087 -0.2674268675632491
P 6.893781111235328 4.194532096450492 1.9102709326538176 1.4901741112854658 0.8761820779649039 -0.9750597635694239
Ni 2.6370646932270603 1.7274305738687084 0.4140761431445488 1.1325904829304625 -0.6197369062241391 1.2742433547189798
Ni 1.154479746858202 3.8401993095750098 8.400595744113321 -1.6596566036917415 -0.7315657526726885 -0.2859285259118624
Ni 8.214597295132455 9.059059833766087 11.973489256806676 -0.47964212295136105 -0.06182654638849351 -0.6979951158060946
Ni 2.817990282833602 1.6686628728871944 9.564257430386498 -0.33399015730577963 0.32268527381592166 -0.3042759180707985
Ni 6.208374136380512 2.2230689411548945 2.7296688138674314 0.0492790487407861 0.30578104186141536 0.03926280215536464
Ni 4.08877215952169 7.0631322134886 10.868550508304256 -0.7940895822385228 0.6294060538827869 0.1699478620784686
Ni 7.25057130702796 6.7551613234701335 11.745709375024775 0.3470048243978927 -1.9460013912054162 0.8053191324057549
Ni 7.6740221454542175 4.3553142412157095 8.675292951979609 -0.20056507274369328 -0.6718338840296946 -0.14405891012684868
Ni 3.2922702038435903 8.487214384000842 12.948600077550836 -1.0633218784416267 0.3827922664101472 -0.28218937058440435
Ni 0.14211954001857754 5.054972360720169 10.650518044048747 -0.4726188975559925 -0.7574595897203148 -1.0386961094731466
Ni 8.7850084950836 2.4749031107425505 6.091696543701204 0.7125437030442309 1.1801517776491934 0.12203766866075111
Ni 3.6274918403299345 3.0669011406982545 11.723260168061932 -0.14265483069047047 -2.1089404260662197 0.07472242851455518
Ni 1.2364695053393286 3.2661705113666457 12.885839315462682 -1.727350664604606 1.6732942490798342 -0.18382641983277376
Ni 2.8702627505805665 8.432612402224608 8.10299530243221 1.7355056896115724 0.6860525987322378 1.4991711725777537
Ni 5.725205520662765 8.291617423684475 3.6103575794934772 0.10754281747868576 0.07999241866424289 1.2826313216723586
Ni 3.149502967571385 8.682199275925205 3.7850035301050413 0.21163444318397748 -0.6052070880390803 0.07822452813054269
Ni 3.6381436574206303 2.6896294921463255 7.049452941694769 0.4555573140880154 0.8932071517679906 -0.5307489689295053
Ni 5.97953364056411 6.197018897406469 9.623408816031654 -0.05612101136328399 -1.933793536285315 -1.5354244984828331
Ni 8.167796901516988 0.32484296633476656 2.5605186892951153 -0.4142124325926415 -0.8625403188117531 0.3580531117922543
Ni 4.57584156931982 0.566124894137292 1.7743597759069696 -0.25896665261103785 -0.13528604903022506 -0.7777592205096153
Ni 6.1915650939732405 6.01285025885722 0.6022259668465639 0.4167264572637468 0.801874111279948 -0.1659163723215723
Ni 8.513496783460475 7.320648570237846 0.44869820282896344 -0.7375481955083685 0.5994850979536385 0.221456828591038
Ni 9.04723869198619 5.056936460784061 6.09235154823414 0.3797131132641912 -0.12129102030271367 -0.14663078461908297
Ni 7.292201093033363 6.419976228380327 2.938035165203846 0.1968480289034223 -0.45588255863791805 -0.7548653466305775
P 8.899666262069296 1.943783047418404 3.919216425447807 -1.2542136897616143 -0.023705828257372077 0.06378109901170305
P 1.6954020398035463 3.6313560930137805 1.6676634656918925 -0.07836516747346504 -0.9719646695838681 0.6673557936536829
P 4.654633955603912 1.4475417470893486 8.397172728792667 0.9820328524531474 -1.6565609954855536 -0.3276755279416615
P 8.600848991883487 1.8413301068762498 12.939294810922549 -0.28974430011352675 0.7085464089593798 -0.7991199455735786
P 6.364771313561224 8.208677588893371 1.546874052367196 1.3115364347424832 -0.5491806932721316 -0.6302845998329983
P 1.9165048949031234 3.4918410410334166 5.95792488572163 -1.1578328024370188 -0.1479361336940678 0.7328677593135637
P 6.7897751613403265 4.469798436567852 6.424153823539482 0.2395041730110521 -1.3387538756975397 -0.6976151067588566
P 2.6150119604166493 8.785748458363486 10.490084869620464 -0.44452728152609894 -0.3564050346658701 0.6433332054868405
