# total energy = -381175.21718415857 ev
CRYSTAL
PRIMVEC
9.18416028632446 0.00000000000000 0.00000000000000
0.00000000000000 9.18416028632446 0.00000000000000
0.00000000000000 0.00000000000000 13.44194692818031
PRIMCOORD
 96 1
Ni 1.1886324124767957 6.727057708426628 6.650376397664219 0.6284357195497177 -2.120641773663548 -1.3205646063830225
Ni 5.57017493859121 2.781422989280011 2.756029704079217 1.0154137419064382 -0.5411745351382035 -0.6362752701987945
Ni 3.5446818268137887 3.4549801317954696 6.686077984542965 0.8363474624664694 1.3146906641007488 0.12853561768026897
Ni 8.865506809456667 1.3966260939634207 0.8736083620534977 1.8033517027212684 0.5011627706319562 0.2154810706235773
Ni 1.834021734922511 7.081299960761181 4.203619622740718 0.1603825869875367 -0.032114621146357596 0.27370061638710286
Ni 2.565246220841269 5.104115532898612 5.161196926865833 0.5660041925873736 -0.7775093092823384 0.3800949220836422
Ni 0.7961509897339012 2.3636447150209436 10.883622285152565 -0.35353414087597823 -0.28019059498682064 -0.743415710032739
Ni 2.5360038540000356 7.470570601014222 11.810269173747562 -0.4115824511689621 0.16383892096725333 0.17311186162874706
Ni 7.228540420936638 7.904476261006079 11.338456809955291 0.621616382635039 0.7255090049556472 0.7260178262712658
Ni 3.2367920322203494 7.6802357997009425 2.415732680956891 -0.4222430162066018 0.31784568633543325 -0.3996944414821245
Ni 7.268059863310327 5.130088338623174 11.741029788189753 -0.05760942298335239 0.16265107130673925 -0.9722814294933384
Ni -0.14679778364224477 6.117532532499449 8.785468688053406 0.8798453857491041 -0.4088707086647539 -1.292537010821845
Ni 7.261667687644027 5.163803391598729 4.835001263683215 -0.30384114452622507 1.242554508256131 0.04583814138003719
Ni 7.359726968662825 2.6211226529587512 10.330082832852108 -0.33632111943180143 -0.43789692069377495 0.7166723805006238
Ni 3.097201977691484 2.6420992754039077 11.508107540020603 -0.2253314810550958 0.41228719054547064 1.3760762662970818
Ni 5.387520355758782 7.74191662121656 8.186938789005097 0.3214575720564077 -1.6867161789126952 0.5717660347718153
Ni 6.307534443683945 5.2064546326824885 2.5728828502472005 0.8109025400308034 -0.41726278938319106 -0.3351019023127197
Ni 8.056189407315859 3.375996352010731 2.016466918896905 -0.5167323429354391 0.17916655246325916 1.2427314001536274
Ni 5.67816229704574 1.9941475721954083 11.818697477783427 -0.12476818021803673 -1.133679088008951 1.9591749524728965
Ni 5.754546959425935 2.7991943397315766 8.56625747300526 -0.6205532314778475 -0.1540486743497089 -0.5373299645811327
Ni 0.36662984793614056 6.557968130564207 2.311154482857721 -0.5664723904730438 -0.7748063085288786 -0.5337157648673131
Ni 4.431045150886478 2.130651748816405 0.6101607198296339 1.1147022897961318 1.363317938190149 -1.8747571510474486
Ni 1.0208010645946661 3.796089034700699 1.291562972193014 -0.14815159213898357 0.5311896560113496 0.5476143772262763
Ni 3.582529751987382 3.8177728374997417 2.7109180264135597 -0.9795455672549195 -0.325269232493014 0.7332562530012339
P 7.537192500846604 7.604007268048229 9.110293156082319 -0.5680135097079185 0.6657059167550857 -0.2893450077925791
Ni 4.188197580529726 5.6338762754036456 1.47612786039698 1.6864323291236891 1.174934238003996 -1.087335981968037
P 5.229800768521186 5.066892130634944 12.831077585670577 -0.08884138441444055 -0.20084763698111863 -0.10451174396184582
Ni 5.54876666060537 2.081341991413584 5.958331540182868 0.1614987028698509 -1.2725752229879372 0.5730197046732584
P 8.672584335252221 4.170619097447402 9.957821257734105 -1.0273328619415276 0.5137838018300764 0.019253191802657162
P 4.808661091541048 0.31591307715389827 7.055892899319728 1.4597998698689827 0.6539081527892093 -1.7635355991655952
P 2.254564441474044 5.476533238744095 2.6864404020086425 -0.40120496458938 0.03038941092513476 0.49339649642297606
Ni 6.30591803144649 8.17941328794049 5.898770422896823 -0.8988049575707425 0.2876478225958143 -0.5078499528441448
Ni 1.7585738569072056 2.7294590095100046 4.999987358661006 0.048227724658136295 0.5172388502582125 1.847541509864605
Ni 7.979988428144466 0.4567411565100873 5.181709749208765 0.22838852271386476 1.3163721655682297 0.47178637435236814
Ni 2.763826137876806 1.3582822241260621 6.788694445972133 0.5645571757282019 -0.7921499420136486 -1.7339180334094784
Ni 2.6097802148152454 5.756392975674392 8.300630429508963 -0.3522516746191288 0.4356045251151724 0.1763977314688704
Ni 8.514304514227781 2.5509281147151754 8.353000349170422 1.8113069530126031 0.21999541355416305 -0.14280421178414116
Ni 1.6403369754015398 1.6023329195004645 8.759834777849083 -1.375572844298102 0.3704070053719169 -0.6549119114633754
Ni 7.38164037547287 0.7633635369627946 7.676078130269715 -1.34151858292687 -0.38889272288093024 -1.1257626613753515
Ni 0.25495872272909226 7.48526525771836 10.71676721352522 1.125955751222764 -0.6281708959241052 0.2231712401789834
Ni 5.597047792038901 7.548911489568154 2.515378066483691 1.60406009737336 0.9956797538126206 -0.6577830623635832
Ni 3.9538086219382946 8.476502509856388 4.8116523725963845 0.225801735823295 0.9884251291327364 -1.5124056689901566
Ni 8.928170336139372 8.239863431957136 7.1187878668455244 -1.6857409594836195 1.624636378862815 0.5226062852177129
Ni 6.617178412921441 3.2308682487364937 0.2470263633569901 -1.5976850470849515 0.7472836776285776 0.24094219100915923
Ni 8.515930110625677 3.19517860126632 12.490526161304063 0.7700657085200996 0.5576995293764202 0.4499664502637993
Ni 1.5852595652423447 8.100870347856876 8.565611826526322 -1.3712184239841483 -0.8732325084182768 1.1849327439776045
Ni 8.50772865535268 0.3018925378260631 9.838806477839164 0.5718161712834603 0.7039929852607424 -0.5128301796675555
Ni 1.254436922030011 4.624399280631605 12.430857589340869 -0.6490410545048951 0.4766917820737855 -0.3958285307688151
Ni 5.433643209488894 6.739741033994387 10.773518896132641 -2.0240009478093466 -0.7321517070831455 0.08200379266731683
Ni 3.298546327019486 7.727332174437703 6.8041118961029055 0.08455766943742211 -1.3154661088141926 -0.26405743687038397
Ni 5.8669794515334655 0.5502046836446653 3.814690633256049 0.9009315169954419 0.11250581791091592 0.8672194694549774
Ni 7.073869974965152 3.58337469474787 6.904429562173919 0.4332437381924797 1.5342610743023513 -1.3965021382516014
Ni 8.740133835289054 7.182123674072445 4.8883391938550576 -0.4983132169983031 -0.9554800416652836 2.0767031632990687
Ni 1.4000334174866924 4.809359087734495 10.03003171919428 0.8467133790818256 -0.1475923772014039 0.3733941130246989
Ni 2.8021608235537245 0.224238624473049 -0.0022758349570532826 -0.7105580400727699 2.2270425071179902 -1.0505339826483393
Ni 6.765364841622227 6.738840986271259 0.09995764698176275 -3.170078152372334 0.20854706250790536 -0.5248567718147864
P 4.531391287854856 1.970893277961111 10.101878487901027 -0.7712476446433428 -1.2401780376041545 -0.698485425178952
Ni 8.248588384375218 5.165465724638386 0.34612437292156084 2.085047421498706 0.04629116975705576 1.4994866469356432
P 0.5230654895442115 1.2651915739053514 6.694492512338172 -0.9167443156579825 0.6496452637477973 0.9812833758816326
Ni 0.2753245985049827 4.680835946535933 4.203740853658528 0.6193571542872172 -0.39697601410969696 -0.48723741880011573
P 0.36763735033641803 6.929375578761281 12.870059754658522 -0.4921279141231976 -0.7050522797631922 -0.05681520921683118
P 6.247938426588228 9.12146936092186 12.960886509330752 -0.5797588231693048 -0.285949608957785 0.7245093600465394
P 2.4067184274849462 0.35319433962833896 3.361253019256261 0.43919789889338556 0.3799062031116037 -0.7774738280587126
Ni 2.1342427555484784 6.32197194389576 0.5374901319314104 -0.07274884972795213 0.2653841261016075 -0.17641367230847038
Ni 4.432900351295374 8.94841222574932 11.519829283990285 1.0940666158236512 0.4660181044100232 -0.5362377599582184
Ni 2.441434553948471 0.4454079025270213 10.563219990375554 -1.152304416419622 -0.29348268411003653 1.272442039844183
Ni 7.1424756534525935 6.320750450557229 7.075827119554934 -0.2911339813722018 -0.3182688899157809 -0.09220695845256377
Ni 0.5683415636817469 2.1827810434743324 3.2964220307096945 -1.378216452568536 -0.9027901674707355 -0.8283222781691477
Ni 6.873379752558077 1.0388938606616354 1.6451467202240126 -1.36779937100027 -0.4907593159104451 -0.13480113897400653
Ni 5.39052357622269 4.069042282980052 10.729523093960452 -1.210093302403632 0.3277112662756034 -0.10885562275283835
Ni 9.060752876252453 -0.4109627087964791 3.3482546769854076 -0.6049479208404227 1.2067986908127601 -1.9321793977206598
Ni 7.257801156098751 2.93320960887331 4.360742239549707 0.695926406202524 -0.9775089964408649 -0.07143295913000601
Ni 5.1681566836473305 4.250888659693753 4.809273675042402 -0.40396530094333655 -1.530287948587216 0.5003999243240027
Ni 8.289751791467683 8.193859972312746 0.8231349715229176 -0.37963855127251395 0.4146281799738214 0.3162390039699457
Ni 4.3863550261850195 8.08001311949744 0.22316683294969097 2.417897294552455 -2.671650521283354 0.7194494290251288
Ni 3.2056026233658175 3.4173067056702373 9.195810547604134 0.046527968358210194 0.10596030348291428 -0.6777667045743618
Ni 4.432937087937135 6.147867814433052 3.837031103526558 -1.0501933114794686 0.5209301830668707 0.7746512710082529
Ni 0.7163645143266991 9.098766116313968 12.50117244008621 -0.3422202585250558 0.22495789976576097 -0.7647057297597669
Ni 3.4278225693741358 0.028206393543591776 8.573999720256253 2.0850001132005382 0.8828769734865762 2.187286567376291
Ni 1.1897436958900458 3.920938511723227 7.317809541998229 0.28752158143059514 -0.14150889001148534 0.0639937292431414
Ni 3.865870285724472 1.998060024542885 4.292175134536115 -0.4516610643574028 -0.8481107736499846 -0.22219782052212053
Ni 7.876639070712178 1.0756029499406585 12.120657059980703 -0.46843417005068355 -1.1185124075708415 -0.17318796628232108
Ni 4.743866839636242 5.098687694078521 8.260224715652805 0.8287897047238694 0.17908196316925287 -1.1543911237453217
Ni 1.320213879101906 9.167160559111286 5.138103355439237 0.12219913393927985 0.30425586346614053 1.2678500495981262
Ni 6.754582637265566 5.466329636495159 9.310174468652216 1.1667679001431195 -0.7198878021141278 0.29829758900017656
Ni 5.944640712214832 0.37739552080400923 9.534493913737139 0.14425457107742254 0.6422340588853906 0.9957296332139496
Ni 2.356177992583154 1.9065674182387493 1.7004335292412416 -0.055143477941363095 -0.6825664399558503 0.41764459820264205
Ni 4.5275523087908995 0.5078813170886175 1.932615534078921 -0.7752909614747809 -1.1104252596873327 1.7149373785419173
P 8.806039370607111 5.073118991413321 6.398944392544121 0.27400117834665716 0.04388076054335024 -0.4172195948500815
Ni 1.2531970603705993 8.676414130155738 1.4962769899864845 0.9569735954916744 0.6414272467133791 0.16119608402776753
P 1.284588520754813 2.087761719561204 13.02606649597404 1.0435896901200221 0.6507528949896794 -0.034289260200173206
Ni 3.1740917688958827 3.985631737863192 0.2349987868446536 0.2752995854431065 0.1373197916308022 -1.1268592368736399
P 4.65376104155856 5.976298513251808 6.0781260552991725 0.1229079870808464 0.15434383699262452 0.8561439283671062
P 3.460591653824362 7.18268390785929 9.817501062450253 -0.04553577964826997 0.10344113660548637 -0.10182082739324398
P 7.608828952279275 7.031136076437432 3.1663045192587336 -1.3196310388251595 -0.4295092108507119 -0.910846719226625
Ni 3.317428960884303 5.297341084397579 11.309624056669687 0.9685561581229513 -0.3646485056215849 0.410246505966358
