# total energy = -381163.99373677233 ev
CRYSTAL
PRIMVEC
9.27912345654538 0.00000000000000 0.00000000000000

0.00000000000000 9.27912345654538 0.00000000000000

0.00000000000000 0.00000000000000 13.58093512682705

PRIMCOORD
 96 1
Ni 5.674313871006542 1.5519426689163538 12.436714455120544 -1.8198175615867758 -0.10317631297987391 0.08816312740049333
Ni 1.309451336925567 6.057105548908655 4.659591619202873 -0.735985736117255 -0.9693899668781563 1.7189102471467363
Ni 1.6083226227362757 6.200811333110289 2.4762250165229767 -1.8904609349359507 1.804270357880796 -1.8365749835507725
Ni 2.015898839258042 3.6673322693424675 5.903958256640567 -1.9671602846712184 -0.49077577097067737 -1.5153495821098288
Ni 1.4308129919635457 8.33842443409577 5.255604562221256 -0.05777988712294565 -0.04050721608542701 -0.5492909935977508
Ni 1.2187850221173941 4.1629209713780515 3.189523295666717 -1.5243227321427169 -1.8701988422528049 0.4794886280926323
Ni 0.5340386056964815 1.0782712563677106 0.6789534596780264 -0.6798873504617904 1.2836610484884539 0.06883408805457823
Ni 0.425389349725865 1.3776900104594225 9.949950210232085 0.949132759291017 1.7095974543862427 0.5663271231444311
Ni 8.978795298648182 9.074193966393839 6.867797507330523 -1.282121986136108 0.2239196883092337 -0.41980869573349633
Ni 7.613567150924137 0.838467158515543 13.165860549130814 1.8790259536261318 -0.5597872651433843 0.5852645834788823
Ni 2.752754028994711 6.497307163328849 6.751815888043826 0.8222465042887129 1.5308487061866927 0.024505441340531987
Ni 2.8543511511761337 0.6006135324034918 9.0576548568335 0.5466522704233231 -0.6793541036661397 2.3779297530205823
Ni 7.047670530834973 0.5394167856230824 10.922508125275101 0.37937269920563693 -0.6247109623999627 -0.988622332745207
Ni 4.5521894774181355 6.375527947737563 8.755927456838167 -1.0637342833886971 -0.2321670159196905 -0.4265863807769621
Ni 9.113426100157932 4.893113750508615 11.20276363370702 -0.3265483563157538 -0.5181518489907851 -1.0417492944771736
Ni 7.664982773721403 6.197507965177457 12.889475363071886 -0.0535715054685529 0.0854758103763173 -0.5635742429896423
Ni 0.8297290080033276 6.330217988141993 12.63814659394843 -1.4916944045847342 0.8218441266439717 1.7751742118457878
Ni 2.9199174371688215 6.9301782702576435 12.619744236408 2.278081733082993 0.9849587678506907 -2.387862952973894
Ni 0.21847974435092302 7.396342871970159 10.77603716229823 -0.33878269359841656 -0.09337578194968435 1.5987751948253368
Ni 8.845361504057912 6.473348466692404 8.77231995624868 -0.464660047720232 -0.32613286604488995 -0.2680151359665513
Ni 4.727091674513545 7.128454579214869 5.592765222857924 1.9953447175252348 0.8858579104917712 0.28773524010329804
Ni 5.251649799825264 5.745215652958159 13.368053576078063 -0.8986092966201686 -0.49971935331721035 0.9777329395262129
Ni 5.016860140262149 6.367575738977906 11.041924876047007 -2.6491685381307537 -0.3225415491492058 -0.10049696637549789
Ni 4.748034656042768 7.676006372328722 1.8141957500266745 -1.9560248368796893 0.274656809652785 -0.351316307289053
P 1.859991007776421 8.70953369562868 7.343795196117259 0.8792118659301632 -0.4161952673506252 0.023793759985488053
Ni 3.765858001676228 3.7484132496713807 7.314406356463135 0.47791228474444786 0.34561642869079834 -0.7294286517250277
P 7.453279573194491 1.4259692895451785 6.270399191187498 -0.06229680115669271 0.4693366272602949 -0.04906204763397357
Ni 8.168579359257086 4.9394629719257495 7.198425665088779 0.49927198136714657 0.16410605858571092 -0.9352441742343828
P 0.9799125482552727 5.382847325674487 6.705125194885319 -1.6429706583956287 -0.18062205396286313 0.3705065070642587
P 4.232152511116438 8.68002608319495 3.9173396912927894 -0.5168215602151358 0.7202505847701853 1.5315606446520527
P 0.8136343684541744 1.543832715058781 2.953119996543154 -0.7521500045819433 -0.10033730086918204 -0.14960323698384556
Ni 7.961079601633469 2.8245837232870112 10.648811101267132 -0.3218432375306005 0.6019659553939632 0.3957881644491829
Ni 6.321319308794839 7.889240628217761 7.353519717447621 0.9103173290857162 -0.040248048886769396 0.6414814969900823
Ni 1.8197103330673556 9.301950050414574 11.234515866092865 0.416370873696541 -0.6239877110806931 0.9159752987024419
Ni 4.487513987272504 3.5573932152183008 12.030943028101408 0.9466688711315567 3.2692198902715175 0.6613990618496157
Ni 4.17763766110129 8.788248499488851 7.3525416978405405 -1.3149539450644643 -0.37482467482363835 -0.7596020899846143
Ni 7.006953737325786 6.899807699347077 10.642781526877373 2.7826902961717046 2.068860527326198 -0.7530686597414707
Ni 3.913182644006528 5.002523894598592 5.096178087143763 0.1544829336736501 0.7996398226327907 0.19324051405782203
Ni 7.968549295975969 3.178925608823772 13.109567819070916 0.1013999378057415 0.8150181048610737 -0.4093373638885273
Ni 6.91990628064628 4.914696991552909 9.473788280961047 1.1267029138014337 -0.3649709219580101 -0.13933605072988262
Ni 3.394396133453859 6.767014164271878 3.777251837307479 -0.2916186343181042 1.2446345307136113 -0.6144990548639676
Ni 7.906935916554594 0.8135109561128636 2.1284722365174082 -1.9273773483463257 2.023462558807373 0.20478271036946666
Ni 7.775348667522284 9.160174323881561 4.6349147184147395 1.0735517836997512 0.7101417784709576 0.6583327642194662
Ni 5.2417860916437995 8.424414070706899 9.409740987470059 0.3326994635188141 1.3202553026727197 1.5020348672787938
Ni 3.0627324255233996 0.8853258038077128 5.416240107078659 -1.8105397358292752 -0.821802731883075 -0.38932698220487144
Ni 6.714355138938097 3.2252841093643134 7.613092059805707 -0.5910585644528401 -1.1428836373263542 -0.6717914608275334
Ni 3.6545641955346637 0.45753501694415916 0.5983215889220037 1.804056956318409 -0.6080448145981915 -0.4401042127577388
Ni 9.284876463346 2.7702544557399995 6.873338071916743 -1.1641826559144468 0.6532867171551265 2.921526524447033
Ni 6.845088708616978 7.151476084387222 1.5136226729831523 0.46745920773192395 0.23033150537284847 -1.181970576025487
Ni 3.0214774428566167 5.382151391418974 10.875178100513864 -0.7416509048228324 -0.537050742777817 -0.751883124073802
Ni 4.549220157927948 2.0087167977411524 10.410113074925059 0.2799795074172791 -2.202671534472793 -0.45727583944101896
Ni 7.479734354027373 6.81800294739243 5.63938817841556 -0.6996596479927112 -0.830356534990357 0.21665709320954943
Ni 5.196002896754482 1.0934611813846975 5.5125833895871335 3.048648035388595 0.32625705032758007 -0.19497549447105775
Ni -0.24608606439859412 8.340892680921987 2.0244690376365937 1.6770467741437312 -0.8424211794643749 1.6795330309006946
Ni 8.649117323126784 3.4964015370651826 4.829502575817747 0.006030008244163809 0.9686890841563899 -0.3522624732524062
Ni 0.6593652301662004 4.061685735009495 0.7517973621586936 -1.2231228818940807 0.3027008602741948 1.1479476821128232
P 4.02413312258204 3.936426848140646 0.8873959762397774 1.5496969492414472 -1.3004716922878894 -1.8045539505594856
Ni 5.1830306822317285 0.832356855752143 2.6645114212204035 0.1777817563005906 -0.16715410138341535 0.35031023462204186
P 6.364040392959903 4.808070584484982 11.611142494403477 1.1612698531430259 -1.0162478077719594 0.22105110851218707
Ni 7.007519763853603 4.733986063204822 1.1299856669386765 -0.47600529752972215 -0.5696893547484446 0.35391440703353244
P 0.7020937376299885 3.3111809547413737 8.9147025374525 0.07089045636297468 -0.06855769446474 0.5967324749091658
P 3.9030127247526383 9.260592997390317 11.942924975113543 0.12103468131753349 -0.19053468509088475 -0.7125730136202696
P 3.9452976901175796 2.9854930022849153 5.101650914129115 2.2365627879035994 -1.707126624248247 1.202302859824936
Ni 6.246956413812474 4.188345769512776 5.016104819616833 0.11076363840882861 0.11498359002744714 0.6231675291722428
Ni 7.8406829754298 5.361542458332396 3.314426792109084 0.5750385348754999 0.14029455798840998 0.47824472838320214
Ni 2.729379917132897 7.525016476252722 9.674813994183717 -0.44804686464358323 0.13087763554988427 0.07236421269502376
Ni 0.4208722724514183 8.644106596487095 9.023580987771265 1.7550941532664612 0.3467389723310157 -0.6831133135982558
Ni 5.837283115400763 5.374858000421203 7.296248967780643 0.1511574688448429 0.11038620046475182 -1.5825132244405198
Ni 5.619947486965904 8.053796602714552 12.525410812029445 0.22474295554147747 1.0864458660535998 0.8540032278750196
Ni 3.300064564899987 4.746076761003927 2.6177251530908068 0.6553767669149358 -0.07428148432239466 0.10365685216071825
Ni 2.0869212498139476 1.6470072882193656 7.34742147754465 -0.6835701986300162 1.5077684273284613 -0.37116393814259946
Ni 6.99044617678503 2.18772964650579 3.8373879802824877 -0.664098977279282 -0.6648661944626097 0.8794602344955436
Ni 4.799821443776308 1.708045361989518 8.049298083686919 0.34900719953990217 0.04013800567146636 -0.03341354246343923
Ni 4.89066406192921 4.010863976110267 9.187176572995448 1.5508578023187678 0.4257196619012927 0.7769051000394361
Ni 0.5171246195505049 1.4040891165518645 5.228565196613743 0.7772105470949969 -0.9138276562318197 -2.3252288230824405
Ni 8.858584254912651 6.334282244194187 1.2904736737339106 1.5082003726595574 -2.47324851762925 -0.6718680797017397
Ni 6.094500416238195 2.3585768666724127 1.0385436174136926 0.1633874352521315 0.6105909780588129 -0.062129422340893005
Ni 1.995299185294871 5.333111224213858 8.640448766040121 -0.5850635232116699 -0.1973743337205375 0.6195510154655781
Ni 2.865569611374996 3.3669577655398513 9.577207822979572 -2.4030838836887063 -1.6774434953615176 0.4960498748854232
Ni 4.95320535369127 3.153918371242355 2.959204317761015 0.8096516983428379 0.7262970480745814 0.2706461458314952
Ni 8.47613590457659 3.2496139709370317 2.390461790522975 -0.24708455646147123 -0.9496122700305969 -0.5975927660269321
Ni 0.9485398320167677 2.2941240754885457 12.145077173917802 -1.239089689635982 -0.03901546203124894 -0.19443119193181352
Ni 1.5409654659260694 8.418503269096744 0.42636644142060454 -1.1446569271766933 -1.1424558057603165 -2.5783017359168627
Ni 3.203886450788155 1.9107292545649879 12.578906814294523 -1.8118674535017636 0.28475481731873536 -0.34705418957858936
Ni 6.262452549901886 7.910517658189631 3.5641122284771893 0.01160544544941227 -0.15846942912522385 1.1319086263720892
Ni 2.5198109149895562 8.943618141812875 2.345359683291719 -0.2928800175290311 0.2565048213341066 3.1353176089626973
Ni 2.3232605229860037 2.4009360650246085 1.3662145185421912 0.6312685610128225 0.9683095893297841 -1.691514885852919
Ni 2.814395245786308 2.322527472236864 3.5125731933386124 -0.7812551494780159 -1.0080009943821349 0.545198568695932
P 8.761765881285747 7.16408641309711 4.033293473209266 1.0611007024205918 1.2025581703688515 -0.9916148397146277
Ni 7.752540582188286 1.3931304718083939 8.737389624095995 -0.5275289193303108 0.10580295196944359 -1.5129862240839749
P 2.9018138674020886 6.9096621284051345 1.0307194605570502 0.7880791143783847 -0.19939033570930179 1.5703580771352246
Ni 5.557777360140117 5.605611241302345 3.2008902218400883 -0.7285200238678292 0.008620651789475476 -0.18665823285461403
P 7.585933921418586 8.603519710705603 9.179299525135386 -1.0375997910851744 -1.703603441586337 -0.43924623563281767
P 6.1239616330548925 9.270428868201561 0.8857906878903952 -0.45400925287460525 -0.03807392405358604 -0.07822349968927819
P 8.802603303399222 8.367208274903769 12.795794261068833 1.1111467112343896 -1.1055738451323023 -0.37756495657293687
Ni 1.8192278186502004 4.3704485663718895 12.589784730664356 2.3996527465199704 -0.9242305967326986 -1.2247779009990005
