# total energy = -381166.19543528353 ev
CRYSTAL
PRIMVEC
9.20736405094455 0.00000000000000 0.00000000000000
0.00000000000000 9.20736405094455 0.00000000000000
0.00000000000000 0.00000000000000 13.47590798317445
PRIMCOORD
 96 1
Ni 5.114432786001058 1.5146665896640878 1.1923849174370795 1.2519431485598826 -1.4841914113394696 1.6025811988349885
Ni 1.6511657580334487 9.217307755224278 7.641513477276601 -0.6778554076334261 -0.9047647746986031 -1.5217130624340114
Ni 2.464516654238794 1.6141337408205265 0.3022980098304576 0.388344306576628 -1.3453412991070703 -1.1264784564954535
Ni 7.440995508389725 9.052238136976325 2.1462945087122276 -1.0559327850664073 0.8056199514756255 -0.08070435712960294
Ni 5.902159588744553 6.091352500154579 6.454029639591496 -1.2766864169428334 0.9555679733933995 -0.7449326608978977
Ni 1.9678254139227616 3.417064476407579 9.424106066960714 1.9858408917998576 0.2700311379553156 -1.1663372403636043
Ni 1.3868223432689055 9.015961123595192 12.392283015177515 -1.2508362886489488 -1.059453910845788 0.12364846479129672
Ni 4.56246053341591 3.5275896714906017 5.22487879775538 -1.6627234155425232 0.7870982385223542 -0.1966066023165775
Ni 7.693838925765173 2.497451394559685 3.3971553936578274 -0.3244518787980412 -0.8597175046509774 0.9235405126442096
Ni 5.385267392246236 7.636955832194454 3.2324393381798835 0.6945984314197199 1.5890191438798376 -0.4430787220050305
Ni 7.32557199576387 6.304852852002723 12.253319035518274 2.3036901776797163 0.9314780223237313 -0.7837797156720824
Ni 0.6111111502874353 7.533557136694426 5.145654035918338 0.706205676641345 -0.06214536318049296 1.0203947400607976
Ni 6.59884397821073 2.3537888971521204 10.07501973022919 -0.48866643793715847 -0.2679827400667191 0.5947655809907821
Ni 3.0000261403453976 7.899061857555035 13.459103429496865 -1.4066752221298613 -1.3520927588982907 1.135804876102702
Ni 2.977974504038847 8.314986102597135 4.345953056549929 -1.8136374009179927 -2.8975728418449127 3.2988220294086665
Ni 7.561750084657123 7.113526407396492 4.310242296042639 -2.6239848397762744 -0.8389432482181035 0.6065229786370264
Ni 7.886282036597418 8.940497569871395 12.991017627041874 -1.2841953237253692 -0.09292661022740771 1.0154757054926253
Ni 7.7870082400808265 2.405294890262286 8.030468433005334 0.9295982888025152 -0.001918042958319277 0.11800952133796451
Ni 6.415976525732897 1.8381949389499295 12.552349351935288 0.3816203575892331 0.4036439130481758 -0.8809180499879926
Ni 6.030003835139736 3.468064064508617 2.2399923257101344 0.7767894003971784 -0.19147108086222508 0.7214150373919317
Ni 8.83532185315752 0.9498776866661132 6.19519775279902 -0.04983337858235934 -0.15202110239671884 0.6975713980051147
Ni 4.46131764204745 3.9303013494763763 9.875387509740095 -0.26996943147944474 -0.6819684013605352 -0.6180353501520001
Ni 0.09178360606340473 5.859722848979671 9.821321869492888 0.6287097991467108 0.10462101584620047 0.930384017928604
Ni 4.421551037785239 0.2596762020531484 12.977757181693775 1.1757019694079558 0.060431208702863656 0.6258887847581479
P 9.061620440690886 7.90750501016176 7.3051141541315 0.548865733134874 0.1580490537583536 0.8599419619569576
Ni 1.8154067135391934 4.601822013670819 11.399526635284008 0.17311468984222445 0.42596623069445994 0.871177682771777
P 5.229653736623263 0.4699530558341015 9.378719287833569 0.5621138563940319 0.5568006717112347 -0.3241685432296675
Ni 3.1514320307107115 2.704230370832137 7.552383433461025 -2.9597482869323932 -2.0165941138223142 -0.856725511902189
P 1.0177451652529974 2.3570575113019427 6.917870847333619 1.4553030104398936 -0.00689929822299457 0.9810404066328909
P 3.1707306652403693 6.655763901236659 6.053552588800543 -1.6402648294286912 -0.9798558994064867 0.6333460123671415
P 0.18674006969308818 2.8826322518658465 1.7810301000468596 1.0736384298762864 0.4649089305062445 -0.36249854915811763
Ni 3.301594926962712 6.650036920951617 11.154372287419877 -0.429945269946866 0.2791721810246353 1.2117382942062227
Ni 1.3669436448197014 5.940784479895277 2.510332496519127 0.6232498044734041 -2.611815294293276 0.6106907368614708
Ni 0.206820409409563 0.8323935660212989 9.154601924784972 0.0676251553481416 1.9490648606220884 -0.1739073609468489
Ni 1.4887294458329585 8.433954450286883 10.032826985605068 1.2238548749640987 -1.5791674478967384 0.4442984533447445
Ni 7.335387045577141 8.332995706194469 6.279031720955504 -0.7992544142689139 -1.093556508956452 0.766187713621932
Ni 4.737768740212041 7.956414526679672 5.849513723995661 0.8819827438070811 1.4127252849786829 -1.516669329362517
Ni 3.5329667719511555 -0.014290749357577417 2.667313445666744 2.674706020280226 1.6832354194529462 -4.920928699871093
Ni 0.28929076698692335 2.7791414827277947 12.89450327745684 -0.2900898563784036 0.00877671775136553 0.6309512868827197
Ni 8.707661754038384 3.4722902444938812 6.006414569078197 -1.6703580492696462 -0.4011463434373027 -1.6676177675203474
Ni 6.905771450560993 4.889100971666935 9.575197986220369 1.4448159948656407 -2.3889075921883247 1.972428217938377
Ni 6.741871167515935 4.550804010842176 4.915835473203345 0.07561922929721171 0.10765080381145976 -1.864872544943885
Ni 0.26242644162090073 5.068773468905365 13.37597014172574 -0.7783636868628336 0.19173719003941816 -0.09695270066766529
Ni 0.19866084360794897 4.360533837867279 8.05870097263238 -0.6287010573959625 -0.8184803523780613 0.08502689576435678
Ni 9.297872188494559 3.2892018152847924 10.417186546060062 -3.0591332511906346 0.37229008132724273 0.4089136460875474
Ni 2.707416118707739 1.062032585142146 9.442393732944877 0.7853719998598668 1.6329448987285102 -0.4410506358314081
Ni 0.3305682996490941 7.340276155756171 0.4007615583324439 0.13174358309460538 0.486056511118137 -0.26376870198537156
Ni 1.3796866363221092 6.3806847002786125 7.517332840938361 1.264988668889931 0.5108388602691396 0.37799304524929095
Ni 7.381184473129869 9.294281316611652 8.609986355877876 -0.455130510963242 -0.1222091612416089 0.44241820560289613
Ni 6.344490553171702 4.756339993001316 0.49683763740048914 0.9420072039898292 -0.03042514925907663 -0.8644323936281436
Ni 0.7361526751411921 2.6363813069728574 3.85563239124872 1.3030325110365302 1.1303608222689951 1.2132714430212976
Ni 7.254472732482372 6.648536120651839 1.048510650662062 0.3899180788216511 2.8271562397945633 1.082674829046942
Ni 0.2654271214840761 0.8177529368392332 1.0646088055340346 0.8886660693645276 -1.709857650026165 -1.0353652453277007
Ni 8.633864733162808 8.165246745080042 10.958015126235267 -1.1505156999503152 -1.743197144718559 -1.0585519678568092
Ni 1.5526930021676602 4.550527789928107 5.893405227241309 1.0748386208319747 0.41253427355927014 -0.29674875645581794
Ni 4.076164406832695 5.949816903785351 4.186411539528887 -0.21793133193628272 0.4384941879581416 2.1328563134518688
P 6.174623898382741 5.7119814894076795 2.7318625903392735 -0.5519659693267526 -0.8738642284650048 0.34649368908942907
Ni 1.6767253999486829 1.7140612601670815 11.497604395242677 1.6971576859609931 1.362170711959583 -1.9029868353171033
P 1.7583394726924275 7.87640253523753 1.9856481080349082 1.9657693178609628 1.6904928723463082 -0.846618248264858
Ni 5.667427055968264 7.85816274754514 7.934951240920089 -0.2844488560425424 1.1056139543416184 0.6208095704630276
P 8.846471970722126 5.2947590060694525 4.243334224763957 0.8936925760448415 -0.02205955090320072 0.5352962219805556
P 4.812643022652489 1.2306286237263866 5.6545984359824955 -2.5223259918821914 -1.6540927364507192 0.055606276510394556
P 3.1457234651532744 5.717708469692721 9.28207051073702 -2.6338244515745157 -2.37106285069742 -1.1019354770487668
Ni 5.11308851088592 6.141044642595688 9.368370210919766 1.6674832988250121 0.7404910801867762 0.49914394042971455
Ni 8.594319105631852 1.1720145457608317 11.207615710079539 -1.1392784364735993 0.8669459040786165 0.9981798945266551
Ni 8.265045361333364 4.724031353418983 2.1657938637727763 0.32268013160959913 0.21501055874506195 0.5565499891530094
Ni 7.495291332731994 6.805024475836032 8.7518202708343 1.2408388111166049 1.4787165042678274 -1.0052540277646171
Ni 4.1398885717085365 4.546191121577214 2.5149417028385677 -1.0295573803966722 -1.9105199104693547 -0.1149257402063182
Ni 3.491469183294109 7.769633944585854 8.730635968197927 -1.4935000903349054 -0.5721054203891051 1.0059862779449513
Ni 5.090788275756706 6.8966101235776875 12.84198723653756 0.14389127420073283 0.12868577010488808 0.5456829645315182
Ni 9.041594424420845 7.631284096092227 2.884342980060317 1.27399627170518 -0.35745867274136506 -2.024958169516293
Ni 5.262929149404839 2.2860226995670616 7.913295521257037 1.3350687135364683 -0.13334049526808003 1.3727924533394873
Ni 3.2454300077685736 2.4472804692008547 2.2161940524902835 -0.4945378091162709 -1.0097747984531062 2.907486501414199
Ni 6.612222277815498 4.352366906174623 7.464696183553272 0.12833327186147575 -1.4348838233535932 0.07483375728143886
Ni 4.55479079936858 3.4150204416434646 0.30105593645352496 -0.8520288777574682 0.4728924629323533 -1.8750852238108284
Ni 2.425145966620083 1.0724276988749626 5.379851620857712 0.12839112168260466 1.072821590401946 0.46536761531021786
Ni 3.9385603548070556 9.075238131754514 10.94917513624866 -1.214524084481476 -1.0306110184721669 -1.0317268772441652
Ni 2.254883395187623 3.8224278751684215 0.80923888753123 -2.012807650196688 1.6634273835880837 0.03373698724112899
Ni 3.937814558339068 0.2875008554637527 7.465733853453792 0.7892502518683504 1.5941562079960867 -1.1658772700080502
Ni 6.5795361363172695 0.32791013371936495 4.593950638356217 -1.1665647829933778 0.159151542793913 -0.9867356572454554
Ni 5.08543879738756 1.8876016531131667 3.576869324033367 -0.21336016762583254 -0.8343790258861887 0.3112654620147543
Ni 8.200805584084593 5.786192841654361 6.334916736290051 1.515755559298996 1.0644343947795152 0.7226368256141749
Ni 6.4024324935796875 2.3835194748698045 5.932256619541569 3.6256578350578526 0.590160478118603 -0.12083927747727577
Ni 1.435022892774039 0.7169884681230478 2.963675468053847 1.395617164543487 -0.6118536468213205 0.06452054828088888
Ni 8.763163743038756 0.34329840084217866 4.026843321152819 -0.12886831842933935 0.431834773660095 0.6646461080320037
Ni 4.0285162991557 4.608193509422023 7.3124045447901755 0.6325466563942976 3.104502937574686 0.32415491638291266
Ni 7.636228450454071 2.0406372468714906 0.9458144770201503 -1.6901797119812634 0.6867213426644883 0.4647844891132383
Ni 6.137002609886471 8.080796804285184 10.82415939201355 0.4635156497031437 -0.16026328780085303 -0.39998523324966595
P 3.35032950356838 5.012019278427878 12.925659155091122 1.5021557091273743 1.4641126383117238 -0.5729232883047102
Ni 5.872180412204206 4.725964899817469 11.760829115305238 -2.556087404603353 -1.547105791475503 -1.633235947606368
P 2.65180364134174 4.058670415608291 4.07201464796699 0.4599515865009691 -0.566389086730618 -0.6882928009166662
Ni 3.957840574609109 6.462455298206997 1.661404346581626 -0.553970144240975 2.0921331247008936 -1.2841287321534918
P 5.832340149031578 8.559137768543195 0.8667996430777999 -0.3375200248359091 -0.635508567236099 -0.30215527218336996
P 7.751799280900764 3.8107437305032805 12.037947747345498 0.09910882777871963 -0.3596505381863612 -0.13815051506221368
P 0.9250638412188668 6.72933994538098 11.715455226487418 -0.00872041059213337 0.1510494825120689 0.4613834338514893
Ni 4.333712787111128 2.1776059907947696 11.609292480373933 -0.9404059209409804 0.6877474699361575 -0.6684811655073778
