# total energy = -340890.29570095125 ev
CRYSTAL
PRIMVEC
9.07301639677862 0.00000000000000 0.00000000000000
0.00000000000000 9.07301639677862 0.00000000000000
0.00000000000000 0.00000000000000 13.27927661124060
PRIMCOORD
 96 1
Ni 6.23898706951798 2.2171094803235145 11.135961616647743 1.9164396183878996 -0.6822787335121024 1.572868502261904
Ni 4.846052243187203 0.676908711943299 5.6821361383656885 -0.7354974836269269 -1.5082844477329314 0.27213455745156356
Ni 2.9525591079903206 1.574023158515997 4.595598886841331 -0.7609881716988636 0.07752235985719552 -0.3393879312825832
Ni 3.0748542945990978 4.2728372198494675 4.667824633039059 2.2488806860390045 1.243404514961252 1.343127322174887
Ni 4.080534639526518 3.036185099159777 2.135931388949818 -1.118889331294286 -2.5089277161984143 1.3266336953952378
Ni 5.40062221804352 4.817626483142297 2.450092743797868 1.4709749126491956 0.12974686437955074 -0.48725053142623825
Ni 5.357997187500599 4.638788258997655 11.346756818778394 -0.7955000894328041 0.2840927582547043 1.1417407819711627
Ni 5.906179758886882 7.898977057406939 12.277036769107285 -1.147919657088365 0.7733752325093068 0.7892209412923117
Ni 2.0972912271626334 6.634643164008339 0.17935901527983925 -0.5919144846952322 0.5442891695077852 0.1497428478855034
Ni 2.783084236659706 1.835561926168242 0.0718510306248408 0.6856113974297611 -1.0339354548597097 1.714722177207318
Ni 7.864926027260583 -0.1190116620124633 6.7949261625328585 -0.45587278844590523 -0.646421614604177 -0.3096068433654087
Ni 8.818599842798472 2.2799764102153626 1.2311048785283583 0.9516123311797612 1.513541839477129 0.36216122042335697
Ni 6.979844214895212 0.8378721866897682 4.659950162198658 0.16843476786805184 -0.2216776863525924 -0.5011391164828723
Ni 1.1685319143643924 7.582827804689168 2.276997738966482 0.3038180045977735 -0.24005953129388982 0.22376593634018882
Ni 8.099726615898357 3.9255493752152835 3.729006974378774 -1.0848517820936026 0.30824107336613366 -1.2332532854598632
Ni 7.7871702776324785 4.301498878317984 12.475773932584989 0.3974203007359672 -0.95081811741324 0.20886536507927253
Ni 7.907995635601845 7.318521767067661 9.015659405563662 1.1631981805139902 0.0038813373322771866 -0.806898561077733
Ni 7.248305693978757 0.8404915664934592 0.4348887242414552 -1.7645097901534064 -0.254434054848007 -1.8645218464726858
Ni 1.8257539955558757 6.558620360492133 9.220293122329968 0.8381642039602339 0.6450689572310245 0.0001385824603933097
Ni 0.3653050403881504 5.272021285111343 1.168001142911272 -0.9201302014110798 -1.4920445888353013 -0.11304857778826337
Ni 6.360565487839637 2.174148748177765 6.740508025412737 0.6409053127716382 0.2210122848544516 0.7982115748266962
Ni 3.6866931482946907 4.508672132344604 0.47595682518855587 -0.3421325839072559 -0.21983163428278912 -0.6899527051175924
Ni 6.372396701085267 5.848484448281852 4.47382812057427 -0.9091788446058987 0.41087514068929243 0.7311528335049858
Ni 5.045495287332477 2.948802879245159 9.402364969481313 0.5085053270399565 -0.4161047645193479 -2.0399065632960096
P 0.3705120444385085 5.752101796204913 12.03588506906465 0.4368864771513895 0.23563312009141998 1.2573560920453377
P 4.195516975003411 6.2295057674921495 12.609416740670998 0.6391893585217959 0.7695702569409197 -0.3548271486557889
P 2.7866862241278927 8.54265312527348 1.1875162936551564 -2.0516562476327698 1.132322059760424 0.07737452142542159
P 6.227473411842593 8.021462777357863 5.5310314031228245 1.2139970083334124 -1.469952127811636 0.4733583468251783
P 4.863962377348916 1.1651023142057668 12.482095103036086 -0.18639315211868543 0.7385946344950118 -0.4545373574639333
P 4.155704579511215 6.031205923399751 8.180060916756835 -1.3453240727158897 1.2358012486926975 -0.46950760562052046
P 4.843366630364575 1.2274974472503961 3.420768484566573 -0.4290518115983191 0.1799186001379353 0.32967430353924515
P 0.24476911163852005 5.937272985721831 3.630553859983851 0.7258116237977307 -0.5104313404180758 -0.4394177282136754
Ni 0.6415901814208577 8.861687597172319 4.256699045769712 0.09830124427575974 0.48661906848982645 0.6386044325526034
Ni 2.0547659997989314 6.6869853950007005 4.868501607400134 0.36462356592092043 0.058612410326570025 -0.48194891670766676
Ni 5.96014605979563 5.4787953264210865 9.129887773386635 0.1323436785724495 0.9993428044865047 -0.5305633352812604
Ni 8.631496100811216 2.4180677181896626 10.070657945153101 0.4437628925562487 0.07904445292867678 -0.12426115867463114
Ni 2.391901139201628 5.359349066928205 6.996824364886927 0.054987411979473044 -0.14017294480888118 -0.013445326871628456
Ni 0.561675961216729 9.171639979762201 9.11208016430903 0.007422003495683991 -0.1920603777067918 0.729785263733498
Ni 1.719264003328914 1.0491673120181448 11.3396916609913 -1.4524316024293698 1.117464168811985 -0.4434849563045137
Ni 4.049913209538788 6.875776718018391 1.5697833380024364 1.6045658333651849 -0.583164506416744 0.027772542127577977
Ni 5.660591353877136 7.76020527321069 7.986196870329919 -0.40287103943789326 0.5526753366889514 0.3057910691637443
Ni 5.265352618136238 3.2656961192989287 4.437336449045187 0.24019965641617985 -0.46577693493349465 0.28368138174889856
Ni 0.8952680877571415 7.8062599039122365 7.15976122067705 0.35212620478485807 -1.0076955473265743 0.044806100571097025
Ni 4.908265915905979 4.769575788856364 6.6433169675841235 1.0072831423795041 -0.9853194936242193 -0.6496444924168489
Ni 0.8703544923191237 7.759796987477521 11.25619178474831 0.30468883723850104 -0.6280166297344281 -0.03053236426090226
Ni 4.517609053392876 0.3659918677215048 10.387116587726451 0.9927618088348773 0.2873094654197891 -0.6380490742697656
Ni 8.670827626439902 7.022868458155011 5.334896380717855 -0.6319730432790148 1.2002482912887522 -1.2357361997827168
Ni 7.2488863670214885 6.1858373400755715 6.807222821514303 -0.6073470172002186 -0.7573752575366247 0.9827581606549461
Ni 2.2653234889027147 5.508373359535161 2.5666982418895175 -0.0006054947944828281 -1.2619632518000459 0.08796515245707431
Ni 2.4623440376978483 5.34821647593711 11.587961142315526 -0.6928264271209617 -1.3560113772264066 -1.4221041550904219
Ni 1.359174132705785 3.382347889773671 3.794898847902595 -1.789656207512047 -1.3781879133234458 -1.6763129813015
Ni 1.6938414116768779 1.226272590050887 2.4284871701001545 0.2812390908559931 0.062261834153699215 -0.30638293711147235
Ni 1.1943537187333058 3.4349713842711047 8.229273864429858 -0.7171380072831327 0.10311537783495145 -0.4889855118394739
Ni 3.7960774327190117 2.5546710514919657 6.733230559044394 -0.4767437183576434 1.0132601858985453 0.3185288284453869
Ni 4.260797327229106 7.108717338316168 6.135052038679031 -0.4854314759396285 -0.035926795803596194 -1.2454117751992682
Ni 0.8239823060473335 0.057308800110963794 0.27592040577774224 0.3415178331413925 0.5973731938169583 -0.515422365874764
P 0.2911857556901443 5.734953795411784 7.910996082089827 -0.6658455276567435 0.22483320126243858 -1.3869193796591726
P 8.539404985440708 1.5545524655519465 7.916732950291676 -0.19693981728628018 1.7582347557779718 -0.15932637780888043
P 1.7872481144098225 3.4199283232578725 10.403237523075251 -0.5786913011367388 -1.2575530385474922 0.05038565154140355
P 4.112489802909271 5.955183119883545 3.656993536762294 -0.18199476594067368 1.3214827473219175 1.5062231943285285
P 7.108771776413924 4.098689745128133 10.220660308916406 0.21255849766014362 -0.6576501363301448 -0.08569281148312984
P 6.179595104866221 7.886474440955652 10.173439795621253 0.5102649900435406 -0.20356117925753975 -0.7895816670658402
P 2.3291884505867553 8.70938794568371 5.667010512904192 1.0752086025768837 -0.5315640086316329 -0.5832444677250601
P 7.377051795171617 4.169958288106985 1.439818730721473 -0.4671252214312729 -0.049020652873076866 0.17182528160683955
Ni 5.790045150340822 3.0653911386058526 0.2566710944112327 -0.2932050049686176 -0.004406613708127895 0.019821662711617477
Ni 1.4840188368928 1.164322034804598 6.973200045064096 -0.8351387868703488 0.9595105029809152 -0.33619719225942746
Ni 6.833070030328836 0.7459734192646637 9.07820515067875 -0.9933320795160505 0.1891912836891129 -0.3196819682132236
Ni 2.725552240347943 1.7122142696695162 9.245948890500724 0.37628686119146165 0.25124768670022535 -0.863609640616532
Ni 6.616433620308968 2.0489592693716285 2.55555657788213 0.5292189054382239 0.7189388079372973 -0.6561663526957668
Ni 3.973309732979851 6.823742969579979 10.49266026435409 1.3299977267714642 0.4528417149290653 -0.9751366395539464
Ni 8.49034718634629 7.23733641728093 13.359084692170033 -0.3854641568153555 0.268072471567048 -0.09419699229939907
Ni 7.720093468180836 3.9803322475903706 7.9434502613686755 0.42525249245688695 -0.32206203840962594 -0.011113850524974407
Ni 3.160866489053524 8.513047873110526 12.168717656795723 0.8529760721620859 -0.4926231085920612 1.2088859123590923
Ni 0.1316549102162864 4.969454337783685 9.955606654752383 -0.4502431009639536 -0.7901131140892779 0.5794574898788021
Ni 8.625399033862548 2.2915717250373833 5.5840023941442665 0.6230430877792367 0.6324715801819881 0.9269238272941456
Ni 3.6625407789236273 2.8674542151651603 11.43335059357718 0.16304882096579018 0.100263253098137 -0.06089734970600481
Ni 1.0908215298177513 3.273907199043787 12.463889188543233 -0.4786656179707046 0.6975035208816568 0.19535858884208937
Ni 3.1906622745586226 8.822991182684119 7.722589454962947 1.1306197323573366 -0.6949157055498225 0.33096474021589456
Ni 5.930504515567506 8.272531284208377 3.176841348840012 0.36031593968450204 -0.03963844032722851 0.2948458830061502
Ni 3.628507894809856 8.379266247875242 3.437048197700495 -1.743660714618539 0.06157483538900362 0.7015195840195854
Ni 3.3112063690229165 4.40005905430516 9.38789078658963 0.6202588401658802 1.2541185589446466 -0.6348439370689067
Ni 7.476020256891963 6.265879489809428 11.158204116089202 -0.5933345049712104 0.2999906604318834 0.007470340235116166
Ni 8.282502529114012 8.6836840905266 2.19554201329423 0.34239329376781036 1.9612578031438546 1.13548091710438
Ni 4.657333504299855 0.39413092045156356 1.173562901898673 1.383706786259146 0.15286853799867867 0.8230659148662147
Ni 6.153446671910772 5.8656143030423955 0.37232846230029926 -0.0372344588714262 -0.18572595084833177 -0.5636647458209195
Ni 7.9599386538773285 9.029456741439912 11.141591423257339 -0.030643178807153677 0.2825979188767327 0.2839354067412336
Ni 0.3648713502093612 4.791813751789676 5.638114770615326 -0.3486816978796834 -0.3299643239758382 0.9057718758068788
Ni 7.491571406817584 6.461983663959001 2.4445690914788956 0.715455220264071 -1.9282345541402985 0.20519357265464014
P 8.682513671424848 1.5728708854468292 3.4446577364651496 0.5232498323389828 0.3509609808321633 -0.3898422312783931
P 1.934267270416101 3.412134602262477 1.437641206811234 -0.1560754749717506 -0.03280290546263383 0.3775888678323368
P 4.790135243775534 1.2073372050481035 8.042819750409159 0.88521976268714 -0.222290637346243 0.794709989431341
P 8.52632169594669 1.7932544511955641 12.198224013081084 0.2560348236762236 -0.5857374093502429 0.6475981514107816
P 6.62833741768494 7.946156742128777 1.135320138225107 -1.2987565093689954 -0.520741206984516 -0.6933822996244317
P 1.798072222846967 3.127867928797116 6.0990920459046984 -0.1410939139612538 0.38364227311526833 -0.8982388006546271
P 6.981259605436867 3.9757050092811137 5.647052598965226 0.08783942551248744 0.9547141100335365 0.9906437340506099
P 2.57364272855992 8.603088486798894 9.838376933139799 -1.165662840004399 -0.4850568662090292 1.057663908824901
