# total energy = -340855.7848011858 ev
CRYSTAL
PRIMVEC
9.45880571166220 0.00000000000000 0.00000000000000

0.00000000000000 9.45880571166220 0.00000000000000

0.00000000000000 0.00000000000000 13.84391826975420

PRIMCOORD
 96 1
Ni 9.27706403851656 1.3396317093096999 4.106244359337876 -0.5596983049740039 0.3232334330099078 1.1313306423814322
Ni 9.260435458398458 3.9500066472691837 12.942997217007072 -0.94686324653055 -1.9357529740045307 -0.9505103563648338
Ni 7.114752718415129 5.352255649173782 7.2700086064700224 0.6945369820541651 -0.43769097533055584 0.2813643035799476
Ni 3.914460456095222 0.760606199514688 3.492100196378765 0.7869349734716125 0.3474275137576081 -1.2034295172302114
Ni 4.80679471079463 4.614506653217337 8.077760330377572 0.892809916329572 0.650200364920319 0.2461378762774858
Ni 2.896806486956266 1.7086953833984806 1.7921229940353778 -1.3447766848528517 1.0351618710676431 -0.9818932415514896
Ni 4.199179961291449 8.016053920755015 9.31782865270028 -0.694764524683939 0.3231146480438564 -1.635061687961197
Ni 9.444551107999619 4.695748333896729 3.4042468106353496 0.27172163828386103 -0.017211735892596162 -0.5105565531420304
Ni 6.706964694495002 9.060873579370185 10.45412347369551 0.5337088228887776 -1.2044399607725966 -2.967991757888108
Ni 2.412619690787047 8.524266082965177 1.6650638052592441 -1.119459087754827 -0.2665436936273474 -0.863405495025526
Ni 5.7927238461929065 8.475600528523977 4.307105878245685 0.5318283180366132 -0.1499847886929804 -0.6093252239725119
Ni 3.502018699855353 2.692354405470055 7.780683841639658 1.8209881848561091 0.9692462422114403 -0.4077985586464977
Ni 6.974961031517847 2.072849937418266 5.046786362290934 1.5499175498926856 0.17536363377740122 1.594402519678938
Ni 7.639044850022772 5.118859622772104 9.566507271193434 -0.9963976058152518 0.3762652639249069 0.8495580476194723
Ni 5.403673716023611 2.2760723741858464 1.2460775014746004 -2.4600975820695887 2.0735962422389704 2.858574091984212
Ni 2.9500595620785135 4.310576313993883 2.2655021590083844 -0.1898129764335118 -0.10806937940611709 -0.01718371086813815
Ni 4.7263664873906395 1.2358118598351377 5.544696939400627 5.436979700468791 1.0208835067717579 1.9143395413257611
Ni 1.5589719506968733 2.3623934334337373 13.276525104607973 -0.05897005077630489 -0.9473538130137233 -0.028985331488756535
Ni 1.442344878537494 0.4352516657704726 11.628198655730401 2.6203019916080486 4.072041710176716 -0.9687965562685316
Ni 1.0847263591375085 6.682977163676171 9.553466416012077 -2.403389844964899 1.0565351945370967 1.1769672092736247
Ni 1.9015320516963938 2.7757337761987597 4.130942246451855 -0.699731124660595 -0.26888236906285307 -1.9307213251178943
Ni 4.189626567708239 6.364187040968338 4.363049037660076 0.6570135311874103 -1.287458310747357 -1.3446327030758196
Ni 8.556615197870698 0.9687897797816679 12.807756161449278 -0.5764220454865879 1.3269651105927276 3.5081694763306808
Ni 7.035081199453373 6.529772890540285 3.0741524694410884 0.19924815370448265 -1.3784897608345805 0.29081593591115074
P 5.9329600969500005 9.078580463318472 6.417361608004705 -0.7989042300183468 0.34717040344147954 0.8374808047399642
P 6.139578244902109 1.537897731980645 10.997885610601847 -1.7369262241081829 0.6782143336347417 -0.6538605873807255
P 6.748999626261123 0.9957379167307412 0.6721663678285406 2.756220789126266 -3.362023858878133 -1.7947408211238056
P 2.1376143788680038 3.386403719887462 6.1551029824151 0.4652328895045665 1.2339158587445265 0.3363506871181562
P 2.86402226699646 0.8339280223255445 8.71770906069743 0.40010273266413676 -0.2516996866359794 2.0825886755455683
P 8.905673498267907 4.246351024459237 7.887558885299741 -0.2575286346129307 0.12023789644785099 -0.476118940289451
P 8.800255110659124 1.0732622868376571 6.576608166111831 0.07655845328202944 1.6198883226548684 0.6156655643682429
P 1.6466361603297304 5.837236985007347 1.5099696627788783 -0.2063207442805479 1.694797413258933 0.5091126216066522
Ni 3.554344812035863 8.244654332754033 5.4631421722582605 -0.7122048316475734 0.8468607032929673 1.426519510549298
Ni 0.055517513165633574 7.629340115551116 2.122895531585992 0.4901337665113043 -0.7868704387822641 0.6658349861337823
Ni 7.806777848449559 7.957522832148182 12.993943289461058 -0.6265919814727596 -0.7668263756471955 -0.044186978929859386
Ni 7.598258480586337 2.955555128090241 11.057496894799968 2.059433063364711 1.2450528491979524 -0.5644749004270407
Ni 3.094259052351809 5.84060431977529 9.547015510642028 2.619982660595417 -1.1335942416046283 0.6184492977609671
Ni 7.722887702222346 3.906439389007537 0.8091922999894543 0.4719856348473678 1.1157914090952525 2.1985310299418583
Ni 7.595278956845039 0.6977060886345049 8.54644603604762 -0.51417872327565 -0.8521911143669453 -1.128032945466767
Ni 9.095436054769243 0.6589221483283326 1.8237835078984659 0.6917146821140217 0.042312387614965835 -1.36459963311605
Ni 6.614438658820789 2.792192097817358 13.140716520718504 0.22613057991762345 -1.9781535504579288 -1.292511299790232
Ni 1.6149207853945806 1.683052561612262 7.286428146985957 -2.047067599820823 0.1011543974538387 -0.8560757941333321
Ni 5.583305891804533 7.346332654155444 7.629342007312222 0.19322971542454462 -0.45719459258112227 -0.24676779655200085
Ni 8.810243609296618 3.560578164878769 5.814708947881476 0.5628540769941661 -0.1747450263567958 -0.2373223348683848
Ni 4.294051780736589 4.061904316664598 5.043934532424262 0.4976033354154721 -1.2886016803231806 0.19915096600498605
Ni 9.431677673676106 5.79828562384333 11.621983274617998 0.7662013404686868 1.037269147218633 -1.457143406082742
Ni 3.989251231404566 3.100842380999249 10.139506575986601 0.2086807598722922 0.9234767492858097 0.6501191180604223
Ni 0.9865723341741768 7.06557638847542 5.15370302469534 -0.3614256278089131 0.40073291004896794 0.005775211920880377
Ni 2.059144128208295 5.063686410127686 4.84364054184813 -0.7452579054478004 0.0075400171307870145 -1.142237261991607
Ni 5.418751052035131 7.3736875197422185 11.093159429281922 -0.33538035278508693 -2.4797960889397808 1.0868474723673927
Ni 2.7892882445202836 1.0973822409338791 5.428684689600563 -5.158884040337786 0.12864334690272683 0.04325623958547389
Ni 0.10132461657629399 1.7963690518368658 8.815834709244179 -1.5818437091773208 1.8061014975522636 1.6489384459432892
Ni 2.376534347697993 7.143110217387863 13.379634597787387 -4.630797191621477 3.7379075710939045 3.420072426281432
Ni 3.166032468697744 0.527594200617444 13.46190918003043 0.18398659955972185 -0.2464988591613303 0.23553156151654922
Ni 3.341512228851905 5.899892112824356 12.235891913319463 3.2551078763501686 -3.228736328335175 -4.7834939799289815
Ni 8.824393982366402 0.17317654100811022 10.872113765258064 -0.4882211228696237 -0.4572210749436836 -3.1662284396089406
P 8.553020851770086 8.049452963074136 9.388806583501315 -0.3117254323703083 -0.40998168234074556 -0.553220410559144
P 5.3767350378800645 4.982265012143263 11.042033639522908 -0.12526003225279073 0.4023928142498941 -1.7370815187391246
P 7.4599707437679985 6.0895789988814695 0.5557748199268066 -1.295566284566472 0.9361615438423297 0.8709681378641322
P 7.34954864803494 4.460280829084435 3.9097159192424122 0.4329174652013125 0.12259559804675016 0.14454767683780914
P 0.26531098213346727 2.2634921628336993 11.158294655908357 0.1308436969881553 0.1180606862908741 0.2933196761696109
P 2.2766115261009383 7.587106548868907 7.865518922539112 0.38617995193545746 -1.2240826747041884 -0.7830927169073868
P 1.0455290690297656 0.09132287561106059 -0.013305701736139427 -0.4845616717401655 -0.07948642556210181 0.9542965628801436
P 0.14562587814690792 2.7509895409376943 2.3575221485868534 0.5994066793072192 0.019440625223114908 0.44214772555032883
Ni 1.0409226307376638 9.20740939460888 6.352572573660594 -0.16982804867115267 -2.197679223464525 -0.8206171962154062
Ni 4.023548860248841 0.9151715947660428 11.359156174816164 -0.4952934563353728 0.07632396867372017 -1.929374581282013
Ni 7.984149369709306 8.62405648128484 5.928214614216638 0.35991150515723175 -0.294077637381558 -0.4899067381021628
Ni 6.183249550024562 2.853343275555427 9.083714702959032 0.04542059422664436 -0.12802422526148918 -0.2886274129002642
Ni 4.887014840477006 4.234215376966902 12.972374375215718 0.5818972096685462 1.1671229694896932 0.6231320479486172
Ni 0.27665398172256117 4.088738947947336 9.814825509195975 -0.6540133109085059 -1.0844185512109261 0.754342641357888
Ni 9.28707145476511 7.008047933254548 7.4584109867364425 -0.11757654756560396 -0.06831961031200492 0.073438419595809
Ni 4.102548804018114 6.261227942796818 0.776870615619964 0.32737290909957817 -0.2827133614086744 0.778825971211233
Ni 9.451664129756622 6.2749999636454845 0.026337098111968875 0.7623963649002998 -0.02319777827270198 0.3837574585368939
Ni 8.168842006447672 6.122060537064381 5.277647428811126 -0.06596602247816381 -0.20719594779664963 -0.5907132652982794
Ni 4.8821908496577615 0.6179210640064136 8.366475235028798 1.9741482859532773 0.2383857431358927 -0.7038986257747232
Ni 2.652599045836164 8.127005709597636 10.873054916408092 -0.17938586756291686 -0.653955718197693 1.2116079392759456
Ni 1.4844176455257274 9.12520291576564 3.7776038365532583 0.31240548915646843 -0.30144487637990663 0.6161162787524163
Ni 6.930542480758688 0.8625730689863285 2.8326313290909186 -0.9633105934532957 0.8264533432812089 0.7443107110431826
Ni 7.124902016746598 8.232906496288342 1.7011132048872917 -0.058056023602467755 0.9058232978701045 -1.7369773890610924
Ni 3.310241417776568 5.78064495153374 6.605666562574187 0.3492524827814888 1.5087629300312466 1.2279670973602594
Ni 4.6702852294155415 8.861264406314275 1.0993194043059993 1.5101315282439993 0.20586720168289707 0.30284869870596876
Ni 1.8510220301772466 4.636583505319526 13.600279208456863 1.6379711482985082 0.040693878174936374 -0.009511024814228781
Ni 7.306246236328076 5.162048528812632 12.238258506462552 -1.624428119506751 0.5473454398356057 0.6044254726780494
Ni 1.0443467183387745 9.104525966881583 8.91246492063696 0.3145652158119486 -0.18041148061395382 0.455498435825622
Ni 5.848682139696142 9.385301150172664 12.403638154073988 0.26123282293739525 0.12825382477379202 4.059184908818706
Ni 5.305103503617049 4.710059506660487 2.4777151904302626 0.8351513852758391 -0.5911765780879432 0.7788285423143941
Ni 0.5421210341472392 8.134402495520478 12.219970851854852 -0.9337801880943467 -3.138047349189034 0.8923545739597083
Ni 1.4976883496814135 5.0145573742156175 8.019906492246541 0.43333141281027954 -0.9214424924646002 -2.1846668703652568
P 3.7071801917561595 8.172540399409092 3.29409145321818 0.2860311129279977 -1.1857007324918805 -0.41588262120621283
P 5.6114647558611805 5.859228707859784 5.940162031478967 -1.2689805636581437 0.1505252345774827 -0.27068162705512094
P 3.7276301293075447 2.829630050096906 0.017136517974951162 -2.7305308405593296 -1.1728799265781285 0.4293945396497186
P 1.7982608129424518 4.628940790452958 11.079536857560598 1.965633820724363 1.0736823957403443 1.1158492589163815
P 5.834181790821825 2.957267171890796 6.8522822155817 -0.5614705663830781 -0.3318129471488028 0.6486214504689732
P 5.495688976199315 2.4546924577752804 3.72185458265219 -1.7089292246746244 0.6881750443918794 -2.193647219486996
P 4.175485653443984 8.017945681860601 12.752255674133595 0.5189026111138806 0.7098445589455129 0.4786093108114725
P 8.299515404816027 8.762684735102185 3.7122047092525956 0.05432586713607417 -0.7609331500912122 -0.9802909300613761
