# total energy = -340856.7066420533 ev
CRYSTAL
PRIMVEC
9.39329091680059 0.00000000000000 0.00000000000000

0.00000000000000 9.39329091680059 0.00000000000000

0.00000000000000 0.00000000000000 13.74803074513393

PRIMCOORD
 96 1
Ni 2.69726465045761 4.7159485843032005 0.5427640650786586 -1.4563620478320274 1.218156796138057 0.7856170259911373
Ni 9.296680748351559 3.8724686486864046 9.259188367677353 -0.7457199326858835 -0.6459181926051972 -0.767994942034
Ni 3.660762661906021 4.0397255836678365 6.7435599016715555 -0.3458532272919527 0.6073981821531281 -0.17115628056427296
Ni 4.857580622135955 5.0381102769381645 4.586508098526629 -0.07885496262569 -0.30146004588855824 -0.34639418739708727
Ni 6.8371227134527555 7.606621091172563 7.120641347297418 0.8650659134470844 0.6577807483707382 -0.3966823941286781
Ni 6.847981357552415 3.493515120215333 9.665085611317512 0.5133518564989805 0.7038777998391168 0.8551887635426885
Ni -0.06446615437366994 3.4207640834057638 6.571998960871384 2.87743210523098 -0.6835971952132097 0.6480766337090968
Ni 1.0180918172505051 6.724750776286471 12.193650517335465 -0.5053544401158007 -0.11117244381147307 0.8122441416603624
Ni 4.9647674628117455 0.593141222665928 1.1641668816050064 -0.6586788347049752 0.6992387584052088 -0.39284065178508476
Ni 1.1361185154444673 3.14340838761801 2.1055793878569475 -1.6488132332193348 1.4462951505143284 0.6927351529587359
Ni 7.871972161389932 5.794411081163144 5.152720635288661 -0.684655461274395 3.0535452155798963 -0.41087694046150525
Ni 5.03274670792354 0.9385447345879051 8.864991406987487 1.0039671906323935 0.2692379526300589 0.061983640791648094
Ni 3.426409451142697 7.10699195651782 12.225848839346549 0.44407065360465464 0.06248731990094399 1.120869080728476
Ni 2.76559144732692 2.209799827315893 11.299492838827604 -2.5659409003586644 -0.18987159758558914 -1.2083464949158547
Ni 4.086156619813699 9.325837522819848 10.701439864431821 -1.518480928649959 -0.28343944094142154 0.9213658735903939
Ni 4.228305288637355 3.7010410926147923 9.529420191765125 0.0622932016122669 2.4194947209465623 4.618641787205865
Ni 2.1336390259663793 4.5989645413817835 9.080821987733406 -0.31090653601343876 -0.3269337646796305 -0.07257555737488144
Ni 7.875410105802109 4.112551766803355 0.5473273257219238 1.3843588180208481 -4.245041471707631 0.7157213294412642
Ni 7.3253202132724775 0.709484643158628 1.7790366644191453 0.2549511036937416 2.1614714060854 -1.3379195527217023
Ni 3.7260554258651326 3.0826619763788257 13.108334414776351 2.0825845617805103 -1.5108851185805723 -0.0405727792160398
Ni 1.837910053484046 8.173778592983407 0.5161763556287573 0.22582384731048205 -0.9821364679105472 -1.2652437223235307
Ni 5.4722399952374365 7.958540728883411 9.09448734710727 0.08208863907163927 0.36543037809293194 -1.758857219853319
Ni 5.543826263994792 -0.06617009731456805 12.48325318559479 -1.4796259034559744 -0.2900901134887197 3.276766078049892
Ni 0.7953609251242995 6.631033914537075 5.1338861480185685 -0.03523696882542319 -0.15650536342031757 0.2354310313829429
P 4.922741880024655 2.8418743614561017 5.318521610204827 -0.4112939733942659 0.04772584532105329 -0.3968114635073747
P 0.34800921077426566 8.996724795034583 3.049822092609951 0.6833246582781135 -0.6494506312384879 0.22381324463835645
P 4.743696365159943 1.9778043325292254 11.118486004855617 1.5822340026372042 0.49515667364719235 -0.17418246898510648
P 2.35861773256754 4.980369718736948 2.755779215816103 -1.3932954583888455 -0.04847275078940684 0.24673488643153635
P 2.7421833667937445 2.4386109965404636 1.1648826503596723 1.47955314123651 -1.6834981861960294 -1.0947245611226244
P 8.596448496575427 1.8819927669439955 10.126276460920165 -1.3784493945149485 -0.3884396945039117 -0.7232603181307866
P 4.632273150358766 5.151806668099304 12.998226260679285 -0.5009506546211502 1.8659320965566508 -1.287850146869137
P 8.311155470109288 8.199253197480186 5.488090234038271 -0.5099286897500444 -1.514483891675424 -0.8102952454641076
Ni 6.475828571579745 0.7117315183045091 10.716438131762208 2.01590634372667 1.3325192076417374 -0.7216482364486604
Ni 6.933892394693838 9.228945728799099 3.722526366532743 1.8377165533543836 -2.350248742165546 2.30265325177477
Ni 7.348221056105496 1.740031963935213 5.399607313891237 -0.8456242597827048 0.7607614004000381 0.9140117472181679
Ni 7.839396229090955 2.864089494064834 12.246649342369286 0.5546730838452705 -1.3509681583755444 -0.28351965936005363
Ni 7.632274168193472 5.561851988931857 8.34220874997872 0.657890277365409 0.1724523736678772 0.36299220096508455
Ni 2.9637992753086784 8.697097606893635 2.3676587749083033 -2.5412143441462622 0.9531071705577326 0.2293017785567535
Ni 9.184496677000146 7.725465005661223 7.4936254395009 0.8820058837355326 -0.2210778479850644 0.09038430342152821
Ni 5.505069546386493 1.4974596237711955 3.4332815826507517 -1.7953897675617145 1.4134274532520301 0.9201955074313766
Ni -0.0950920395142664 0.5765921230337653 5.936358733564885 1.5445735119719526 0.5286267803801799 1.4514512407939713
Ni 2.6551827079260577 6.290874676837277 7.399465214428404 -0.5843302445900711 0.09049486085746349 -0.2917050233843234
Ni 7.683213983896286 7.104436981435547 12.73595525049676 -0.0932143166711556 2.1903217546581892 0.46980636780786184
Ni 1.1677739052505678 6.846854162663178 2.433923744459382 2.5120510923187447 -0.8871866566055236 2.0893915574000146
Ni 7.803044193913029 9.220651453072454 8.941911186229088 -0.4696289616897331 -0.6701259001996523 -0.5045311728835569
Ni 0.732707675864154 0.7908258443532652 8.894783167910047 -0.3137211226440984 -0.017598944028685816 0.6885740796025109
Ni 2.950939860280622 0.7506394678937819 13.424772775361209 -0.48455292998941707 0.1444941978920544 -0.05717079278403703
Ni 8.378232959309694 5.908915295328237 2.3613615127937604 1.1572098241410393 -2.69145367205221 0.4542342244012177
Ni 0.19080497554668804 0.8152051911493344 1.2658868270679922 1.316868645588674 0.4201254556429667 -0.6600227503273794
Ni 4.380410845649279 7.772769617846245 6.930959809323671 -0.18254601045845337 -0.5391238232567618 0.6423574718371324
Ni 9.21443309460016 8.617780659854255 10.712781323675703 1.1440162082689007 0.29417225397789337 1.2273670018824152
Ni 2.165425921842891 8.881149745724715 7.270563903540518 -1.0170366222218419 -0.06059653063613435 0.21333239971169066
Ni 5.490622665222759 7.452542943104473 11.157283113614113 1.662842457618891 -1.399860513200873 2.0797455496698185
Ni 5.920412683198465 5.684565939206901 6.598366867317883 -1.3397560917098088 -2.1655216648953735 0.29998603244619304
Ni 4.1507073138040615 6.161397557226805 2.3513398108993604 -0.11827923005958338 -1.422218312070783 0.20617933360667717
Ni 7.839067463914927 5.197533207439393 11.27917327229094 0.9903017773301591 -0.4139303825758484 -0.4589840803813772
P 1.6341320040913032 1.8066397885984353 7.246091563166086 -0.21729575523481284 0.03690767165962676 -1.9448821899993085
P 3.041989027458821 8.280223363690448 9.218948449460632 -0.09125025096624931 -1.116928350913173 -1.281668443538457
P 5.447958338665101 5.244565414192848 8.673880210162556 0.8276555911194262 0.3790358846915085 -0.12699038468033613
P 6.351132636957792 2.1803706474160376 0.04520145438751816 0.23013301620879723 -0.2981348381700672 0.2507740894979165
P 6.39034962581253 0.2441466556926533 7.205713563575433 -0.37297528031972543 1.7119710968247421 0.27569193578551876
P 0.5754855933841634 5.636237458330822 7.266754924143968 -0.22905161021916037 -0.6575120680903837 1.0371940710063232
P 4.270096039155853 7.685149001789478 0.8448100255860962 -0.3980489354589016 1.173822750107372 -1.8626356851935664
P 9.021156744258816 5.787037347929378 -0.04442087192672084 0.8291146921634559 0.037194092551794004 0.7885007752968355
Ni 4.913818253818188 8.172050227486576 2.9528016105060133 2.2484381991849474 1.8378379094235961 -0.36864477126517153
Ni 8.94306092501611 4.136974322736845 4.115225097348998 1.0363024124299896 -1.864146208300822 -0.5207864584001547
Ni 6.737751090675682 3.951146851955217 3.080837799316409 -1.125254097170049 1.9409789982901604 -0.7116589864464324
Ni 2.935393964099881 1.5401615234918284 3.278589113368026 -0.2616303154861301 -2.379159511662625 -0.41546533116313616
Ni 5.456506233241822 7.559081646718951 4.931679596167238 2.179248784673479 -1.9094122792274728 1.3909326145836238
Ni 4.120799076076279 0.6248172777116645 6.791197036348902 0.329777918996645 2.4651647121798512 -0.9362250500904133
Ni 7.634772783531282 2.0929285038834 8.062875766489428 0.6164302104484094 -0.8006929464876532 -1.4475027976691843
Ni 3.9401191286221717 3.4553877530868573 2.8116505091593336 0.19782196278091738 0.7156228561901868 1.2574903036303569
Ni 0.6128708905438903 3.436432092366172 13.127856490928878 1.1484819573497382 0.3392241520112093 0.3346599296792946
Ni 5.396079193887922 3.035789455568012 7.957910439074512 1.708400091644032 -0.801296384399607 -4.432346079896992
Ni 8.971165650921112 7.731533071481621 1.291487301660736 -1.622305159626477 2.49455036443082 -2.5661620152305353
Ni 5.879345216067228 3.8461298614412103 11.709486496561066 -2.147883640098636 0.22216079663659802 0.8973813377503385
Ni 2.333359173757865 3.0034953219913434 4.883863988965762 -0.3792875956909984 0.9261175293427664 0.9443353379023736
Ni 0.6591732386065643 6.370050724515503 9.861365936038673 -0.696400260515149 -0.08831713647985436 -0.8048807593167557
Ni 4.9918858931886625 4.2801092870885835 1.0602498454370808 2.147873612796307 -1.2530410096097517 0.49159800976165663
Ni 3.885252917388512 6.204785167171725 9.829924713261528 -0.9279939204298728 0.3286517758120017 -0.1328679265070357
Ni 0.5058343425199986 1.697470963575735 3.8760784903191894 -0.7830117271578063 -0.5149449120177132 -0.07756941104504705
Ni 6.502796709304765 8.10386432997842 1.2024633279668673 -0.21830362767403694 -1.108142377190427 -0.8652008963630519
Ni 0.3960934660910101 1.3421415613249428 11.784261787525892 0.7558781041658079 1.33903875392781 0.16440687765558135
Ni 1.9959991366996754 8.78177812294764 4.7290475282452205 -2.8556245224375854 0.28604859642949443 -0.3751373209680507
Ni 7.672439879413319 0.33688191855933797 13.287801688395453 1.257690592566621 0.016739681352184073 -0.922397914399334
Ni 2.993669939873486 2.2040417400900356 8.795783519446422 -1.5800475365088464 -2.0875367635794633 -1.233546905440882
Ni 2.7386608827648753 4.721537592295673 11.765152076837012 -0.3109875257630193 0.6686081780035453 -1.0648781671851533
Ni 6.708058898635005 5.7913770482529445 0.5935892826344 -2.657159269645714 2.576248710042576 0.19801093886327187
P 6.655315571109409 6.620597968520879 3.044914098196394 -2.6860397001254905 0.5934692307768618 1.0840490836866492
P 7.619752911632186 2.1438401397139826 3.28723657682663 1.8386220958877881 -0.39113446772725546 0.26365094546058465
P 0.4690614879167576 9.054502926398774 12.931562076271602 -0.22193068290366294 -1.4303856783729236 0.4110134660393696
P 2.9162786174365536 5.913743446770473 4.910177414325949 -0.22118686275910296 -0.06600253214305407 1.1830257567628786
P 7.501275335482529 3.9908616852193695 6.093222931667542 -2.6675709518973414 -0.4677281451225945 -0.0069674324567686454
P 3.9336189714275664 9.044339385814146 4.87342898227864 2.075616100882477 0.5450661568831258 -0.8256907540835715
P 0.6516135182160748 4.394707434161114 11.170508866981175 0.46460399767131605 0.6971767336698573 -0.02191171247142678
P 7.698647160588103 7.251028676780949 10.643560285527599 -1.0243097588444876 -0.2695464850094132 -2.24968389866659
