# total energy = -340860.4665600527 ev
CRYSTAL
PRIMVEC
9.30466584093009 0.00000000000000 0.00000000000000
0.00000000000000 9.30466584093009 0.00000000000000
0.00000000000000 0.00000000000000 13.61831898824035
PRIMCOORD
 96 1
Ni 8.31983199721993 1.0199123249175126 4.416828985078381 -0.5717896889208992 0.4346879268381739 -0.015741836215289018
Ni 0.7610686203096394 5.51015791402367 6.631985173173929 0.4328246483771901 0.6347452067075132 0.1837965950361028
Ni 8.43940625654606 7.3555801827131955 1.0962273323209086 0.8168101637644901 -0.9200939488565058 -0.6162281217399322
Ni 2.833196278167583 2.9378923769877217 7.4593253446954915 2.8357439814635743 -0.8252372114859207 -0.6957896235143437
Ni 5.945448786313372 1.2404329027736523 3.6624699592283223 -0.11955372589663282 0.6006580352158172 -0.5295035265581783
Ni 2.83266591222084 8.78046877896449 11.783169083244438 -0.5127749009495879 0.5661240059946895 -0.14992976708532887
Ni 6.893864059743687 6.021858701307237 2.181490977009417 -0.9729820551047887 0.3463545924084035 -0.16736390340137627
Ni 8.981998534060953 5.95427891409335 9.614437594353761 -0.44085548910146655 2.0129230927286303 -1.1921125495554954
Ni 5.821315240778403 6.213851174028064 9.361327424770147 -0.40773376684683327 -1.2696223110072005 0.7958165922319584
Ni 0.9083763663175408 4.512046420916999 10.886402148361123 0.04699282380977068 -0.7152801281387875 -0.21576106375784132
Ni 7.915609403810468 5.899381386272624 12.328555551878749 0.4178320316230998 1.4887654038633973 -0.9562164056106758
Ni 8.54103181567453 7.128844088147862 3.7997556497759346 0.308239787814553 0.38675536482295325 0.3202419544817517
Ni 7.576426423869967 0.6079649980170718 6.642662277101773 1.412613184880851 0.39876961567501 0.7121660079898381
Ni 7.346480219626981 5.221620229664223 4.35146184737564 2.367751012715367 -2.3914072186817266 -2.155880285150868
Ni 1.308794281909056 0.30993097181121226 4.202953799488269 1.3870610474433593 1.2189502385736297 0.5392930018447744
Ni 6.682201523664722 8.145490475393329 11.459515590411192 2.0069653324832983 -1.0728704413620103 -1.554569189732084
Ni 7.8793584261173235 7.574323569414461 7.643308361153931 0.6912369711466547 -0.5719424124486796 -0.6771990049963499
Ni 7.350537053886275 8.692381508476554 2.65007022142309 -1.48292822835633 0.39570666047897013 0.3358660341722538
Ni 5.578128497198316 1.5545398085655329 0.9613943516603375 -0.9988311549574088 -1.136972928268874 -0.08119389517151178
Ni 6.323748580992573 5.577756310569023 6.12451242599913 -0.4316331991722502 -0.3780308404657619 2.868711180418215
Ni 3.2457000240788165 6.843349029482886 7.886994765283844 0.7684399999912186 0.43113029139390263 -1.2555162106231217
Ni 5.088144799733999 4.331070672423247 4.466590337414864 0.9374933752798756 -2.3111558899291422 0.24131191564375215
Ni 6.180149674745577 4.316694963866802 8.042897231028695 0.1763131421748641 -1.0547557340391704 0.9456792535247778
Ni 1.1775240577573924 8.649003156832448 0.5504156404626319 0.2895244707932369 1.4329490682247257 -0.2657044855555037
P 4.1871554075413515 3.278647845436985 0.5049344343630197 0.24635050650892412 0.8428109587036259 0.22694381984753817
P 6.4442160882290045 8.182429998350665 9.268791593595587 0.8752613659228475 0.2766635556701687 0.22975043605839787
P 3.31997917061998 1.3046537056581704 8.954834492921998 0.6651639282086866 -1.5720262088662669 0.49107504737865104
P 1.3669391380703646 2.3241473206177283 3.2047985744526555 0.012705106271494246 -0.649292765504385 0.4430486400980434
P 4.574620297966894 4.034270444893494 6.771109465670249 0.1825544950988856 -0.03941861100693856 -1.0738883411035633
P 1.966680672513206 3.7132222584652976 5.587882578285513 1.3278071468780488 0.8740431772450303 0.266776892684076
P 9.206976046802875 5.430826333989854 2.407759977354988 -0.284070132546885 -0.09592374518251867 -0.5123642957747305
P 7.347336248874355 0.9237746576379681 10.859628903182925 1.137406673372183 -0.2510093454371742 -0.8130635522378642
Ni 6.380144159996204 2.0838264140831977 12.24066274890462 -2.5140966619938636 -0.6117076081617594 1.6824676880489862
Ni 0.4745295781494961 0.5665303910444484 11.748713906037635 0.745553068090716 -1.6686372099237972 1.2812115585066965
Ni 8.099813871313337 -0.19190873072923556 13.127882166279996 -1.4181382284641384 1.1378856698911306 0.7857532944586855
Ni 5.345670033207601 5.5641808032655575 -0.09066559336236336 1.3128767508204615 -0.26255102752818654 0.6179744150070776
Ni 3.483080656241932 2.1173883433796994 5.096478988830444 -0.15274332527472403 -0.27505635908404885 0.5008184999186601
Ni 0.38578632872743146 1.9647918253695436 10.133404395107704 0.08413600851897123 1.78324850421349 -2.186752292139376
Ni 7.55376025814602 4.627163745357342 0.47989464841075563 0.6840661644298284 -2.0399752117504155 0.9085460961179062
Ni 4.116049152014912 2.070427695428647 11.883250067861345 -1.6316318363440416 -0.12914831156360337 0.9790115491283202
Ni 5.842120473355886 2.111954418592021 6.615193973393373 -1.3970783224700456 1.8826748632326284 -0.18973172957361517
Ni 4.960047466597058 0.18910802634380525 5.6297172858846265 -0.044991991329658 -1.7124364664969347 -1.3947949257525074
Ni 7.994680453203779 3.0302318797153305 7.205561057110894 0.15487374135416554 -0.05865354797715059 -0.014932710050432346
Ni 5.489724868075481 7.402568744661445 7.241609193091074 -0.9059192000180204 -3.5013691655793955 -1.659663288559961
Ni 3.196152679054178 5.114691011068326 12.78791480301826 -0.4008131284676 -1.6426685537741774 -0.3355832128245124
Ni 3.039080616826773 0.7118562432513641 1.9967719614915502 -1.0048300528533212 1.0693904532332097 -0.332011436312854
Ni 3.6061906885463455 3.0279615412766425 2.9631694319161594 0.7526025187383296 -1.5360137953273998 0.14213315385904554
Ni 0.4484886101644337 2.0941452883803477 0.3185601188113719 1.1034629694368865 -0.23548451032869766 -1.4408410693782927
Ni 2.8049473130042393 5.170277084153245 3.0766640226527864 -0.13234239302086884 0.8716265973837376 1.168458657581981
Ni 5.054247902471133 8.142364107707266 2.171767601319136 2.074152628963073 -0.6457245885371523 -0.7252966318345251
Ni 0.485439298720649 4.483406659792897 13.170262127291023 0.9081915409919649 0.09842954232350791 0.6816313297360905
Ni 1.5219083458422633 9.157484529772631 9.649355213447466 2.102869280171475 0.593305451505488 -0.8856082563748102
Ni 5.38862037022802 3.8514709819162056 10.2642493960354 0.07400200540876288 1.349446065304063 0.8167913947114126
Ni 2.990975494990644 3.108688821170308 9.988737313234637 -0.3754270842943276 0.6418661340230107 -0.43839802869990946
Ni 3.522057900994648 5.539402478420373 5.5064723359270955 -1.474972206734047 1.1099074395106499 1.1886014510784433
Ni 2.8875448307101026 7.743426564433764 2.6988099214621633 -0.9485437195567664 -1.4422058109363032 0.202971882412973
P 7.104493777926364 8.174223283174753 5.587841637756291 0.06867956475458495 -0.6555438886204195 -0.9141158768961999
P 4.1802327362365 0.047261188654206365 3.609277046169758 -0.2177097028437799 0.2765792234864785 1.5313901805124595
P -0.10241924711543827 7.561808794004483 12.171317866601308 1.6073323403667288 0.2308040741338928 -0.5117410603684348
P 2.0392849792225505 3.0761690144358265 11.969099566240654 -0.9393746514629887 -0.6807324720709051 1.2670625206998243
P 4.835476601772671 5.647522694230008 2.815205706974129 -0.3184761208305805 0.7851992217274284 -1.158578936574424
P 3.1115825722130617 7.780887148672111 5.640761924108899 0.7837933425188373 0.3363810261354594 1.0203122076493203
P 1.3086733212545354 7.296374594658403 8.548858900488565 -1.663754427910199 -0.14680973339910844 -0.7709200861005949
P 3.6557938615653782 5.222625133563314 10.475728630199438 -0.2601874123920164 0.6581029075968473 -0.48529546458239653
Ni 0.774368709507427 1.7154733070718533 6.110117177644648 0.6537358888774031 -0.9317796127245502 0.45177753533060905
Ni 5.016852450892912 -0.26362723326086235 12.46351228459356 -0.9215173115665937 3.2107494048394507 0.1383916845387423
Ni 9.285944744873131 3.6732587191449553 5.205439415955707 -2.2102598883430127 0.33772237065470223 -1.8860396659398035
Ni 1.8497396335893257 6.945988797176181 12.899094392920682 -0.6770239128710663 -0.2568056404039771 -1.3488976489997608
Ni 3.058657633527588 0.09890487486833853 7.179604761583997 -0.13575784646032102 0.2770425362761422 0.09897024531832632
Ni 2.08975348615469 5.103851075490165 8.821688448158698 0.4331146688137831 0.31218206029175266 0.7478032975774734
Ni 1.433197662750262 7.0201283737313585 4.64108259482633 0.480147858943186 -1.2309112675902478 -1.2980129463347516
Ni 5.543226696036359 0.02079685837832312 7.787172450374298 -0.565182982237659 5.192755496274251 2.3099886090939186
Ni 8.547284551046655 8.860116717633206 9.505000768343002 -0.43507770607742485 0.7837887145331469 0.846746032091974
Ni 9.091551668393365 0.7251795941134825 2.110090694045836 0.37505298878436055 1.6157473039033012 0.3296959008057999
Ni 0.8715094197529164 3.3473069738758228 8.014952528434799 -2.957522482925668 0.4397617418166555 1.1048022570736005
Ni 5.750339250572217 3.5861763525561106 2.1389342273494747 0.9873450086946803 1.1726109891874579 0.047152746426402666
Ni 5.445602143172788 1.737460232197341 9.663273132449877 -0.04970045254892086 -1.724362014289927 -0.12428455571339887
Ni 1.7984523160727417 6.843395552811548 10.645262431242148 0.42049672293945645 -0.05242710745146455 -0.8040376945901702
Ni 8.712740117098885 3.0884976965311592 2.47049947745492 -0.6249482752217496 1.0873030718475725 -0.002114732350157648
Ni 4.633342043403608 6.815230329639795 11.580840987828147 -0.659536040498948 -0.7202289875036306 0.09528482604693912
Ni 0.9569755659040556 8.48907456222522 6.317088301261373 -0.8607968537580853 0.15974109674879586 1.7743609719158733
Ni 7.991386601534535 3.931677200528861 9.673173296789075 -0.7177969810233702 -0.7496485783163283 0.44179908396165846
Ni 4.355355849984619 8.18481199277814 9.76889690644353 -0.9466930395012728 1.434858883652929 -0.44751181807571966
Ni 1.840230265210888 5.823325048576586 1.1194489865890762 -0.8313821480413941 0.27867750077640396 1.3770185756056932
Ni 1.9788232612938923 3.509775742227977 1.5148200514873773 -0.6165536234001511 0.07715186389165422 -1.6859381630960901
Ni 5.695776690717852 6.8864203271578255 4.442908102192946 -0.7619006562108039 1.884949003978786 -0.9073965558944953
Ni 3.9607263669451847 7.580957796081611 0.17222005803963256 -1.5665788125984506 -1.10052265586164 1.0187438347209359
Ni 8.40684923114865 2.7110074077706705 12.024485589012329 2.51863620173543 1.115604489895427 -0.3394897469677702
P 2.74308059055 0.847455928368279 13.513308404443586 0.17258787080447696 0.09410340414432825 -1.5725769391634141
P 0.8444235378061138 8.411064244725393 2.631944732576518 -0.26578084731939383 -4.082459820186247 0.09346911299443902
P 7.113509999020988 2.957990454969547 4.137871384556937 0.3451816551462249 0.9157847799581905 0.5063456003844763
P -0.06689682474913512 1.3163682798151695 8.049066224409227 -0.26948657830575523 -0.5414043917608224 0.312546642720023
P 6.200405932044852 7.878167428903586 0.1397812018970224 0.7281271593047847 -1.1404847980768744 1.2041702520509776
P 8.04227381842463 5.4283047695763935 7.53246932201731 0.3618092364005769 -1.4381699503040328 0.5285144231720318
P 6.791410385365039 4.243206713912887 11.855713840093097 -0.39992584076664023 -0.7946562533752702 -0.0008464071606953166
P 7.68413723438738 1.5693714457428614 0.7716191807835244 -0.7783140645718208 1.7061999986689194 -0.013757458795408564
