# total energy = -340892.7660605847 ev
CRYSTAL
PRIMVEC
9.04610751515226 0.00000000000000 0.00000000000000
0.00000000000000 9.04610751515226 0.00000000000000
0.00000000000000 0.00000000000000 13.23989274299086
PRIMCOORD
 96 1
Ni 6.186669193692844 2.3039350604810664 11.457498690820945 0.20186785071551686 -0.7675820228662974 0.02912879904515629
Ni 4.557410932592977 0.2543892111517318 5.855011749594899 -0.007001113908181492 -0.2835173453672085 0.12134732746194585
Ni 2.650916610906969 1.5350068656860578 4.763038005167246 0.6891829168311034 0.4449304305017886 1.002512717574054
Ni 3.419835759594346 4.183263920949332 4.927967544117635 0.6038361758334827 -0.09614820248849892 -0.2404930192868826
Ni 5.384333723414278 4.381491277480937 2.7647808722768854 -0.4285118799344491 0.3004586012072374 -0.5508282561778837
Ni 7.29678038392189 6.054125624674404 2.594687815090369 -0.5129623343700456 -0.32937631268285206 -1.2904847562785067
Ni 5.028450803078864 4.790691956197096 11.48604368345251 -0.172643920853393 -0.52780325603762 0.12159878135111961
Ni 5.7269821882846355 7.871452463435572 12.332218400535414 -1.1795002601081235 1.3048376825660688 1.0148828091036328
Ni 1.948775828756183 6.699257836530745 0.33715928675949364 -0.46828658872922574 -0.3119414050358563 0.47498251269216263
Ni 2.5250400232130294 1.7197102913083975 0.4225536381911874 1.0860612290206715 -1.5000872566341197 -0.49205772300689443
Ni 0.5461171361637225 0.09112506061632261 4.5612356268996255 -0.6637768180531729 -0.6695515157534211 0.10883711081007708
Ni 8.6183262478247 2.163756576621542 1.1304938799446027 0.9396764989741236 1.4381753496206715 0.9003579038801589
Ni 6.990822931605367 0.7491705911167955 4.779958749492184 -1.2908794206137637 -1.3061707995551957 0.28113907494301904
Ni 0.5307016641486854 7.154856001289463 2.5647397711651405 1.1941025834023304 1.466456713063868 -0.9158040632319002
Ni 7.652437151566513 3.8067920596443603 3.7774736248102925 0.4370746819027957 -0.602341336455511 -0.39737222110685116
Ni 7.881050383632717 3.7787672182016134 12.382332027593042 -1.4423235674610904 1.0052481142273462 -0.03460370611679847
Ni 7.9996086702526785 8.521750002749565 7.044814625004667 0.13409100028085938 -0.10163493663468302 -0.7039292219023425
Ni 6.820927984175983 0.9411841763162441 0.4849618301309444 -1.9159338823960745 -1.4830372431303684 -1.7592487988647831
Ni 2.0011980224813986 6.426264400423831 9.379339098442044 -0.8551735940340369 0.8379970822547503 -1.1274513619316842
Ni 0.09866589593803787 4.952544913941973 1.306733767266802 0.05559496365648489 -1.106862996257371 -0.16092457553393577
Ni 6.566343377099408 1.6875694708932651 6.972524465088133 -1.2487593515152624 -0.4102184809419 -1.1582030412922442
Ni 3.485926621950934 4.372010956683003 0.2913452746591734 -1.2085609249195055 1.3348535122018688 0.08842383726104772
Ni 6.180834454270451 5.478223274522822 4.792139333418155 -1.088987401528531 0.999637195798472 0.3541483774212094
Ni 5.16056920503862 2.7732290321940516 9.250885274683858 0.9282114357573175 -0.2939696510487841 -0.3028034472903301
P 0.29982509595305046 5.506356669257149 12.281947371204998 -0.65105037162544 0.1851137711856296 0.8417485788773826
P 3.914965414703227 6.4104065737456075 12.66107155126756 0.0013074059575138776 -0.36813363595670795 0.16578601739129514
P 2.233058807187353 8.520058380622453 1.6607061496704176 0.13574524805483076 -0.05766907257669423 -0.6285308503666852
P 6.2870538500808895 7.820179125379571 5.74604776472903 0.6824209155169215 -1.1305436277037628 0.6927341245174714
P 4.715238372441785 1.1570966732676595 12.822981499490515 -0.20130580756445973 -0.8426032135681939 -0.6692900345619184
P 3.965831677915805 6.061986692206278 8.387512097771722 0.47527844666602664 0.9078099892828302 -0.4694073325972303
P 4.801465870386352 0.8422152357725472 3.7343381651796936 0.03277539465880807 1.0237420592664757 0.6667284444823292
P 0.18886373052211985 5.448877701365859 3.6523306764452768 0.766205454233745 -1.154134270539509 0.42928372510346713
Ni 1.5422980284371406 1.4062083852271066 2.678019653982054 -0.8441543601053978 -1.3057041443314221 -0.9419174724895004
Ni 2.2152832056912275 6.389347235179205 4.965317113307052 -1.2588110793243092 -0.42567518181660235 -1.439058266446257
Ni 5.957323226908479 5.82187585734029 9.213005603587227 -0.2659153160147291 -0.7694650988216233 -0.29707837188109487
Ni 8.566446820557381 2.2394634513905376 9.936314277595997 0.5037711547890807 -0.11660621323253466 1.2548389820504386
Ni 2.497367979967916 5.2018104097311575 7.11771358796481 -0.6912585684132094 -1.0856156568428206 -0.09530385221033263
Ni 0.3275821726099016 8.92118088522358 9.167831151296463 1.6233737101003074 1.0939221198259872 -0.05738933655274632
Ni 1.316371490337526 0.9715519596355797 11.542352989627032 -0.9926507371783097 1.7678334552100006 -1.4353836458081475
Ni 4.057351148824866 6.701962622712599 1.8083313893322888 0.5995354915755997 1.2518729574435796 -0.7678635586624581
Ni 5.765853312777691 7.951338639930374 8.005593575061756 -0.8222336487729066 -0.0857419195535104 -0.6777808456417489
Ni 5.42448034908339 2.767864690368503 4.8677132304049655 -0.3327634839875301 -0.13598538909009486 -0.019942247449881784
Ni 1.191661850528065 7.328188469618861 6.943158990494381 -1.15301249823024 0.7695036653690425 0.5359580239342705
Ni 5.059198522918728 4.601773044418423 7.083766259855644 1.3185540037108967 0.7622963489873259 0.13519965996400585
Ni 8.05363202502869 7.164743396930819 9.24464888808262 0.0260244490882197 -1.042980081560481 -1.07588891647336
Ni 4.536460147318154 0.4906681148249679 10.685202630154684 0.16281433635748088 -0.6322720625766723 -0.41797035697317697
Ni 8.104851086438902 7.08252332466706 4.569616845620317 0.03802661575541838 1.0423527323891275 1.2068735099147538
Ni 7.411340290968678 6.096235255699578 6.986069202044952 -0.014688455250110187 -0.47499305421512394 0.13997162743135247
Ni 2.385521905210613 5.189887639872687 2.4416873782737913 -0.821988879751952 -0.37410733704163956 1.1059692807985082
Ni 2.2687547479017107 5.250044255622935 11.39822407056478 0.39911671460178355 0.1837721695560706 0.731120951825786
Ni 1.2402304024022124 3.357408570828562 3.9061128937749268 -0.6877716383058735 1.2774047831660968 -0.3288584925061691
Ni 3.7615162909481215 2.600900681811763 2.788970164083827 -0.36916439121406747 0.5869807948390406 -0.2693991607982715
Ni 0.882284064916028 3.3806208830112894 8.172032909375861 0.3503763119732869 0.13241386968875257 -0.4890778144429641
Ni 3.6957782267891663 2.8934608487258626 7.103877566342254 -0.9525209590369595 -1.6158874290255913 0.021946679474420267
Ni 4.180559134767479 6.766108571928389 6.160893214607317 1.178393657307506 0.5062918643284054 -0.05171799719958191
Ni 0.7425488403304525 7.331517437227296 11.345383042056218 0.7462421237379406 0.7934516915442077 -0.3391141087959063
P 0.4553530152419014 5.680159535183391 8.014543793952477 -1.585378976024089 -1.2338832057343783 0.42069469788287545
P 8.587949418397733 1.3946655518891642 7.729860072953225 0.15127136871488786 0.9218703240306381 1.2523866638552044
P 1.66425765152659 3.303511861559393 10.397963383749502 -0.21115416111344926 -0.6881421342714148 -0.10781484019314981
P 4.111139304802456 5.9213197185346464 3.822516003929636 -0.07061869075882676 0.4619364781414818 0.32628558957267034
P 6.756800127175455 4.103712450436899 10.322442858797716 0.4703398717138287 -0.26769246251980994 -0.11043967941050659
P 6.113748520074386 7.849995096133378 10.23478155279354 0.2785021515408042 0.8511631873230631 -1.0771436148160676
P 2.293007362462074 8.576488000028474 5.671732181313777 1.085364202953647 -0.06256548143704709 1.117807925304649
P 7.000601773955144 4.102735470812684 1.2371194459876995 0.22701323963289288 -0.14184647585656215 0.8076056144470865
Ni 5.172256776098667 3.012851377247933 0.5475066182959388 1.23308744930596 -0.2880926234427167 0.07205130944029527
Ni 1.6987504599259429 1.0195958372670935 7.217449638435668 -0.6055279617136088 0.7287920465822932 -0.5855674594312817
Ni 6.7023244670178626 0.7707347024890423 9.20874307767121 0.0826591668631286 -0.26371727992214583 0.6262394832293473
Ni 2.933471782780501 1.8173539770840625 9.357241266719532 -0.8961109556783471 -1.0775431642473314 -0.10328224243011891
Ni 6.235364391073834 2.008498231340113 2.5242647717890003 1.0920056195295644 0.19060821864129754 0.6774304042808655
Ni 3.9869091086974704 6.9227690638927175 10.527329959767718 0.706489526430351 1.01988386186265 -0.032338307121389465
Ni 8.211323773263025 7.028934183057366 0.18125957244698326 -0.19006263055047268 0.6247310170046209 0.4951911264295536
Ni 7.373681344898259 3.407415453816137 8.214492624766379 0.18334588065192942 1.7462886391596895 0.24578614936502186
Ni 2.9523871938382107 8.685891625725242 12.432100997949904 1.3188373392792705 -1.2527882701689972 0.4095276255224624
Ni 8.887221797174492 4.769623571523062 10.099667984596957 0.4468358750546175 0.27437604518757264 -0.15724121314507758
Ni 8.709076799585073 2.571039480519798 5.700343210531052 -0.43893590348125044 -1.834706048662834 0.7763921649587596
Ni 3.607732461210646 2.6675885872720375 11.679597820781622 -0.4371939810894793 0.47280067454949537 -0.6893171284161226
Ni 1.1128883452719511 3.4891560823754206 12.576243486173603 0.8901480532266927 -1.1034316019783192 0.31498970494387685
Ni 3.289418025869335 8.314187063142132 8.038190319301522 -0.39569689028695726 -0.029268924167446368 0.5885067445652639
Ni 5.641577886134547 7.714032098430187 3.5912676407103414 -0.2846656000390388 0.3454490498749986 -0.018232206737310536
Ni 3.017980520275059 8.339443795649604 3.7151929829881407 0.9890313952581676 -0.11150411611927893 -1.369300895246461
Ni 3.4720046623058765 4.242380234321943 9.588250812697352 -0.17244877412345141 0.8604320142194988 -0.9053520146606409
Ni 7.210426240470481 6.3015004839685815 11.247884998613424 0.5273556269772401 -1.8514182192111923 1.2486855608545335
Ni 0.6117620254140718 9.042633926285658 0.3440108086796798 -0.5430067032509357 -0.27182011153493835 0.4223725998059306
Ni 4.364765024470079 0.39630816611957936 1.6694844925161378 -0.09064912704714066 -1.061048766136734 -0.6854193360236132
Ni 5.928249036980464 5.877608926458677 0.3204357475809248 0.16383686408472428 -1.1327516910986748 0.5610309077424983
Ni 7.9394339622871675 8.679070860571002 11.274125947631216 -0.4942945827572132 1.433363272944009 0.3327565420089946
Ni 0.24142342508333625 4.841051637382304 5.780021326550329 0.08004538338936537 0.9380268791858426 0.5724558617499883
Ni 7.869616103586353 8.914314889531182 2.325626721970919 0.8961364095996438 -0.3829552743505727 0.7540937585718754
P 8.385895558337953 1.5957967089705187 3.5278888014217116 1.382276995791155 2.018361233025066 -1.0611045590753336
P 1.9060058318739015 3.273786351881902 1.5317765006508077 -0.9736556841330457 1.600083115003483 1.1167146922404703
P 4.561156021152467 1.0727236273875753 7.936892006042683 1.1692274174272057 -0.07470185968926489 0.8403915506288558
P 8.27481840272934 1.6016224022852794 12.196509598456672 0.46993235186276483 -0.35860795585445987 0.08644177383401241
P 6.33132550083002 7.8070079926679385 1.352137086080647 -0.40102344470619317 -0.33022374828481194 -0.13792708619749794
P 1.8130842142819399 3.1690867021535767 6.091105208061688 -0.06587166299214461 0.05087364692141561 -0.10155291844383801
P 6.884739227409403 3.920329756528775 6.070768653495052 0.9035183038860117 -0.21809228299417927 0.24297464805815577
P 2.341494499367537 8.669699093064649 10.159049348923176 0.34196649064303686 -0.5112342959353453 0.012878141514248789
