# total energy = -340869.8809964083 ev
CRYSTAL
PRIMVEC
9.22069600757889 0.00000000000000 0.00000000000000
0.00000000000000 9.22069600757889 0.00000000000000
0.00000000000000 0.00000000000000 13.49542064932765
PRIMCOORD
 96 1
Ni 0.43215741924785156 5.657782117102956 9.399020463195455 0.04612353383093992 -0.5840116849083877 -0.07329572337035764
Ni 1.1520429655554474 1.4953018115606231 4.833897263888873 0.34202511179511413 0.7306604672495997 -0.7312896161931665
Ni 4.86857353493332 2.380377968928791 3.854778307039377 -1.826904293230228 -1.0045006945383603 -1.7703806471118864
Ni 1.1531033455831317 8.768872573456791 10.81763190287561 -1.1446492138672093 -3.252830650280217 1.7942744230103482
Ni -0.06242318912537777 2.3777131878157416 2.38432995918849 -0.05836532731277045 -0.40229022723375873 -0.12351759564038726
Ni 4.172420215714884 4.216753321567971 1.1927007020256228 0.8520347912947391 -1.2488372559410492 -0.36959890764832476
Ni 0.1311616328678062 1.9837405143995883 13.288589377908353 -1.1924514209521528 0.22851630654098065 -1.3933967598534003
Ni 2.5652621422774295 5.639239297662324 1.7413007572874362 -2.453331209880033 -0.9052196028478345 -0.7205359772210881
Ni 6.951390426702173 8.868050378480879 10.809076019156583 -1.0536190493315662 0.2745691350349852 -0.6394384984181245
Ni 1.6390985640104772 7.483221724413149 8.363584262040865 -0.305786441178054 0.24599029495602792 -0.9770215152814851
Ni 0.7958723790914369 5.945421725482128 3.343867846239813 -0.2606327274595512 1.3726109334563006 1.4306587295286524
Ni 6.590667582675836 1.600270213605454 5.068920815294361 2.202812430926032 -0.06718061161155527 0.6471350957314338
Ni 4.283511159832604 2.64334299509855 12.955239091709695 0.5985772414273886 -0.28042765069829123 -0.3540064525267064
Ni 8.887976302305447 3.688066281156476 4.6623978526983745 0.2739171032732831 -1.0484678441479298 -1.1822356567614154
Ni 6.394663250080354 5.430178459682487 0.8415461741273528 0.016799588055842037 -1.353903329744468 0.7362397611095901
Ni 4.935672538945991 1.5168966813418066 6.763621097608644 -0.06137634622495237 -1.1373953605182734 -0.3453752592142697
Ni 0.4319158370154575 8.91227283598325 6.559219477263493 -0.0865099080677865 0.10738623729616342 0.3613109566079196
Ni 7.015031669755005 0.37701028125156516 7.944416959166937 -3.2970425689107414 -0.6673573363155797 -0.09138780498537809
Ni 8.368537619874534 1.7873857953601757 7.106040860287567 1.2782362779284566 1.3870649040981013 -1.3385276186193464
Ni 7.587544677745478 4.5218753693600915 8.66893221688236 -0.09547200235708074 1.0292267365301306 -1.4291088685430289
Ni 5.79294829819705 7.80764268870912 8.874669916062395 1.8536877319716594 -1.5385244775643956 1.332018870966551
Ni 0.6517280064064205 6.466888961009479 11.802771052073584 -1.0759987025783468 0.2661621419182126 -0.29883237845772403
Ni 7.853266691987215 5.940046059776564 5.089825054953166 1.223539400606209 0.49722769724360816 2.49805297826744
Ni 7.582021480905627 5.642936796715379 2.9900586799939752 -1.3113873107591285 0.26975294459326443 -1.7070836868254535
P 8.60638547043202 0.41615858980407205 4.699308298357674 -0.8365631780217011 0.21930892901009974 -1.1650000096094195
P 2.1089575646252388 7.698700166734448 2.2045844796609675 0.45394728928841815 -0.48193143320617 0.30358789086483845
P 4.125883363543392 1.7487603002647965 1.604295047362707 2.071674856846542 -0.23300031045426325 -0.6125241905257838
P 6.436479105954678 7.75777716532029 3.478269631644386 -1.014915205003465 0.3667917772168328 -0.35268207728832807
P 2.8246495384407413 7.366312521187007 10.082995087278546 0.1499786180453933 0.1324858605772686 1.0064066533118217
P 1.4995248902795735 3.7797292190278444 3.2422345698994457 -0.6697173519073241 0.8161195654553686 0.011973370311792284
P 5.316312086101004 8.289304180066802 6.8748097811028295 -0.6009022900161393 0.9120584801465389 -0.23889919243720148
P 2.1968307964846234 4.092467561627505 9.938311303883795 -0.26043243852328696 0.3424614280015844 -1.4486186564411825
Ni 4.969660024007239 7.167707952349725 4.925598928682992 0.7288691796771318 0.3944424490545658 0.17205873777388433
Ni 8.136572573296721 7.174881653754406 7.789637435839046 0.47939195461376793 -1.228069941486711 -0.29818703156424126
Ni 3.3057762294366326 3.1509791867865435 5.723893584585495 1.0030688471878402 0.5479355080111208 0.3769288656508347
Ni 4.057567227672859 6.62946827099318 7.888694449746935 -1.5981987534965767 -0.24319627715065856 0.04607776819466903
Ni 8.359980814085917 8.514077083848147 12.560862551813432 0.9247209061055558 0.30919315286675786 1.0596521428995234
Ni 3.4825000869200506 8.668809581626986 12.013879806611234 0.6365737752758198 -0.26828253069532504 -0.7011688855483861
Ni 2.420976692945252 4.688428799273636 7.84950372599332 0.59202221391769 0.7263782949344781 -0.631503302731448
Ni 1.430259022732071 4.842940000351045 5.379760616609673 1.3104629991726462 0.719523991016806 0.9763746257261056
Ni 3.286477312932783 4.858439990147018 4.0542809716566275 1.7023865384601005 -1.2923274659142003 -2.337572432249458
Ni 2.4998689670049474 1.949891339776734 2.8431075274791584 -0.03571519401342236 0.08019373604177157 1.4111921361636084
Ni 1.4559202194020258 2.446988276059137 6.820248157295742 1.3055683900845063 -0.49714413639086635 -1.9328980210542388
Ni 8.638556478402364 6.7818494913193295 0.807076446670906 -0.4575748587386764 1.0139448706703957 -0.6320969704513889
Ni 5.575127799118954 3.6101145180778564 7.686006034698686 -0.11612747382390322 0.8327152650305207 -0.641103030604741
Ni 5.6633421967263775 4.179317296242777 5.054372401314535 0.5247878662500639 0.9056070680942403 1.2330725369076247
Ni 2.743415207624248 5.441713550244511 11.496749064362316 0.7336969400830783 1.8447814306209647 -0.19255120130028128
Ni 6.6744929290382355 0.8126245393896668 2.728868637783601 0.3762392957829778 -0.5510416577402704 0.9000257173517209
Ni 2.7885412933241254 7.009093541599974 4.326105242440289 -1.9126215301933902 1.0763630278963012 -0.6173164697081045
Ni 2.03300669255538 3.434995061679804 11.944526342452749 0.006626247067266008 -2.3507390515384032 0.7075341656447814
Ni 0.18471912289215578 4.341223495426296 7.233545565164246 -0.6619557056840342 0.86668467999743 0.5385067584980533
Ni 7.094523289047738 5.049898519667298 10.774392371555422 0.31507840800294123 0.8451213520043575 0.914133874618329
Ni 4.011555955167263 -0.13040645787417726 3.2625449967427476 -0.33208342720137 1.322479049796916 1.153246211507601
Ni 4.0458108404094055 9.284410901525005 8.86322518832012 -1.1375321432064538 -0.5943709166555248 -0.5336553439430228
Ni 4.081983630397271 6.439660246037731 -0.23120894951459364 0.35072649622385405 0.382082127717 0.7185755110606076
Ni 2.134664864774658 2.728560666540778 0.6025992166194333 0.36035810577634714 0.5369715528004494 1.9602303903206046
P 1.9457881301043911 0.5908741797220151 7.977655723721682 0.20962486895311638 -0.16963598726500465 0.17146661271584016
P 7.63865499507985 3.6807727107051877 6.309716667097377 -2.766729401967074 0.5958122770877416 0.6921178310897113
P 5.293961119256601 4.893506296627736 2.843445004948839 1.0083254676010893 -0.13037755598501416 0.9254734680008643
P 5.284906395889769 1.8434107436054665 8.897193309919993 2.326457039062587 -0.5791533283748219 1.1418258854858012
P 8.313683700007642 7.128086622097912 10.388841881767847 -0.5823741493049648 0.31110373962590937 -0.15469222147097875
P 7.5929572262346126 3.303517158942871 0.884568097024469 0.4338767437907882 0.6743867323585353 0.1357179943613211
P 9.015941119907183 9.492983042622518 0.9493471739504841 -0.35783559646480956 -1.211012986004424 1.26975318015811
P 3.2840338285211628 1.033068326449294 5.44062458605956 -0.1559582326675959 -0.6433074944552276 -1.841876084048712
Ni 3.7884704387343184 8.641313466474344 0.9208718208940148 0.3133326289564281 1.7307375787989676 -0.6344932385977072
Ni 2.446305944563062 1.116653934718478 10.276654596908461 1.2273016958621188 1.9327730654406001 0.2770109117072584
Ni 6.375723940716327 7.996371892245101 1.1907145641302912 0.603900967633147 -0.19995109330877822 1.107080768695132
Ni 7.230685305298267 8.480836475154225 5.833719449226709 -0.37651543226249995 -1.342447779609359 -0.8371984976128549
Ni 4.24068102741006 6.9338250010261895 2.3624815202702516 2.914910304682096 -0.9313355832085961 0.779280028029516
Ni 9.37412827256297 4.8155360921573305 1.542296932317992 -0.580971098309851 -2.972511243025016 0.18618797808641482
Ni 6.128747601224865 6.0944650538950444 6.750584877755256 0.3396288436487957 -0.7548429780330742 0.931377235079809
Ni 4.645506459892162 6.608758588017715 10.906053766140625 1.2096497871083103 0.0060698603431637395 -0.9908098273148291
Ni 8.798406462401767 -0.21757522856734426 9.059543024575962 1.2142055247997927 0.3350095997092295 0.6205228924605443
Ni 9.335032521977054 3.5494238977107555 10.720546273749623 -1.6836989893529262 0.16726748703282807 0.2074170626685202
Ni 6.858685550194907 2.6327668569093876 11.773903819441665 1.4419265891329878 0.3543077858172092 0.6859628672319089
Ni 2.8845010754815883 8.199245643280797 6.256585173223279 0.41521567704617524 1.3876434023093909 0.8887226336340759
Ni 5.019230485127497 1.4210844303186305 10.987040060237597 -0.4152676133300332 -1.6077982242595537 -0.08950087237531038
Ni 8.456401631038025 7.9209650412329236 3.007076396333921 -0.17222508814841953 0.33925834768325447 -0.22103105390752903
Ni 1.0196890967086887 2.5301128495336758 8.837516966101111 -2.087604383592605 -0.2176927335629154 2.4257556142546095
Ni 7.525618484128727 2.343513626748957 9.286995462583786 -0.2288618628058575 -0.8185266322349646 1.050511871161152
Ni 8.56290066860108 4.626982081843316 12.757450554458934 -1.1023453108926757 -0.540741818476159 0.28199602362667564
Ni 6.525873752636392 6.704958108268394 12.475261299422058 0.9863767312441399 1.083544633246405 -0.5948568551530078
Ni 7.032468005688488 3.3547473453238514 3.3958255455267436 -0.17575367012696827 -0.4252200965570548 -2.3513183210806408
Ni 6.437281306497361 1.5094371383644465 0.4730465951849389 -0.38894465916478826 -0.7922299033219646 -0.2729799361709944
Ni 1.0427961606163088 0.08238415159433858 2.917021547826275 -0.40758592841505936 1.0664187721993956 -0.4098850088618812
Ni 3.359542107188162 2.630544669199198 8.731213407290989 0.34067296864259394 0.7193468420089933 -0.8417814889978471
Ni 1.7866020362092787 7.497578347918403 13.524975748166815 -0.08784791015291968 -0.07295659486338403 0.4046098765058709
Ni 5.112737562177446 3.7809740129733864 10.58856123273858 -1.3391572817835453 0.04256152751129444 -0.9012909572173897
P 2.4943088873815253 1.2785785752937833 12.481819980410682 -0.2105136993159729 -0.05342700947088864 -0.026935648048579418
P 4.066714157998621 5.350050612373143 6.038377404917682 -0.8652235220708712 -0.23125401718711786 0.9216949747950385
P 5.759606261848306 8.777051330713798 12.863874904385256 -0.8201014329212521 0.45788853332435336 -2.0213228867565514
P 5.204981403890068 4.721282138740056 12.519269836779715 0.2719628077603897 0.41805263227433803 0.31198639934117883
P 1.4292170840961727 5.023803950290377 13.38637762406138 0.8557703470777714 0.6246096609354082 -0.930025606147921
P 5.471588604937524 5.392936068971044 9.027815532078066 1.0814139600566472 0.5502862676314845 0.4261734616092596
P 0.8771103981862874 6.835006803141927 6.085247124210908 -0.24583525743540244 -0.44456147719814404 0.1418395338780267
P -0.012366797331564228 1.3533768603770286 10.534808263961303 -0.9992687567154597 0.970145356986942 0.7270568090587414
