# total energy = -381171.0601685297 ev
CRYSTAL
PRIMVEC
9.23854257162884 0.00000000000000 0.00000000000000

0.00000000000000 9.23854257162884 0.00000000000000

0.00000000000000 0.00000000000000 13.52154089977160

PRIMCOORD
 96 1
Ni 2.76592720741653 4.47475267845502 0.4575526698891572 -1.74834937834346 0.5544630247169935 0.41335651235024934
Ni 5.611536842983525 6.554200754723907 9.46188692820063 -0.9639420563897075 1.0229396179698382 -0.033745986102193495
Ni 5.405591255930753 0.8611698054264041 2.4363514460438145 -0.3641422554091277 -0.13745477454676971 -0.4707311936149764
Ni 1.6671319292132087 3.281354726134509 8.85644644322693 -1.2583027722293234 -1.1182447557317514 0.495567793042682
Ni 3.099078284695823 6.048445989892715 3.8426460647145357 0.02243698884727749 0.2605723065352609 -0.13926534539294727
Ni 5.537813274677355 5.309307167097809 3.613144966119128 0.5695685128998642 2.1256986193611653 0.3608211614556947
Ni 0.997522376477479 5.176752560825014 3.0921327485238206 0.4673941588219434 -0.0756786217802374 0.4339945003155752
Ni 1.0756989222176796 7.814984635268126 8.505576765489693 -0.37416647241434914 0.5031607748985916 0.9659390322150783
Ni 6.4602909712862875 7.959031988279378 3.0221591045754805 -0.14887638612015006 -0.4273883078529672 -0.5745248284638751
Ni 4.142128198092199 8.34016805475444 3.51910307152527 0.15780377051676694 -0.21091222030597223 -1.219488884685919
Ni 3.174594130226478 6.301120124375637 8.462618467210637 0.5264410855827707 0.7391499927778497 -0.8018347734015804
Ni 6.934690123231372 0.060056992542344895 11.721202034051782 0.21533040397832592 0.34032201306107845 -0.08359993350984311
Ni 6.951753711033564 6.290569708961396 1.4806898290089525 1.1441432207650681 -0.5270643209890664 0.3382191077854627
Ni 6.668509239768046 2.963068463567575 11.965820159566912 -0.36619862371752415 -1.5696620795094645 0.9660871277571685
Ni 6.211543217320925 3.2075110567772147 3.508379895368256 0.30680845468466517 -0.8239138646888069 1.0296993052911751
Ni 4.49506823317999 1.1520000438518463 4.751888625489455 0.2931746659513145 0.8000000341856868 -0.8466609285773354
Ni 2.9042743797705253 0.7657171854089433 9.9927705283442 -0.1726089538503995 0.1930533377476804 -0.34058709379700697
Ni 3.6418426503584076 8.177772956548194 5.742679799978479 -0.17689292593773404 -0.07993534017406233 0.6950553164514803
Ni 5.076089402897192 1.5763724887320303 13.188140292706885 0.8242918168535158 -1.151962716809487 2.108288137194201
Ni 0.004377221386398851 6.4795071394663415 5.833029973031591 1.83474615787215 -0.5459799269466468 -0.02350528221079178
Ni 1.4134138394397353 5.451996454377105 11.09335623606353 1.7464629599540245 -0.09317677856500083 -0.008439903237237078
Ni 3.3342176657144456 4.366523154306302 9.992107201000294 0.4958953515854299 1.3262184622346902 0.6294294509215547
Ni 5.678451605545126 7.151897493462742 11.949986221757396 -0.33259841916457555 -0.7492312882732516 -0.1882176069219339
Ni 6.739350382847206 5.326075121543385 12.896710472880054 1.7245602463436625 -0.1690394913315863 -0.9257246647797219
P 8.779599323737264 2.913106426299435 8.177692581229365 -0.6778605498397486 -1.1342272472029369 0.8190215695935121
Ni 4.691276396549215 6.9000640663376975 1.3150861850291817 -0.7543025321485719 -0.6445220835886191 0.33338311984940006
P 4.274849098128092 4.772834248805714 2.0084896037013196 -0.44897863242923325 -0.250199190831053 -0.26692704510869514
Ni 1.9825450050955287 2.2616875635379965 0.13075955748559184 0.04182850600001184 -0.6373661892701281 0.25819120789759403
P 3.5289384237581953 8.85451466401229 0.27173879056771055 0.33471469417663 1.1537899998262129 1.342459863794217
P 3.242109398043706 2.5222421746832198 5.981267005018639 0.5385671794223433 -0.29502637444807256 0.4479442776274479
P 8.898370024757828 5.672548176955197 12.078021333090922 -1.674561288717716 0.24348604047693548 0.9970696921816119
Ni 1.5663394316918675 2.9530815992393835 2.435662250781203 -0.05960537036745863 -0.5010766386760532 0.42246824484353046
Ni 3.757435292795348 3.522877939947563 3.8529359532332585 0.6187940826948956 -0.24340119407261304 -0.3594111684820455
Ni 6.099840001231965 8.539258643350674 0.481620920534675 -1.335803534819964 0.5754766508541831 -0.6842667104764086
Ni 8.688849121798478 2.949109026009853 4.977671210771175 0.5651757831488072 -0.37537411956920513 -1.0168461034775906
Ni 1.9755329514182876 1.247092360715931 4.746303926612127 -0.2044096433007641 0.6483229453919479 -1.5065448393340053
Ni 4.2252473640133275 2.536746686242203 9.039014822605274 0.43360446396600805 -0.8110696617362869 -0.6895935220059608
Ni 2.391747763364343 0.534062582581434 2.2657636084423425 0.2733483752540066 0.2806641921891296 -1.2061284042186131
Ni 5.406949321662709 7.679344355835649 7.322454843874313 -0.10440967116634277 -0.8536784975457491 -0.04903865059520587
Ni 5.850288494078303 4.524049540670774 10.561473025632901 -0.9198630637926223 0.3673563914710512 0.11343835702751431
Ni 4.310177284243729 9.063324199207281 11.6994591245269 0.2875616906399112 0.005156604500274989 -0.016565617668165018
Ni 8.172562418637835 3.9495138277143402 10.588840359767408 1.7414225693166394 0.46118108803269603 0.017282441229531525
Ni 0.5118586697910773 7.789985139549268 11.42067224996661 -0.7187251492645944 0.09083476069538549 -0.5505667749863808
Ni 7.023324698961871 1.696362677348637 6.014259687617008 -0.7507942618849973 1.8590811350730887 -1.9353379979542993
Ni 7.177580641318776 0.0613670178538505 7.417498196463709 2.154144019186051 -1.1931613025349839 0.7335871539780914
Ni 7.485436589522593 4.660973977496053 8.443701627804158 0.5672686611220941 0.4987562180729926 -0.29661994418743753
Ni 8.099365447248138 5.218150469293678 4.049837007282053 -0.48272281875921375 0.8773791835967987 -0.7047635448781798
Ni 8.448656258090198 2.334126974451364 1.709447224941623 1.2549220286825484 2.1567169221195504 -0.8808745983445668
Ni 2.5960304127861487 0.6549211941831008 7.486065734259642 3.5981735135946544 0.9683342719201322 1.7501604634102697
Ni 0.8583012380129873 5.635926594904362 0.8570170806201857 -1.897128062543481 0.2532498047319187 -1.729550243359086
Ni 7.18388132723166 4.549381623915826 5.943988562603572 0.8327741432929141 1.2300594611129139 1.5756884882092024
Ni 1.8232910113033307 8.341442973604849 4.058909255913213 -1.1586938648857334 -1.9409075216222766 -0.4856849867113312
Ni 5.345245097011468 3.4857851922346224 5.920055194677011 -2.5446279978135014 -1.926639698849353 0.11387827277841032
Ni 2.772939261093771 7.626730856900356 10.47799078499568 -0.3773608109819308 -0.9504756464721568 -0.03026805485592206
Ni 8.797272655337476 0.33751906012329747 5.839182842266166 -1.8957522652418775 1.0774925135150542 -1.4319468522124565
Ni 1.7709084759278948 3.8722057049591996 4.963324678287133 -0.4723743856453542 0.30285769756703323 -0.18695673793163933
P 2.345277895121231 6.356172598503013 5.956549284842803 -0.6163726177375966 -0.23067191943140275 0.19544832034241824
Ni 7.398816016034043 1.2851736324650573 3.5151000111058384 0.08493227916802147 -1.1962733658014042 2.412182760666181
P 0.24854173446997124 1.0262450047812233 3.1284245146111798 1.5644255137008736 -0.3941645128028308 0.2718100842326093
Ni 0.3128364464085617 3.669521323371601 12.853373394362835 0.49988801768459074 2.584524576898123 0.7289833366574929
P 7.269578046480785 1.3859568914440044 0.08814678069208255 -0.3100331322695499 0.4661646572902165 -1.456595246888756
P 8.259090606702443 8.331631641582147 9.480601443528677 0.8917742759762061 1.8563709352307771 -0.6001368726050245
P 3.88071440250431 5.776121475737209 11.607011802350291 0.6986052385862679 -0.6959271775334723 -0.3481034567787102
Ni 2.7742418955713615 7.147342892062373 12.83858156413539 -1.086082054956278 -0.6309245474098425 0.14294716511990865
Ni 4.833993399455693 4.275569704434844 13.38345878444354 0.27673708922058143 -0.2854644417912503 -1.550100098217137
Ni 6.4535006426265085 2.5658480947841116 8.06280022030591 0.3065629143327624 -0.15969353134031206 0.2323076552626128
Ni 2.839077986094255 4.309752311293594 7.166971099233212 0.8168189055152383 0.5240833839838717 -0.27543096881464824
Ni 0.7599116853683923 0.8984584102381031 8.98774091231715 -0.875452398887731 0.316413581874597 0.023675232129752775
Ni 3.890248578255183 2.524265415467562 1.597313492777092 -0.11032320843730033 0.494877966064509 0.08140806806484689
Ni 2.3357806735399356 7.213675626453137 1.7404111236302138 0.15745435759714818 0.49781905097070395 0.9170464202794335
Ni 7.8240384068144975 6.375970794853906 10.067760700812622 0.5314786480066782 -0.5220771521871201 1.8852842758310178
Ni 4.565475164766621 5.725438832162316 5.753713391159939 -0.8240035961891358 -0.013739203962963437 1.1485503486938284
Ni 0.6017958799991667 8.599752618948267 0.6231470753265337 1.6359057811290472 0.12799337202355374 -1.210413661857528
Ni 6.023936136920752 9.107881689174782 9.255899767707087 -0.885374028876817 -0.5334673963019329 1.4674920963069178
Ni 0.8434743013244448 5.619842292595961 8.831161476548088 -0.431652739556276 -1.1205456359507864 -0.22263645072143595
Ni 5.015928014825791 0.8415600753403547 6.965229972824066 -0.9266343210781847 0.45989887888616277 0.9321398242774461
Ni 8.880410298343392 1.8727911214517583 11.972039546306727 -0.0076006951653933615 -2.484645189501966 -0.325859043558213
Ni 6.221705613954606 8.712675322633267 5.180520962267631 -0.4193867777047294 0.4122645648376513 0.53099836593615
Ni -0.02064352297996672 7.208502042712353 2.4097278145720455 -0.532983771797295 0.24136256637602946 -0.013065832045022659
Ni 0.922134022831865 1.842516418025779 6.6539095712224015 -0.8731234936442381 2.8453840756564994 1.4592213716576934
Ni 7.917255299572549 0.08556368423864837 1.5663348124206704 0.547322042796838 -1.6047026160533655 1.3847195437943765
Ni 5.163153426420667 4.618301150176981 8.257091386128327 -0.8425247949217748 0.001135399156023851 -1.261585042525021
Ni 7.892338950735239 1.5594751946929348 9.829984639794679 -1.1745971663795514 -0.24536603110846772 -0.16701809002618334
Ni 1.3128800211054334 8.651534649068076 6.410467512154061 0.4734948724030426 -3.397166468217536 -1.027125373916412
Ni 0.3686760443479284 4.294739679902927 6.793762625986661 -0.5593869443811721 0.46272889213579016 0.18237323232601496
Ni 3.7100600473975995 2.3092937724956015 11.683274122106402 -1.0700062324403379 1.5927572707660311 -0.9843830978528789
Ni 1.7783824567248485 0.5023549812301054 12.122723868174011 0.5412066739277195 -1.1084827912489812 0.0399477440375312
Ni 6.241965737425212 3.070004591781097 1.2167151094693753 0.72912166200757 0.1165815306421863 -0.24642661116249817
P 8.307140265694972 4.573614320615961 2.0350596516272024 0.15626599371600183 -0.1456375674678782 -0.9145617061843668
Ni 8.406676321450695 7.987163349869889 4.406900203840401 -0.5231878687527957 -0.2784934097900559 -1.0225796635272582
P 5.485892666421633 1.4944266176949728 10.549100769658514 0.2151717669132746 1.1110796054418801 0.7809553588494098
Ni 7.997953967386382 6.889633751974581 7.6864146123299735 -0.7506973312958168 0.428665631903494 0.1927743730546809
P 3.9059171461558426 8.503394621776168 8.874362748492112 0.3873348914755071 -1.0967881285198724 -1.5782477642959463
P 1.6229532194838727 2.373871183831456 10.892628577755035 -0.6235395677996809 0.47968326060194166 0.5691188269569554
P 6.466028106113121 6.589602849178699 5.46236394665194 1.4411871398638019 0.21696125471352956 -0.3266193187630052
Ni 8.002979734448857 7.476872460723118 13.056345094618896 0.2999685489446963 -0.5715238368540222 0.27469203376609463
