# total energy = -381173.1258838644 ev
CRYSTAL
PRIMVEC
9.17848326602304 0.00000000000000 0.00000000000000
0.00000000000000 9.17848326602304 0.00000000000000
0.00000000000000 0.00000000000000 13.43363803513137
PRIMCOORD
 96 1
Ni 7.574570983577631 7.5247409970524775 8.081394906387821 0.8732199100127865 -0.3535374833100879 -1.0195318778398699
Ni 1.6670145169776258 2.940556627923417 12.199047059254514 1.3550554410710407 -0.9313232419134218 0.5768308508892325
Ni 1.6180564863780362 3.659599019594179 4.910841087205744 0.6977017529353919 0.9767294379623629 0.2949027043860147
Ni 6.3297391687914795 1.9571922705220623 13.179097984138723 0.8184566982289775 -0.4112407515588273 0.13543774411674095
Ni 6.42255199320525 2.744265581353709 8.04528491688934 -0.4745464535960086 -0.3235684477518234 0.09272143619513709
Ni 8.122691656870899 6.505213414948764 4.384766213255776 -0.527217301627163 -0.6259736311624704 0.6402507099067748
Ni 7.845510635859087 9.021999463047838 12.966201225352895 -0.29927692219431035 -0.9131627689543111 0.4013047233920379
Ni 7.585952303027105 1.3992322629950562 3.9750809340984974 0.265537106739704 -0.7562509141241943 0.8914091793273035
Ni 1.1737995315446401 6.953683293675151 8.596897085278236 -0.12887088953250064 -0.007111928454432912 0.08000296018720415
Ni 8.477733752793906 2.564358127701187 11.955266539433534 -0.8680172827659244 0.4917998413598176 -0.48365587209644445
Ni 2.1448280072201142 1.0662735981973976 1.2733704733057065 -0.5147150553950942 -0.35019170676630657 -0.7800289903803985
Ni 7.215499533430173 0.2603146398663666 1.9034118647299296 0.6688958844472931 0.06998080006451174 -1.0570419589701858
Ni 3.4183334042321976 1.1395821453288042 9.95718687878924 0.21906261732724855 -0.5899460481149517 0.2038627696583586
Ni 7.054196865684168 2.6370884303766924 2.0544327953410146 1.0273847982253856 1.786985345548103 -1.5003749630778676
Ni 1.6248393856305852 7.3639798598286665 2.5575229110931033 -1.042049856436728 1.3935816221706967 1.1746717283712287
Ni 6.321129751336959 4.325222637719833 12.7646031796657 -0.6441112213034457 -0.5893711494480882 0.022770460927296267
Ni 8.606241699255259 5.458847947304518 8.719627176422295 1.1783782306885384 -0.4070603949288925 0.32528260222945266
Ni 1.363573854881182 2.0172287306180343 7.985693613239576 0.11136116278351144 0.1366641603246743 1.3874158596796171
Ni 4.280789599449752 2.8489920772557182 11.931663151452675 0.083045860778586 0.17667978148566346 0.1530261466224655
Ni 4.6884978332768545 6.005123745428959 0.13090628418082606 -0.7136919577160612 -0.6152595871790759 0.8993227777474254
Ni 5.387797307096152 6.527462058775798 5.9963197441257865 1.2441205671916702 0.6932815123805092 -0.06159077622860361
Ni 4.2766776388744585 1.9359165459382885 7.547246638415468 -0.42304288640007787 0.35226350169367077 0.15899239150822939
Ni 1.8824702369428987 4.413547183737802 8.250752611189357 -2.256289576908566 0.6930691392593871 0.14220874429198735
Ni 3.2293851444040853 0.6851930626403487 12.484323502648934 1.3786789940272515 -0.36105770294653305 -0.3468598141795962
P 1.24141741895131 5.314387796647048 3.2282240662505703 -0.7835128351639409 -0.6890271079795294 0.12798694426565058
Ni 2.7343711762194087 3.2153879571779185 9.948226843267808 -0.3286767155126662 0.6344590429256621 1.5115332936875323
P 7.340739939791515 5.530072978697996 6.345351769100797 0.5416807853506607 -0.3602645176212763 0.48392918036248916
Ni 2.6529855636722472 2.642476200148338 2.9499333665924348 -0.7142719985892474 -1.2669468210575665 0.663289079783477
P 3.0892205239904493 3.841186135713842 6.731462113575839 0.5089611836304525 -1.0702607716533052 -1.5274131981425823
P 0.35108066247591685 8.611207258789264 1.1797875741324115 -0.2773176443143998 0.7810777433598871 -0.047325781669157206
P 1.208723660984355 1.5514849460820437 10.254379747216927 -0.6399038680903172 -0.3657535657603056 -0.011849443139418301
Ni 5.700434809586444 0.669323464795075 11.237185134977578 -1.9498683303599906 0.47876460544241417 0.17130463321667916
Ni 0.931386605754284 0.6677741367925982 12.334175445811756 -0.9884868356086073 -0.5985692710075884 0.10636653778239745
Ni 4.080772088608684 4.294346219471422 2.512842971618836 0.9661406067029232 1.3425123142987072 -0.7814662370475574
Ni 6.3286561077470935 1.921533862408188 5.820513236868445 -0.7818182210703374 0.43369136725285956 0.5189702311270223
Ni 0.815243912165779 3.6392319648696785 1.6614321633573277 0.6034132293634511 0.39415988481714054 0.3506200525529768
Ni 3.8878679024235367 6.758640520851514 2.5300911776748447 0.8123837525620202 -1.4080967850677362 -1.2866147318001389
Ni 2.376245109864931 9.248607040376909 4.035653417626606 -0.8836778721213169 0.42617551849178864 -0.4257710839645183
Ni 8.55963336041298 6.6384115664413095 2.025564629266431 0.8291010653167011 0.11738628593166882 -0.6195559005615846
Ni 6.33581532482015 4.10939977841748 4.3567571532299585 -0.9955406571315951 1.3865892500132635 -0.16243432731024282
Ni 0.7713854469582275 8.2132373958782 6.5129499586293775 -0.3241253486965579 -0.13384545992895658 0.7176835953739574
Ni 8.182645510616029 2.590709553620088 9.363125142398836 0.3420176555959465 -1.1446623264933318 1.211430790268133
Ni 2.8883218787403906 6.147729842434175 7.021615085215023 0.9223614047344437 0.6196548880332942 0.08857167569282165
Ni 6.767075547120922 7.07886862913593 9.986083498162447 -1.6791249968289983 0.7683173583704251 2.3167151291844745
Ni 4.935766176800091 7.02429336667902 8.291926369994512 0.143499695189269 -0.6098962659846335 -0.7912251162065341
Ni 0.5049524300394264 4.865266245597345 12.751854266185603 0.127803881720567 0.4153254631511621 -0.44311266056675946
Ni 4.315713728889466 0.3163070601644049 2.5474880751623705 0.5798444409045755 -0.7675840797488265 -0.44893620922707195
Ni 9.19344435498067 8.735667494059312 4.419465469851529 -0.3893318673008779 -0.07057421067413652 -1.0443345387058465
Ni 2.9808593486513506 5.133544137684972 11.686861984274614 -1.4824268632398792 -1.6176746028330011 1.5884858970841869
Ni 0.43661219598705214 1.3522108923985627 2.8504698130874644 0.5820998125976555 -0.1389259597756575 -1.02423056886712
Ni 6.432308721088145 8.574906356835498 3.8838256983222883 -0.6653220510531058 -1.4729721455848828 0.8214522905221916
Ni 6.4389631215727166 5.161226443700788 8.801907691103589 -0.5048641307429433 -0.6033708061612899 -0.6227145007952244
Ni 0.4099266732714078 5.551211026030365 6.399650759206555 -0.36325188238437445 0.6271720223459457 -0.03658859775731118
Ni 7.583565897336086 8.398826330772033 6.085881549709714 -1.1237962816776002 0.17813939675032545 -1.650585237518093
Ni 8.677751263634974 7.539353142668253 11.01861974482724 -1.0014935322809204 0.4279693771674178 -0.7853732854114474
Ni 8.482506564175944 3.676441536682715 4.134282646988063 1.6141215953744203 0.8950616884782263 -0.6410870897651411
P 1.0155441202963982 6.1446183365524245 10.630387334983876 1.0601380813970065 -1.0715344961594062 0.27212067349449265
Ni 7.66631910391387 6.2897485165000635 13.051182967706755 -0.8903275162273506 0.3362720113614209 0.20287418049284414
P 5.659526308952329 2.158779302029146 3.4345113991206184 -2.2030710839040575 -0.7765544015682367 0.5253738206605211
Ni 1.9671325680734975 6.674005725171195 4.892960483641616 -1.8147311482028035 -0.22364972247729872 -1.0385063620598438
P 5.730668733994964 3.5836011768186635 10.440221090405002 1.1387940406380128 0.43876878177576695 0.641094803074625
P 5.787694651526882 6.194677785163253 3.530723015947405 0.22991678643293306 0.21402479779302497 0.5831647635270601
P 0.31072287084742134 1.9006895265454828 4.882267550449168 0.8221074076076873 -0.5260793313679779 1.817388897540625
Ni 7.790017525059477 0.5926436607009333 10.752150013974731 1.4386728580823802 -0.3319577002567831 -1.8128326456285102
Ni 4.456071097455069 4.056559249328272 8.833019996376073 -0.5423130196180209 0.38227984555010297 -0.539381962014155
Ni 4.157788743044596 7.679517763081888 4.430172170769118 0.5563998367283902 1.090028955419168 1.4723964755870707
Ni 3.264777376498577 7.3535898165893085 12.060451959506892 0.09312767049462027 0.29949777995586485 0.12490856245064295
Ni 7.842922303532674 4.8505347796970195 11.032671085105626 -2.148565753767325 0.9701834093137292 -0.3673026554149803
Ni 5.1251641823161265 8.993050526319095 6.8217490193505 0.28845412054719355 -0.6975785970939664 0.5122964186512725
Ni 3.7182954211098105 5.153755158191214 4.724073635039886 0.03871001497568818 1.9104270936452323 0.013999656713201695
Ni 4.37076627248458 2.291564421767478 1.2857237941500985 0.4885569089424876 0.055586993236684916 -1.0456023496746767
Ni 4.304415015790836 8.226298377794816 10.016200855831444 0.4203686820020245 -0.29286356246879885 1.5416203428808997
Ni 0.6622753073714858 7.224494447188628 12.854836850236483 1.8268451578575182 0.789713307547698 1.7538168292159344
Ni 3.0790324073864856 8.010034951287967 0.8659146477728457 0.3337371607547091 0.9708320986413215 -1.4227474451013755
Ni 3.1847868934323182 5.959139543459716 9.592020915646255 -0.11258243678512223 0.9920305870958077 -0.3423125611285459
Ni 0.4919088872413242 3.917532760859584 10.338326156640221 2.3971394931798136 0.5291191466355661 -0.5891186671176499
Ni 4.423799549725755 0.8874427806508617 4.851074474522526 0.6641108043538241 -1.647062311966499 -0.15537484936030013
Ni 5.201152846608214 4.31878852083751 6.567826275342694 1.067781199764561 -0.5985854689575045 0.3376053854608637
Ni 0.23624131353404498 0.03445602678493798 8.598025120891414 -0.07025179433771127 -0.3247683815971955 2.127760129875884
Ni 1.7340725168952489 8.395824966691407 10.71187574654542 0.4669082203244604 0.24412213139903757 -1.1898890595416152
Ni 8.22340715551531 1.2141848586234167 7.0814083155001795 0.23937741762520065 0.669621449759408 -0.7655382529633913
Ni 2.1334007953535057 5.71739664695953 1.0523177141466522 0.7792095798028967 -1.0701743825870857 -0.8625125508976113
Ni 2.4804759676618824 1.5697593065851903 6.078439635347107 -0.7570438423391349 -0.27965400575706034 -1.2118511656350035
Ni 4.238063759097091 3.0538466488628124 4.755844037574086 -1.0299224770455748 -0.5243489789404325 0.524262075653581
Ni 5.130019600049007 5.8733757943178775 11.264682953476512 0.6998290836910399 -0.7111938738845558 -1.3123283345161592
Ni 2.679740842861937 8.756098798167802 8.304957062915816 0.6183256276989093 0.17277247601145726 -1.3734509128590928
Ni 6.459844171369128 5.164503162284226 1.686471983994512 0.6656033297389505 -3.405998978907502 0.09646676217018225
Ni 5.648429522489092 7.847832792166117 12.530776725121298 0.6446776353298769 0.09339840765750367 -0.23026748490413246
P 6.70770911631512 0.31190689520950365 8.483786044765667 0.061450651106313516 0.598418347252021 0.2455136124299256
Ni 6.369647214732053 7.25927172089351 1.619089065763573 -1.3244354021923384 3.049726098944122 -0.4298174861197501
P 2.813462167909822 8.297009414116381 6.032442583501066 1.4897820180533698 1.300445467035644 0.9883048015047883
Ni 8.799944413498554 3.5116143313007444 7.3480928228648805 -0.4869309433032904 0.4524977013260853 -1.2269242579180417
P 8.171264191166555 3.9074364290898895 0.47232934639485913 -1.288066376645001 0.03046165892396689 -0.042903998452377724
P 2.931938031985469 3.7044726250687563 0.4173768482690994 -0.10975756574181743 0.38985611523546404 0.10688101552497077
P 5.090010590790737 0.2875995175497936 0.36200948269243943 -0.4583320486196752 -0.15630558870468564 0.5300313740371904
Ni 8.871582476646248 1.7586616739961676 0.6100882863022794 -0.019380461409140817 -0.4857857739552537 0.8817323183591718
