# total energy = -340884.6338664063 ev
CRYSTAL
PRIMVEC
9.17275598863461 0.00000000000000 0.00000000000000
0.00000000000000 9.17275598863461 0.00000000000000
0.00000000000000 0.00000000000000 13.42525558574757
PRIMCOORD
 96 1
Ni 0.23066913325582902 3.2694546444736745 3.219201699949352 -1.1229071942044273 -0.46413862799912325 0.07996310808820423
Ni 3.2880845121982163 5.896779667977976 6.074270664775775 -0.26850364556719564 -0.692609426014149 0.7254889503509893
Ni 2.6419555695508996 8.82973175337986 1.8835906173004597 0.3488904714563798 -0.17546956322764617 -0.8421262739317754
Ni 4.751570236396845 2.378917614420939 8.44388160081497 1.3540637665817326 -0.8261520099907063 -0.9390620053185763
Ni 7.253622929268913 8.18136465823388 7.241999212685684 -1.2312437112290022 0.7669083938380404 1.6511588506333759
Ni 2.3086909933972612 8.377074583281056 6.503985854487651 0.2849764464112382 -0.2405146165534374 -0.7374119270408204
Ni 0.9946019484845049 4.58859787802071 9.335036874631683 -0.30034650110940536 -0.41933278453834233 1.2657072922235106
Ni 2.516830003016941 3.6158179163981874 3.169890797480819 0.8444595500506423 -0.3349954586418424 -0.8491063047940345
Ni 6.682884869353259 3.904833116922487 9.061443829009043 0.3422953347373653 -0.27085903317324966 -0.557737067482575
Ni 8.858038878834286 6.418929638609091 13.081770201240701 -1.0068200867001562 -0.4726255824242118 0.29275377636381195
Ni 4.658512625335558 7.43794029118764 2.9447225660833887 1.1994877589736437 0.4763361985065796 -0.6319424471513955
Ni 5.793210078377878 8.957719219830144 1.231740626647335 0.3988999706052872 -0.6082188782822106 -0.8998349414971536
Ni 3.8693712416772494 1.9223528502056133 1.8473151185854206 -0.6001551274374696 -0.14853751472349258 0.3428717760661256
Ni 0.6181887274385752 8.737334580760804 12.87880737791199 1.200117679248159 -0.8093395664190577 1.3810140699183313
Ni 6.552173094328781 6.504383034828603 0.9690741681411278 -0.5854512455683918 0.36432274685104993 -0.15445156621508238
Ni 4.686773887009272 7.487583247428517 7.68315282930672 1.4512105855380748 -0.4057532460816947 -1.6747263535406707
Ni 6.116714841996354 0.035010575643047666 5.155405411929489 -2.547868102017354 -0.5497993006927371 0.12044101359759259
Ni 7.216418230356682 3.525567168716374 13.178552868571282 0.2916050074713494 2.028030123573398 -1.1431160650521346
Ni 2.852030030716556 5.3679977946561435 10.843377376365027 0.8533972188599044 0.5374600624010938 -0.7478462350002669
Ni 0.5117434787879396 3.111068664168575 7.494998503493765 -2.012229151985399 -0.30837939871621084 -0.23863488303222127
Ni 8.346217431619138 5.133010127808628 6.402987388434176 -0.674118052078181 -1.2439035660848576 0.07246011484293972
Ni 4.91490033226252 2.821512271031894 3.909326850156486 -0.4209487228752105 -1.4410434151970861 -1.263308967194663
Ni 0.10873018220562508 7.229067461076595 6.7050425790900405 1.6737084537991176 0.00904848335551345 0.2815998166295215
Ni 1.5510396815746739 1.8661513733231585 5.339599858915912 0.5132693240875031 0.4060926316989845 -1.1666632562444552
P 8.186859139162978 8.257819580678023 0.8313791738656925 -1.2618488377093688 -0.4232871412004 0.6582903410173051
P 1.1146641536280415 5.446993570551638 2.8827110654605477 0.7358764642329004 -1.1651864145886126 -1.1110001583541962
P 7.865326518115046 8.20691078408954 9.5048264253726 -0.6656300692118279 -0.6578141727118348 -0.1517033140459839
P 4.120145221845265 6.868073643105483 9.695773855430815 -1.9314646310418218 1.508763187141563 1.1414623314987955
P 1.4192546940815736 5.3247665949585725 7.382359809896004 -0.7610221102605925 -0.5757800410272148 -1.6300765760417797
P 5.682559121036104 0.4071630514609863 11.96339291592635 0.9495850163370871 0.6964025745079943 1.5113682288645778
P 3.6956300675903266 3.4443791041029237 9.785132093940009 -1.270888579314134 0.826281336479719 2.177805624469049
P 8.091462475285464 8.292960409458287 5.213536836704235 -0.17012166865217151 0.6701143302354267 0.4310863255298447
Ni 6.641066274101568 3.996505641806321 4.376472388581687 2.7623739532118554 0.7522451353989109 0.5111810740999068
Ni 1.9643457278240037 6.854121881013397 8.699807000832372 1.2474036088183162 -0.48655453380047814 0.30617622041730497
Ni 1.7626368202599139 2.179180849427394 9.606240417279311 0.5352671685148329 -1.1167429743752444 0.09488039151966886
Ni 7.104373014081314 1.8494110933638832 10.747078113283134 -1.471425112812737 0.7329256091346926 1.1258079127909901
Ni 7.468999243484685 8.24051976259408 3.0916077447375625 -0.5870224467102535 -0.5483792804167588 -0.781627188105454
Ni 8.398621387458777 6.21965151142265 8.856265785072022 -0.07165176000903144 -0.3534747483929525 -1.358521802353086
Ni 5.307292494507933 4.195976396871746 1.5468449801909059 0.6466100764658992 -0.6701205008830136 1.722730135113459
Ni 5.717580703986522 2.0510374461226943 0.38183707175273474 -1.8622752165303542 -1.0528721438632125 -1.1989082323210902
Ni 4.120521304847089 1.6469958835768541 5.941521620612144 0.6068227692656323 -0.7182132426251825 0.7302341783454585
Ni 7.5611395789317655 1.1100227390201547 8.543174851501636 -0.23574239197577468 -0.6082127076346234 0.17388242124618442
Ni 0.7899761044672372 7.5323187791333845 1.9910999056635754 -0.9556463920398186 -1.684712775329421 -0.40793791243783933
Ni 8.976514197165244 0.8840216213650245 6.588296325291862 -0.10356095001280229 -1.1731807456479988 -0.3997450922144019
Ni 0.15138808464431538 2.4727640825104436 11.787132903002817 -0.02493378712720222 0.6622565247539046 0.12234003039251833
Ni 4.14136180680187 1.4118614526310662 10.809720699528548 -0.9192334006284233 0.6484368452619929 -0.0741740122102529
Ni 1.3221885885862028 4.148617456910245 0.690632403621791 0.5176674531551988 0.7911335849339923 -0.08247661853867731
Ni 4.615969382348643 5.29300134043859 3.9685058036826564 -0.7227432692850521 0.0686818787474301 0.15284231274643356
Ni 4.487358168480699 5.176910938704569 13.124932605267206 -0.4143828967322348 0.7295975732027241 -0.7274008226617215
Ni 7.183689836441782 2.527672200776866 2.230955554195686 -0.42967838943872455 0.1624448688332041 0.3234409210350236
Ni 6.509070313217201 6.701386318491811 5.581563406809471 -0.8432336480633412 -1.1780833251559386 -0.9778612375739609
Ni 0.4738627477480386 6.867853496958074 10.794053632037894 0.5185390571268746 0.31267468365745504 -0.00505813124919774
Ni 0.6185831559526842 8.843197359396418 4.146752635586563 1.4882925779920366 1.2110168426591659 -0.17400172043286807
Ni 6.204167899054838 6.580140827805948 9.777318740258192 1.2868736418884805 -2.4334177587855574 0.12714773619380682
Ni 2.7376916254056702 3.146255356729551 7.1516879248133325 1.1264566021185827 1.2138262870835033 0.7050455948949729
Ni 2.4697645912519866 7.104519778179587 3.861157038552027 -0.4857456647459376 -0.7181775042912406 0.00022085776155445836
P 3.8947522579223532 7.396057486642955 0.7411009079154527 0.7798050472950505 -0.8398336212428568 0.11332908514315966
P 6.614217616873733 5.88296549722802 3.3175951032584794 0.08545781265418831 0.3875974011082744 -1.3474496036993244
P 1.8264241664718595 1.339295778791161 2.9884353354784166 0.1429523073262312 1.1910126316230971 1.1644006854625237
P 1.0040407145546935 4.9922358392963 12.041729170655232 -0.4903556527141232 -0.2395003163563101 -0.9996922174061236
P 5.5046993794413925 0.5684797273534767 7.5886395018456865 0.022645248203341645 -1.2257328087131019 -0.574444867155559
P 3.4328214313639176 3.669065765802896 5.0858089592527715 -0.33517286475997116 0.5051775482183042 2.0588797619644024
P 1.8421187522309388 0.9254301944171651 11.836873090458798 1.365249607995223 0.7414074213534586 -0.9880404920998082
P 5.5567089067669215 0.9905384175135684 2.947192789312447 0.9086844214679833 -0.6493058781305076 0.9359838806138848
Ni 3.837312458960719 0.140194570324149 13.103975609309423 -0.6568145278027269 0.6143396464679678 -0.27565002680398976
Ni 1.3583109022736692 4.578654610362708 5.178349226867645 -0.3446754049337677 -0.4575447768316894 0.4995195786015784
Ni 4.761531849567131 7.177213870605481 11.993747400551685 0.9040780330442236 0.7004836865559033 -0.2358616911624583
Ni 5.613864350288151 8.693186105449026 10.034599873633391 -0.14058843507974497 1.9860164981457733 -0.9651378764700216
Ni 2.803772160653133 8.17714519040853 11.01304584672487 -1.0030469928109693 0.34389224691084 -0.012916708061668076
Ni 7.347157523649588 7.984113710154835 11.956787614228448 -1.3188247408737803 -0.8812301819117725 0.18226601732418932
Ni 3.4566981156017222 0.25229207130952747 4.050050688510033 0.8251055710040629 0.9734242848485299 0.30347270544321286
Ni 1.7416862452314288 1.7458781947883544 0.7048446719883121 1.0989421987483976 0.5923505437913863 -2.0684555785782957
Ni 7.998469073517173 4.886418924441396 10.866039587689622 1.2081588043850806 -0.5994583584807612 0.7650176045732309
Ni 8.900554603552774 0.16406483363265426 10.892366315092973 1.1544358609403278 1.7064596800882095 -0.900777765026397
Ni 4.299270803787581 5.117930116711067 8.49450879378989 -0.32670673627048896 -0.6072169193802575 -0.03223674854651867
Ni 7.782276384004757 1.3671259209261974 4.35070886840546 0.8170639316465089 0.15396794171044448 -1.2438943101134772
Ni 5.29357922407554 3.846320105492231 6.497475032178012 -0.855719439235178 1.6204205410092547 -0.1906699251171684
Ni 6.806836323101034 2.1836846726931496 6.467093029284251 -0.22270947005121644 -0.3679042935547212 0.23938178850057482
Ni 0.681316552483906 8.743691300767257 8.70423744204899 -0.08887995096185983 0.767339310727872 -0.22786915987528494
Ni 8.364746399026115 5.071992953951588 1.5726075830915198 0.11783905719837125 -0.5915064506235361 1.6069299627219873
Ni 3.347413898925116 8.977385608998741 8.774169617600508 -0.4102449633044612 1.6443320575195295 -0.0442078048654658
Ni 2.10014838250733 6.6830591517199585 12.872256195475325 1.0159284767593277 0.4037575558079047 0.9513698761516518
Ni 7.788550549205931 0.9918409488857423 13.081838079636153 -0.5347925428712597 -0.05654524338489617 0.39426092917137906
Ni 0.07064856780621281 0.8043268814515037 1.8803141088065127 -1.9801726377704865 -0.406975291414254 0.789235339470015
Ni 0.15118169763111883 6.528910984752494 4.380069943540607 -1.5345071288748864 0.007296019440780982 0.25226198689735263
Ni 3.1754889305543235 5.527585406015853 1.7172913002715975 -0.5688437189186977 0.8333570123795777 0.5740196066926824
Ni 2.4590508120780505 3.252604291440695 11.839035109081482 -0.38439174968678314 -0.9373753616447726 -1.0547076544100547
Ni 5.571898990938187 3.8588317448700122 11.353819241056408 -0.5383730611336663 -0.3773860077929113 -0.6402455677004523
P 6.321496622868038 5.573751887678885 7.6335199630976005 0.6380822415005463 0.378790858560238 -0.6844777980459502
P 8.830474746627369 2.756550812033763 0.8143582075684699 0.37770996679123336 -0.37083098028321293 0.4799025757015993
P 6.552732632453448 5.742448045887669 12.17045045759688 -0.4570552387897806 -0.10609502928856568 0.555387593413792
P 8.774328306281767 2.5971925195776047 9.564997871113343 -0.28235006453198475 1.4105593876756157 -0.0035874602409422082
P 8.449979649098218 3.0930717166178363 5.377647534117599 1.7411559459188144 0.6081062639637462 0.3734558195005697
P 4.083866971303382 7.740311024654792 5.243838119343944 1.0158480012303794 -0.3038884528243928 0.37472440180034816
P 3.66083780354346 3.244926694549783 0.04607842320406771 1.3574175135453137 -0.3575175510037585 2.5602968146990097
P 1.9075205035238882 1.0369342180801517 7.490513943015907 -0.3216424343737041 1.2066410821889735 0.013287461137525504
