# total energy = -381175.31211188756 ev
CRYSTAL
PRIMVEC
9.20476110996224 0.00000000000000 0.00000000000000
0.00000000000000 9.20476110996224 0.00000000000000
0.00000000000000 0.00000000000000 13.47209831594299
PRIMCOORD
 96 1
Ni 3.296979815111141 2.1855232965953024 4.98442059062106 -0.1671489591770928 -0.28938100323683713 0.7444690909979179
Ni 7.86831280962008 1.0553074745321152 12.87273810799357 0.13411234043709808 -1.6514393579882722 0.7639997048316778
Ni 4.2056370324713415 5.509012824275808 10.668366221666222 -0.6757615012188749 -0.5772586824552703 2.3734406069009766
Ni 2.7010267489337347 3.118922912353576 0.7420998229057291 -1.0707114860374787 1.094527871730786 0.23642476275477992
Ni 3.9831487468761653 6.728073002491601 6.659891494525006 1.839489843204722 1.3533160897824306 0.46976934392233927
Ni 0.7683600864436247 8.764423937316376 0.46613739696316897 -1.7827139718662588 0.1340064109868531 0.5839402082405041
Ni 5.807449595429951 0.5806750033570482 1.3367945982122214 -0.5740723143074888 0.4052148570797215 -0.811551486468712
Ni 7.32686113515212 3.02537492317217 9.947474168815985 1.1565547070555435 1.5309744331312796 -0.8281237890050963
Ni 1.7638163619936147 6.365239721221044 10.86507197083543 0.4834632964696641 -0.4528738537185813 -0.7881300222209782
Ni 7.384924769488075 2.7561816786961066 0.8565288131161644 -0.43786092524951686 -0.9561336160888824 -2.4375965727535958
Ni 5.647774601006074 3.654124553892856 2.193930925574767 -0.6546319183291113 0.41037917488948034 0.19415968343798176
Ni 7.15085689416642 7.237400059991824 5.514022055380061 -0.7391139973335915 0.3283288452549442 0.26616085636663195
Ni 8.105096089527834 0.3723684935103511 4.500678167178666 -0.8642148783006988 0.5126810556842009 -1.4474112663966427
Ni 4.109152724432426 1.895389220141703 2.5399084479366376 -0.35878356220037566 -0.16266109860906824 0.3930149725794199
Ni 6.910207614508967 0.36604114058667714 6.609977755851868 0.9269099433370747 -0.17621646869599975 0.16328124869157043
Ni 0.9981735210883496 1.2095516597837956 8.844688535453043 -0.20991360383812882 3.004944166742741 -0.44362765252996506
Ni 5.926540797243297 5.86918592952812 1.6597086706387445 1.5699644412412317 1.1822233154662414 -0.7959554318026679
Ni 0.3572487525845046 8.175715018289 5.423611048852696 -0.14846475250402819 -0.7926883310156219 0.8592667902668039
Ni 4.560526604732399 9.198271952084381 6.991817028272851 -0.506858792575469 0.41593764281386436 -1.1235455991193746
Ni 6.229276191928654 8.699815717689859 12.073681063061205 -0.7878294602614238 0.16976042865801086 0.47138065427351716
Ni 7.366588884960931 2.7027940631050256 5.249430271082271 0.04296107694255827 0.4203468276251535 0.4604874043997811
Ni 6.145135468804848 2.4168021292403896 11.983404446048947 0.5551104284930052 0.6997663487739045 0.6213014224977816
Ni 2.4189284291027238 7.347627076664789 1.4790882418566775 0.5573501164568014 -0.2981713478349574 -0.39597431231805996
Ni 6.314199319763708 7.4391592231195665 7.967708583660971 -1.0272323318079213 1.2675654284781719 -0.7435892594961259
P 0.44861521333572374 3.353579892398996 9.800870855926746 -1.2139072768330836 -0.07942317642433419 0.07162193521236053
Ni 5.875859381477006 5.030061479094649 6.133994946192799 -0.7093629913234041 -0.4182956015230796 0.8363433487014112
P 1.1305748077542308 0.7649506428548427 4.134762211345789 -0.7720783680747542 1.4235645416860323 0.04029869961904673
Ni 8.584636539432756 6.423100850808205 3.718568928768076 0.520639134189013 0.39512147739946146 -0.5445321387565267
P 9.035421315008966 7.376732531923237 7.5961353815277 0.35109570663781464 -0.19125793641015448 -1.4770892530770496
P 0.5546227674247315 0.08556101779375454 11.641280957247075 -0.892469759381334 -0.4317442708288177 0.3996728442155697
P 0.257050323357485 3.811857343680574 0.2481051363175863 1.1810915158546436 1.1977990584173113 2.718197515804958
Ni 0.15613116131998586 1.5290489248124899 6.208306825191061 0.8302529195329572 -0.7928248565934862 -0.04742708313371187
Ni 2.0759682274978806 1.6991529137992447 11.395846122185175 -0.5645224658355245 -1.9338007353741664 -0.736773265015557
Ni 4.984976558204111 4.275620832702202 13.332164313486487 1.329339267251859 0.3666719638095169 0.727483869293831
Ni 6.237376381880404 1.4049779471310788 8.736763629583411 0.06047157502249586 -1.327289840921998 -0.8161205938966332
Ni 5.673317813638014 0.944758291213342 4.662693011927241 -0.9569782234773648 -0.6005760170249722 -0.6771594100076661
Ni 5.748640375427983 6.3752360920024085 12.471040483524966 0.26142437012291103 -0.2932749389746046 -0.2037709812755007
Ni 6.536116910157738 7.91375671620166 3.0425114273007763 -0.426612091808575 -0.12941647762332548 0.6262186572937409
Ni 8.594421200704017 3.3442922882384094 11.906950619094125 -1.615560641813792 -1.7215991068328094 -1.2591190974830315
Ni 1.816329525260359 6.520109830241723 6.22126712911386 -2.1364319466182686 -0.5150760382789387 1.4702760868099582
Ni 8.7639268802057 5.398942288545093 10.678295397690034 -0.8558785905208615 -2.4562175302888924 0.7769562649923458
Ni 8.260536893749657 7.317361821481431 12.068333096740787 -0.5663942289369407 0.9550678938285294 2.581015792413916
Ni 2.545098092362543 3.2560830606161115 9.73515438303865 -0.15611506996043434 1.128591389073398 -0.5331174691616818
Ni 1.2354354485841612 3.759141675665036 6.410940440643139 0.9291781705459611 0.20371338856468788 -0.9696977279265621
Ni 2.6614278657832466 3.8900057671923465 3.3661250615867693 -0.5793551599729829 0.2167879623604589 -0.8193277879800211
Ni 1.6117905242173567 3.9507479870691644 11.891336582485998 0.34696882895363473 1.4643707770691168 0.23960393181370995
Ni 3.515703353331015 3.5027246398855967 7.629302897951726 -0.3805615773074156 -0.6136037967432078 -0.8884135870340893
Ni 0.7118097148668375 5.13684591503812 8.474407681807529 3.069029170148108 -0.39337132747757414 0.1135730828331657
Ni 8.35033854507838 5.018251770335449 5.6570962627835035 0.6725789897258352 -0.15640251929386612 0.2873020092206213
Ni 8.60235570495221 6.956157782962532 1.354929818942833 -0.7941934548062387 0.22537776091199896 1.0377985373595418
Ni 7.073398827752808 2.037105725252097 2.994295046612983 0.4257019212894797 -0.8184052761657519 0.722915276086542
Ni 2.720881419076832 6.708862665640121 4.03766854810823 0.7716780473125419 -0.7481948765889372 -1.5429676009374136
Ni 3.275716816487797 4.893352364136245 5.515086125787359 1.0247941546800738 -1.9669605099555867 -0.3497559047804686
Ni 7.596054379628184 0.7255616282621953 10.68765848089335 0.4186897516377048 -0.08239202924467101 -0.9681249841228036
Ni 0.7749838326814423 6.223596854201119 13.16940756497642 0.21498124816902328 -1.0759411098675342 -0.4084727018953869
Ni 4.827483092210422 5.19363008755215 8.666223861769499 1.2531947615787966 0.3912098010498811 -2.5726373385422336
P 5.554208202302051 8.894975066959187 9.847430379578954 0.4734113115503008 -0.40614071132810053 0.3686285733152555
Ni 7.853161772505783 5.746550894610884 8.358036486960936 -2.1055501694377483 -0.6236879204520872 -0.7603081149127034
P 6.445330349368974 3.8137443197488796 7.924342191706788 -1.28697262936019 -0.20346142045488183 0.21493085454706212
Ni 8.096903851962994 4.142612031789939 2.2968447593878847 0.9772670556333879 2.3862341591212193 1.3639810256954445
P 4.724592270300576 3.724209606498113 4.1490019770905135 0.3617711840737899 0.22831987425945838 0.8067671777061913
P 4.838004134386389 8.02131435209507 4.800485527291691 1.2578844537449823 -0.3353901229770998 0.31210672696912706
P 6.393986190788448 4.689494515430096 11.320793259901553 0.2771538650430259 -0.9100766738298198 -0.12576833934777695
Ni 3.7644160038949828 5.279261982007983 1.6115999856582643 -1.0411661682801938 0.3518845210876972 0.8349842635703556
Ni 4.036996600532687 7.8149343987903075 11.167440095544565 0.7295875459003951 -0.39479263330513303 0.39279591459007834
Ni 2.885306070336053 0.5687437917485725 0.6215975311837428 0.8817274332631654 0.3777498188902333 0.4203560835965341
Ni 4.952971603133389 2.938794938301531 9.884060727207352 0.4172044253414298 1.6396796463491825 -0.8552126748020883
Ni 5.39248054610631 2.2882116137563546 6.688681226470561 -0.34715960480820207 0.7664371106285768 -0.290248493443455
Ni 8.328468032208654 -0.11900835896156686 8.630038104112316 -0.6101400065643234 1.2844537195930783 -1.940502058653742
Ni 1.7454528631825443 8.712785226373969 7.356263904200842 0.42676070157129736 -0.5593625189011399 -0.09069952066910185
Ni 0.9837496601174489 8.099812556536579 3.0586510557796385 -0.7252914896282024 0.8092935436724707 -0.40114582921667047
Ni 2.96303107482762 5.9594570236835915 12.991589065536756 2.449070891941782 -2.1446841593247323 -0.3336404872758447
Ni 0.7372166970314069 1.7972020312606578 13.290548667133239 0.9632460587639475 0.1341748182439173 0.20986526709869663
Ni 0.9896867311616295 1.8149304015414203 2.1545658433615227 0.5411912473087518 -0.9654492370628535 -0.15884712417961674
Ni 7.860111367293932 5.136284424598283 13.271310715997833 -1.8474196395747602 0.5108589148737976 0.20420061261375155
Ni 8.438860734585178 3.3652883487837983 7.503729703224717 0.23225109099306454 -0.5546008358464384 1.1570856398583491
Ni 0.2907130559399234 3.0042960197750017 3.923439301218196 -0.19821919821933603 0.7529002524844066 1.6386807727710233
Ni 6.664072297111465 6.849419370825605 10.187924625629167 -1.4228338341675948 -0.4293762848172734 0.9001265045956434
Ni 3.5910167103596744 1.113674865991261 9.340085107188516 0.07899354508608332 0.5201920193492654 -0.7683878065970444
Ni 4.548367115043465 7.765992682911381 0.39852474324545734 -0.7586178716944741 0.5685603833503241 0.5620603774482771
Ni 2.794105295288392 8.79734016375667 4.867065406790554 -0.5170928115986514 1.393235808795504 1.9542358633000665
Ni 1.2187472163312938 5.280716334294775 1.9172008225390524 -0.2826038324140036 -0.7807476137139779 0.34020348520534316
Ni 3.770270232087384 8.107498532229432 8.877991361868308 0.46585252536643645 -2.2757965365932415 -1.2685208504129055
Ni 2.2970297750901914 7.96768741270996 12.578278714200962 0.004622329263359781 2.113528302547218 -1.3260318001451807
Ni 8.068415115712236 0.1431460045416517 1.813048027853769 0.6810952547269625 0.2605509663790222 0.12249712479567293
Ni 3.8367378134982797 3.162995309500145 11.794916707776244 -1.1965621006864167 1.2857940356710564 0.27868958496126195
Ni 3.9552030915426273 8.680476514180056 2.8620668094597077 0.7871910553464765 -0.20357814853840422 -0.9715262964948687
Ni 8.840031846706918 7.451042569969236 10.017528845708922 1.9170813657369568 1.478025391738074 -1.8501946312167363
P 2.770347806350361 6.098706652763226 8.823308636361077 0.10299787842048068 -0.17278173198283792 -0.036587055095414406
Ni 1.8117731684124996 8.64918953049142 9.912419676323657 -0.27085157697408196 -0.7625218347345707 1.595474155476562
P 4.480574048004101 2.15367482246683 0.2315384069139953 1.3097055521813314 -1.2461789923825959 0.1881520437913211
Ni 6.569401327050385 5.376841656642647 3.954626873484696 -0.9281515290536596 -0.8246458577588249 -0.6330403082012647
P 1.1159852610797716 5.352191305857661 4.384211242814461 -0.17954681862081337 -1.798259890020658 0.3526357974314249
P 6.769163056974116 7.706539129617795 0.5585596438365084 -0.12957614312964136 0.6057038251698408 0.33650546752846566
P 2.6631767704319205 1.439182840154606 7.062815193199942 0.15672622118187202 0.9237071201290608 0.35120857806659517
Ni 4.2929718077693035 0.9591913569455515 11.707293823449316 0.05367126427121079 -1.5951090588276593 0.2841290108092784
