# total energy = -340872.3649918022 ev
CRYSTAL
PRIMVEC
9.16746964490821 0.00000000000000 0.00000000000000
0.00000000000000 9.16746964490821 0.00000000000000
0.00000000000000 0.00000000000000 13.41751848735343
PRIMCOORD
 96 1
Ni 0.06401094016625354 4.894035343989763 10.853014384972381 0.4784349900171373 -0.8238223334162651 -0.06662885287314331
Ni 4.436688617504019 0.5169068601312141 6.52649583412853 0.24394909615628305 -0.9906591606695776 0.12276014864907245
Ni 4.6837702598277 4.698163187196658 13.06750927321342 0.14908593102779483 0.7166564396610239 0.6348632203426162
Ni 2.0765235530846256 3.6412914472409788 10.953015894283729 1.6155704120058048 1.765413018693966 -0.21950510418130584
Ni 8.70529167875972 8.354040078669492 5.982388174763917 1.1664241436504557 0.057735149927939274 0.3682279954427271
Ni 6.163839901779077 6.195605184157066 9.380012862130219 -0.25457315152903254 0.32008820251270687 -1.476695874293373
Ni 1.149114819692281 1.668213621819621 11.893355343633983 -0.17354534962173984 -0.9975227205586303 -0.8516293283262042
Ni 8.853172131873526 3.692519267710878 2.080413310462109 -0.7040775745547487 -1.1366042320755458 0.8655973604705223
Ni 6.599927266119207 7.905154926681551 1.543430608518613 0.03850818337752723 1.3011206387257979 -1.6890088316016139
Ni 1.2724997938698714 1.7920294670713142 2.648833099369703 -1.1563153373512278 0.2847527604362064 0.6402627940916328
Ni 1.2209052746135016 3.5282473788418502 5.291748597072742 0.677611152833104 -0.3807659800087378 0.001778689166977582
Ni 7.421415055039608 4.166779975722563 9.395120852132795 1.0794830615825215 -0.5461326504744272 -1.778103983898073
Ni 3.111778399577882 6.60615197801954 2.5544539992019124 0.733642175585743 1.0026075912807055 -1.460832167788239
Ni 2.757345687515025 5.365050767741187 4.273050200788619 -0.26898135653456257 -0.25331871029664116 2.6499275277839653
Ni 8.253839635266486 3.2549009359372354 6.188723164681985 0.35939985562813587 -0.8514205547495077 0.8234297259635366
Ni 4.5984669546250485 5.932452967516325 6.5001301913813165 0.16939636045037276 -0.25440602982354893 -0.20341642614955935
Ni 4.441116505350648 5.669979143630554 10.75827408649992 0.40058430028624564 -0.9502979832437118 1.9198514722829259
Ni 6.55794942253802 4.267493797426628 11.442916305538372 -1.4278991645056442 -1.0777717353183698 0.3636262350046576
Ni 0.17791033348482363 6.787530365277405 12.197543904721647 -2.661535287226223 -1.1939544878602406 0.9664655941425098
Ni 5.339051823780443 1.959335788398383 1.2162702019525171 -0.6241226939966606 -0.37651183271807415 1.5324898413345411
Ni 7.574135932134821 9.02076264476011 12.691255233114683 -0.08827882704275118 -0.5699063558552572 0.4712359011655368
Ni 3.1443412518164435 7.419095685215184 11.85001704755499 0.8744735799142294 3.1325315615771276 -0.9232502350973002
Ni 6.4979850034804665 2.983745518281781 3.1160440232114976 -0.13076527834173607 0.6032877595291803 0.9914091514617247
Ni 6.212537500622332 8.196423772774901 5.28954840435392 1.1406922861019904 0.6768542200624215 -0.5796757765371953
P 8.634381300926027 5.180032895027603 7.896330320385142 0.8754140894506278 -1.282316104424785 -0.11312905331721161
P 1.469041175948284 3.379853547426986 13.071749227931983 -1.480735077359753 0.23379709532394577 -0.8326191057722886
P 0.4146785724390271 0.21852772456820513 4.46266647628454 1.8857555590404815 1.7560634591582658 -1.4889929464931713
P 5.355553269171606 7.916238397502615 3.227611212248117 -0.7419553234371287 -0.08394369000250705 1.1319927014454634
P 4.6717242046921506 3.878288872936726 4.4577554627867375 1.5043974539736993 0.1889933087456939 0.6617824133309634
P 8.592375954935855 2.7848480965002964 3.9885716994737326 0.0052013416952813646 -0.8523548936383192 1.0526877957665484
P 4.556259924302318 3.4255992210391546 10.982399468043594 -0.9264139775372625 -0.5129191398369359 0.6430316150860216
P 8.006950509805703 6.894725588032333 4.59888132425376 -1.2442897457796829 -0.930705662934081 -0.4585894160461199
Ni 2.579185082108435 1.2703271035600348 4.991155517586418 -1.3670000150274264 0.07305635366604192 1.190520008257395
Ni 8.356176099100681 6.635066177332722 9.575023276775118 1.4819375823082865 1.7072628927157951 -0.3052953604742484
Ni 4.024519181511415 6.71127535263091 8.672319040627277 -0.01787199518441438 0.3690420067035903 -0.7109429342160143
Ni 7.564775945610167 6.7239631306427805 7.145781328454385 -1.461030142731658 0.8733515504946443 -0.6825201600989471
Ni 0.0487883567929057 1.5403640899167552 0.4688097305508049 1.2800409352373632 0.6210617956831497 0.34468980311147085
Ni 6.475029659447426 8.536014351455373 9.436996936800737 -1.398806875125378 -0.2193030154728288 0.6347182101243197
Ni 7.359892166139555 0.2501866642981175 7.4927847231033535 -0.9348831913505383 0.5599417884433776 -0.0626158750590083
Ni 5.83304092650423 1.9176513038463732 9.848042441012808 0.8617617887745158 0.01097115429952304 -0.19971609447983668
Ni 3.6002028482169823 1.4098284894029942 10.786933430156504 -0.37861216689052857 0.3404863065530846 -0.7009593406407412
Ni 9.148034626074285 8.984056096234433 2.248024908528915 -0.8015385823174003 -0.5254265282753273 -0.0008785459502113901
Ni 4.691003393390826 4.802938197960882 2.4494351337446867 -0.2814974867237023 0.033897166968077104 0.53665273600845
Ni 0.9159246441470613 7.290136889483245 3.876710234660971 -1.0562292332609036 -1.855635085506017 0.47012389904828067
Ni 4.41457668067986 0.35674016417672155 12.678575705825507 0.7341520253426259 -1.597876080049835 -0.27324835934103264
Ni 6.443126865024511 4.4505681665719194 6.902803045551307 0.11389009985295225 1.0007839078084055 0.22563281434559854
Ni 3.9026560072976766 2.0131396678432365 8.384741934566717 -1.1627050429276558 -0.5588644962187989 0.7403671530144024
Ni 0.33936230868589456 5.801138132081316 5.777771168660462 0.21243225649492448 -0.5605074311388605 1.0371665602024975
Ni 0.43978460485471543 5.164778225510439 0.6869854242839986 -0.19180095339781805 1.729780357092021 -1.2715904904771649
Ni 0.7876112382793103 3.571930371780123 8.461449820214504 -1.3212827154959697 2.2177981057015868 0.18446688163025005
Ni 4.134446310225545 8.57216168433168 1.4787852794517657 0.5359613663683801 -0.11175222757434301 0.21106417250280424
Ni 2.6170834016901394 4.016836841934863 1.197658405045218 0.31200156884983044 0.9752549102993655 1.7605667463452583
Ni 6.773788328254432 0.5253711848699145 3.273432059111512 0.7188637317249877 -0.21502804224655875 -0.4413146881260723
Ni 0.4163122155327522 1.2757634130694568 6.95401803156368 0.6266793989802433 -0.042870831221597135 -0.3405456990361103
Ni 1.5154377399064374 1.9202823676392973 9.689353541167792 0.33344122678084515 -2.8968279932590884 -1.8487550705567322
Ni 2.213228860680749 5.598683732071069 12.545446628144433 -0.5139347255856439 -2.8211030916219477 -0.19882880677887693
P 7.39956897483564 1.0273433201751598 1.105615176147243 -2.4003806258249307 -0.6803239237785766 1.5125267679490533
P 0.10894712620728886 8.850696915064852 8.527275919373785 0.7770295414324424 -0.4499751920145476 -0.85654347779837
P 7.089295964133468 6.290085126491136 11.315636990248466 0.3301242465924702 1.5689398566314592 -0.2913370985219434
P 2.51942234738344 5.980343829029345 10.050016465612778 -1.4198549540449288 -2.1494700107491496 0.06520009084641673
P 8.537636993585505 7.23147425111766 0.9333932575875397 -0.5917699886975679 -0.694384772747017 -0.22618303042211368
P 3.59054033519349 6.6722494342808085 0.36344341799339835 1.213810346243903 -0.5790168027969576 1.4778024770939904
P 6.421033263139676 2.3799759663584505 7.592007914240417 -0.12766709903238657 -0.2757389869733703 0.8459050242479174
P 0.8256534871347043 8.659601009965522 12.306856812968439 0.9236970928267318 3.014323808185428 0.3249002791893695
Ni 7.70966780361424 4.74606321617934 4.4112103858200635 0.42764130440403775 0.05765081774424909 0.07613242148820437
Ni 2.95024758413772 3.231001342529034 3.4893461380791493 -0.18373206034675454 -0.8534728092928462 -0.7008323281445736
Ni 5.732180425285577 5.935624912019294 4.534329503377463 -0.03810117774709567 0.12506514263316523 -1.4709618000230733
Ni 8.30222554014124 1.9521851620622124 9.106671002960436 -0.6415483456722758 -0.41664726728637924 -0.2077531058517003
Ni 6.351626350330513 1.5618251363949287 5.540469382971945 0.48184298725742175 0.5141062181665017 -0.4763390267200571
Ni 2.323696870104923 8.784553621455274 3.1425975990867774 1.2375382859884623 1.8147329479750167 -0.24232595873056326
Ni 2.172516127912885 8.65379800166963 6.675121602525838 -0.32058699652599626 -0.6476241195527105 -0.7661188080572097
Ni 5.949449456269224 1.9450620381350272 12.530499985607904 1.2233679080253512 1.150850971802547 -1.704527496062503
Ni 2.9619636103654456 8.803713633048345 8.874883450273465 -0.17293728372409573 1.2070830548223985 0.6382074542245008
Ni 3.82436581638627 7.727810226074857 4.906169406834064 -0.7158894795880122 0.2370644532213079 -0.12151239228490039
Ni 1.375624660094978 7.6334402933767285 10.414637903457713 -1.4029792613355128 1.8605541200741895 -1.2481227463725277
Ni 1.5197097807688162 7.3875779245180615 0.9419217546138725 0.12266398939084035 0.5964324271702438 -0.23870661681042113
Ni 7.075590596989141 5.6699241388125845 13.320389340098163 0.9479983885762576 -0.10888673310108989 -0.024297953315416218
Ni 1.435469902046929 6.766793548902511 8.140368362781121 -1.0323269727220092 -0.2781995326987209 0.06912102316737774
Ni 8.499610329428535 9.147713764636123 10.483241745924506 0.9546457186894463 0.298668342076034 0.946275749458196
Ni 3.0719915812458556 4.510083379616048 7.621271394147713 -1.2774523485745806 0.3592787566692393 0.8952694336136582
Ni 5.413867543690043 7.290677770193288 12.649634004103339 0.4385600081990705 -0.08900876323024026 -0.26908908575702045
Ni 4.506223874888447 3.051804813050666 6.476193011347503 0.09576587944841572 -0.05227566947526481 -1.4267779064170074
Ni 2.372431138826825 0.52402265008267 0.2659785475374604 -1.1412949526829956 -0.1470401042423597 0.18305611732565247
Ni 4.556644958028112 1.252569714825211 3.765626171275527 0.5016355965033168 -0.27748836556430917 0.10920657833435385
Ni 3.6070784504633004 2.6148282041533473 12.94194794173813 -0.6717516087285335 -0.6775219355534072 -0.2816800350481536
Ni 7.15159808795477 5.729512691614006 2.1349551712147337 0.5870008494436987 -0.4826814239983171 2.4942109788135305
Ni 8.373135917974933 3.564513888823762 12.696863891053745 0.4056115782975079 -0.9786965889910628 0.5358914323623932
Ni 5.0642660881389325 4.157355816910277 8.985779580530844 -0.5493519287426732 -0.5389464171386331 -0.775917025094554
P 5.629202238575059 7.706404184414654 7.253537600352612 -1.1337346238372343 0.7713846844418392 1.8075017203339
P 6.171687255809542 4.040690597994755 1.2022595580684539 0.931263335209764 -0.482153319408989 -1.3724111587406684
P 2.108793046294011 2.5897551746284413 7.231828115446604 1.582275654508417 -1.297547576662559 -1.3237160075278107
P 2.4441390865210897 6.197722869648932 6.343305954865501 0.38998518461416065 1.1802700483946125 -0.9848258418172522
P 1.2369850164002238 5.303812070400649 2.6873273044794215 0.3698058814528083 -0.3580178876789447 0.2612629048443823
P 7.640829273924105 2.0267258578819605 11.241411655385086 1.2445221735054632 -0.45175850916721555 -0.6683981188752682
P 3.28132158350242 1.4332788767977693 2.051740215601031 0.18613347069939556 0.6907374058024168 -0.4838443339581667
P 4.482388453767879 8.567137910957038 10.491681318495122 0.609935346752685 0.4376734918290591 -0.0783494837441812
