# total energy = -381165.9455366826 ev
CRYSTAL
PRIMVEC
9.28156005329597 0.00000000000000 0.00000000000000

0.00000000000000 9.28156005329597 0.00000000000000

0.00000000000000 0.00000000000000 13.58450133247144

PRIMCOORD
 96 1
Ni 5.197905789018507 3.05791212741543 11.612005049085981 0.9051252433618154 0.35270907387152156 -0.8123390153670139
Ni 6.2345075659762195 4.360300664204104 7.548227959695946 -0.3752784745316053 -0.33723257550247726 0.1435786280563205
Ni 5.234048184701624 5.783507270999748 11.085252371827197 0.12076677236812751 0.19985621960212677 -0.10906748165332827
Ni 4.226525536063175 5.69360607824508 8.810975880736539 -0.40162765394909544 -0.03997602617230535 0.5373443627588359
Ni 8.37706293821323 3.5005311734700078 8.38597137975834 -0.9551149450163807 -0.1873030655274645 0.07544825093698618
Ni 2.927515487212009 8.055670350817412 2.3128293079753446 -0.30609677332962126 -0.9734731358085944 -0.1754420524238204
Ni 1.1933858930027115 5.83717325246862 4.48548013938095 -0.10417312967550446 -0.5624007915068314 2.2351203990301185
Ni 7.184660890598914 1.3166635764806705 10.709274000339958 0.5690936301459747 -1.7891715545661446 2.008200747552296
Ni 1.1593411299401344 1.588344127081734 12.160764305739908 -0.09209794367852525 -1.8968892070597978 -0.5165757627529168
Ni 7.023625819951227 4.496739600141914 11.911678785454969 0.8447881370346548 -0.09522286246075214 2.414479784230474
Ni 4.538692252552724 5.224005536491781 2.1159080127079326 -0.40834826050238054 0.25092809857727755 -0.7191079865253099
Ni 3.2444714887997828 4.495932104398609 11.215052207705394 -0.5027424564142503 1.2400944767514126 -0.428379725231959
Ni 4.6611531587271084 2.034722205044802 5.305005712949554 0.3105401538129555 1.1453948337839823 0.6201259141324418
Ni 7.4290350908918805 3.8308433402832582 2.542801311200644 0.16911353910263136 1.8113864001002866 -0.8099183217406631
Ni -0.1623233512128688 5.500976576445535 9.789453742828718 0.5249647581475604 0.10236384438090758 0.0702016578260662
Ni 7.897781729100534 8.767556741803403 7.024246756333148 -1.2477270535960059 -0.4314833038579472 -0.4357595626357979
Ni 0.08649207566827688 7.062227829105333 2.9805753827953883 0.8970059566887906 0.43564617698638525 -1.6832968688185013
Ni 0.729627165282015 3.8717564579440653 2.851481873653577 -1.5287825676862832 2.3990179411494488 1.0205207241157006
Ni 8.251372049065624 5.159034614616633 6.531862768590288 0.9434390513403494 -1.569794748432587 1.1685355335665035
Ni 0.2903921761011063 7.382859328559185 7.971833729541775 -0.9406594317126832 -0.8352825115370647 4.923212096588632
Ni 2.9809865559152553 4.616211843910042 3.785552110644092 2.1485678106498547 1.889667492500378 -0.3443568452520844
Ni 5.387147521320276 2.7893687441849098 3.117656602703736 -0.6051875476550546 -0.6987579621140483 -0.6378127898892435
Ni 7.054784017770494 6.524797644914379 8.305795405852354 -0.1757256451025103 0.8167399726481869 -0.736255444838874
Ni 3.8383614041002394 0.5378794117079186 3.900545073426943 -1.2982937107999641 -0.25342001176119583 -2.7030591175016223
P 7.294424622326842 0.935033662946321 8.683865841023973 0.8843196194703737 -0.5673478510994616 -1.0481454278115048
Ni -0.06707319527582205 9.017639101661114 4.44139829704469 -0.029544546426336214 -0.357106688718585 0.3393205683797575
P 4.8520562903168285 4.103052939819591 6.042264177083819 -0.3686002911804813 -0.20743480328033304 -1.5362259113382057
Ni 0.10143445954353406 7.5796191246779365 0.6532204330008147 0.1535336823865033 -0.5531461056777828 -0.6911629233756097
P 0.1837219884104621 3.115077257105292 5.336006124244267 0.7464557824106435 0.3979882574242952 -0.03688633150338809
P 7.254578884096841 6.433485654998993 2.3444404459356845 -0.20059644020226097 -0.5233285080957181 -0.3206638725105187
P 4.478027974641871 6.6610602312071 4.979249864071805 -0.4681094397214132 1.583251902378757 0.43086546776829016
Ni 1.835066562122473 9.052147942737086 0.06543221542046117 0.3285913548877115 1.0328211387496085 0.09801868003833442
Ni 1.229268404998329 0.4697592564338799 2.5156323279845103 -0.18696033747606508 -0.2931350709626307 0.002083879112222218
Ni 5.839410108493179 2.488330618456547 9.325026742768733 -0.19894887729650898 1.426621069124169 -1.2458421778684672
Ni 7.535095480072925 7.59583401046592 4.181186970466643 -1.893684841189887 0.3734311369102214 1.2966070671261605
Ni 7.052389375221381 0.8506345791184506 4.933687612872817 0.4791618408808328 -0.3972472654932126 -1.3242577389638934
Ni 8.64556919520268 1.7169865523945262 6.932755632304592 2.4352995491893026 -0.2505488608609878 -0.8712550729769318
Ni 1.0132679344442665 4.079394242696769 7.380949183456057 0.4383697465651354 -0.4467620843938887 0.2261544911770234
Ni 7.128145470127803 9.059016297335315 13.321668450429154 0.37472440180034816 1.1994378795723148 0.8886532138487212
Ni 3.1707666187125616 8.113828607455936 8.3759045994918 -3.2058298560506464 0.7612663650609147 1.5432146839512133
Ni 5.0517861857213004 1.164074725676752 13.288726336726398 0.47760478080635815 -0.4498695196746188 0.6916516900865701
Ni 5.430510970891803 8.040986922473628 9.626806465162499 -1.1373357109249316 -1.1680578225991367 -1.3041990205408056
Ni 4.960826895096093 0.6614058410010564 10.82835549042081 -0.6488227678465021 0.6582026663995051 -0.1299206709532537
Ni 4.807031441457352 0.5571813444409982 7.838121716010667 -0.9385904649987965 -0.11786168290619056 0.6771452689402789
Ni 2.7672693491870914 6.9669804576363665 -0.054162544943203425 0.5144494604385333 0.22015713594300793 0.5403682371868243
Ni 5.264519547061069 7.873009244745568 3.164876540566566 0.4076142105498335 -0.38592566983280635 -0.5538588154740912
Ni 1.7242447325240071 1.7583266218276559 7.966793842316316 0.2065500866825346 -0.866062987253031 -0.36822388167766906
Ni 8.502011302539408 3.1076705720115254 10.578591488080287 0.73560752684223 0.3050482774604488 0.725228497600751
Ni 2.578630918302734 0.24791233106708116 10.414911172756254 -0.29070743535774446 1.232893588127599 -0.634108858675095
Ni 2.3606349122910784 2.5971012232358115 3.533301578307805 0.7556472191019243 -3.3254378322239826 -1.1670941731342868
Ni 9.041288517223668 8.774889174415028 11.936456838746095 0.2307577942769897 -0.32369211781388124 -0.19792352135578814
Ni 8.03165895440441 2.0215887972657542 12.768154250449994 0.5257723416505202 0.7272712390623925 0.15312102032911695
Ni 7.824689441990993 8.8543578934286 2.0442367324754036 -0.8947837522264912 -0.8283603304959346 1.4759278857790967
Ni 3.2620971717484837 7.256175312462917 10.897582007678778 1.4539752927674054 -0.31684989808106717 0.13474894557983244
Ni 3.2821453419271003 2.743462147099984 12.725635422862842 -1.3021279969443895 -0.2617298171784718 1.2578921670544658
Ni 5.817227179452949 3.892881289113756 0.48407699130310883 1.5592843358195663 -2.3507475361788353 0.4958958658060621
P 7.882829135508983 6.535842701633154 11.412502551908073 0.011374817495844926 0.6041295387041854 0.1681185221792137
Ni 1.248091409221586 8.652669588807607 6.517191406274853 0.4557758578567247 1.0918549528843131 1.2200172463855634
P -0.18647211471783443 0.6318468560159446 0.685690115285933 0.8590191930323722 0.07194640843131479 -1.084540678611087
Ni 6.46272256984281 6.411534764965461 5.939537724350996 -0.1304433762259431 0.9168322473860984 0.7083774874816833
P 3.279759980938256 0.41927313751278306 6.148603941228926 -0.05435003550579026 -0.035101728799139545 1.0759920177101274
P 1.9913587554732746 5.931585283513478 2.3634583629245665 -0.2310861241506859 0.9754094335993588 -0.6413457427431664
P 3.210092589567562 3.707630627727174 1.1138299273226202 0.05615932080038715 -0.39079379655838503 -0.12436991633835355
Ni 8.458137367153148 4.24750186226858 0.2904404402144992 -1.0096087051888871 0.1022550867171852 0.29190865475469724
Ni 6.44832686986733 1.841025323814451 6.882465354305148 -1.1354564916243477 1.1641525740074596 0.4752069699981428
Ni 7.664415459285272 8.243631227802213 9.823957943124555 1.7429084098335468 0.06695821118810405 0.44950442302571614
Ni 1.1253056484378248 7.6352620784838665 10.151426239871725 -0.7901779058889423 1.1936937779996861 -1.5341826556559321
Ni 3.1433860159223213 1.483555311657389 1.4150434745400455 0.8400817326979209 0.16559318465419867 0.17037106565881627
Ni 7.13590485451175 6.691318117680382 13.619820939070232 0.3700527073562917 -1.3609952035942432 0.37084357868870327
Ni 2.031213775263544 6.130711877500537 7.024002651298103 1.0559258430878717 0.05227592658558094 -0.009759907600241256
Ni 3.7931137977943328 2.8953734440043464 7.476733029108506 0.8189048415099898 -0.05451767143190612 1.8342409361009568
Ni 1.3893753196192282 5.062729145277128 0.35025916798494766 0.8664954468047592 -0.03421521242912817 1.3404649448513752
Ni 7.334780846371577 1.8505853308903657 1.45572919397429 -1.3817594327247882 0.4662510463564357 -1.7440659204767577
Ni 1.2460123397215812 6.491931640005822 11.970540584361798 -1.6568335324206498 -1.545631520922822 0.9086527968990996
Ni 0.8273879832715229 2.6610233288006895 1.004822642756524 0.5731181779243355 -1.3893081916063235 -1.3410696683149097
Ni 8.16888682296499 5.28030748107673 4.266117887697863 0.18580205550190582 0.8728417007377612 -1.0056893155298228
Ni 7.326520257733166 3.255488700837754 4.813600001658928 -0.718132252875602 -1.0408344959723883 1.1530274106285754
Ni 4.816656419455141 7.4328683752825135 7.353412650453315 2.187684831255974 -1.4497666540026966 -1.6783300117315292
Ni 2.526208665909758 3.4599057841775043 5.65499664384276 -0.7300475162559491 0.06063509718355364 0.6821782033784961
Ni 2.60962204803718 7.736496056325614 4.966656643100348 1.1288276734539204 -0.1264705076211241 -1.0617915578400294
Ni 5.836105873037814 7.944774268736802 11.923279807633788 -0.5926436495517728 -0.5479529915126176 -0.6461328797191647
Ni 5.158384905397882 8.833622887790161 5.49657433241048 1.1823534132862026 -1.0296555965374332 0.4402857326409256
Ni 4.700005770008447 5.554122790539406 13.390147802085558 -1.3523699238190772 -1.0919099744919645 -2.5807052031520326
Ni 0.8813370523285651 3.7016161766735896 12.135497114222664 -0.13991660582370097 2.2122879745166353 -0.2774551983335286
Ni 6.904181420863901 4.846552325077977 9.758263987704538 -0.7920093026707262 -0.7604348702985548 -0.6110959427196895
Ni 0.30879472564422844 0.8233644268953977 9.778640725116638 -0.7905733415551481 0.10951973869939849 -0.11633393340775448
Ni 1.682468429758287 3.2456316838332677 9.913955664106009 0.01785245480038861 -0.37048516690802 -0.5666459399364305
Ni 4.962488294384044 7.46381309721562 0.584093228437711 0.5070801645576557 3.211782731199972 1.6042483021247662
P 5.697430081075445 0.6060673223719127 1.9815165889652167 -1.6029655787576007 -0.29721361190737844 -0.02385958022641697
Ni 5.674940860546377 5.176261190473815 4.146302226199823 0.2951629000259368 -1.481386852011139 -0.4345801976157161
P 3.5573528854299576 9.091659544797443 12.29249284984177 0.29763244461235194 -0.6921815944481111 0.9857311272403411
Ni 1.4587085748202786 1.1513868327905625 5.265515458477813 0.2809477848678194 2.798660446347715 -0.8600257799200157
P 2.0244289547077248 5.511678215434398 9.413067910845719 0.5465975059259877 0.09651458468898218 -0.1962944703927974
P 9.231152114063386 6.948575123625163 6.109085842076381 -0.47935647339014226 -0.05226795616578095 -4.087869935458224
P 3.752414156019687 2.1373576984869995 9.615246281848856 -1.3720267788180562 0.05088727376817042 0.11400888481900366
Ni 8.63520169238346 1.7694737757093777 3.1845469512422806 1.245373722872481 0.5655074554566132 1.9804413180508411
