# total energy = -340864.5790148636 ev
CRYSTAL
PRIMVEC
9.31691655632115 0.00000000000000 0.00000000000000
0.00000000000000 9.31691655632115 0.00000000000000
0.00000000000000 0.00000000000000 13.63624914853411
PRIMCOORD
 96 1
Ni 4.118962294621526 8.564268230980026 10.29018605779223 -0.4792726554270843 1.8133011006244966 1.5943981488035637
Ni 4.4771138900196785 9.083239125776412 1.4320520250481328 -0.5677666838044351 -0.15176939139722895 -0.9145244251885282
Ni 5.959435339197535 4.758503408612197 2.261190530782861 0.9941417199015394 1.833324852044591 0.6182148131526579
Ni 4.2405666915710505 2.30704559977355 2.0466647966791536 -0.16354041589022805 0.7224920725061944 0.47244200565849603
Ni 3.4463274924631637 8.642511697543167 3.5942838566462187 0.8034771941010098 0.19197064620646295 1.2711670297865012
Ni 4.066750293356958 1.4895047919642566 11.997430920126481 0.6441924681633422 0.36046737766070175 0.39162272021758365
Ni 8.658117533038912 0.5552593537052661 9.836031089190946 2.306853405899046 0.2309038329365507 1.0313705223460108
Ni 8.139994477663489 5.23546432594571 3.546243038994454 0.6549479069076333 -0.3503696271050676 0.2995425171508712
Ni 6.266642034004207 1.928266350770874 5.4953131330957445 0.4811942979298293 -0.21819101335557262 0.6378169036543015
Ni 5.671514661988589 4.943434888465944 -0.1289983020536577 -0.2734414491884452 0.067885865208696 1.1400304841482753
Ni 8.314500327714407 8.134264573884455 8.317198506794748 -0.0436745580698151 -0.45016365387626983 -0.7885791939432548
Ni 1.9977053310394004 0.23255676302007378 11.028643944842464 0.5607264891282021 0.5841217281236908 0.29138080727568527
Ni -0.20807004251266184 8.769771462938015 5.150643116182572 0.9853637165985932 -0.0341031123312961 0.8589472021438561
Ni 2.5906898122108264 2.730974627171675 4.020921311733068 0.025166471963298593 -0.45309162615634224 -0.1863458438205178
Ni 1.7935623689216378 7.204697159507502 5.498108208109907 -0.4754283419803296 -0.5687825266634591 -0.0222158739754069
Ni 6.6452815292561755 8.018101256295834 9.869548697069119 -1.274876103206972 -0.27461747177441737 0.71722053969461
Ni 5.553441376473624 8.69713678023663 5.444654261847379 -0.18227167375114414 -0.3560736194683803 -0.48074872575197847
Ni 4.970789355937887 3.4577034477708075 4.243396239177055 -1.2623782278502775 -0.14793407681153878 -0.993930889442314
Ni 4.191205666820929 6.374503978800763 5.831174005255945 0.18977209589324737 -0.3057771852066734 -0.07801575455384628
Ni 2.1319807347197983 3.7765469715531124 8.553078614006662 -1.8697596978328572 0.45065293480786256 -0.08572546449327817
Ni 4.240753029905328 6.626247068409724 12.223042853428032 -1.147449916540798 0.743265814718436 0.6797369409268551
Ni 8.949299131097716 8.37941128645999 2.951347658205012 0.3330622461748715 -0.07750590479696329 -0.9544372022230658
Ni 9.237732238725924 7.077046083610671 10.385953713002504 -1.2309446919313447 -0.21071604513476613 -0.1265574109079756
Ni 5.645883824108713 8.7466655094876 12.391695816399293 -1.7153287004430653 1.4010607041565613 -0.4015507779645729
P 7.405467397774841 -0.11668506492459764 6.573913015536204 -0.31393118177237544 0.3571655669809784 -0.30058227126929526
P 0.476598489273344 2.31509541581434 9.057360457911948 0.09321148845767818 0.11267036851323822 -0.811329600265893
P 4.03823121129578 4.550065347889336 1.6459907933988658 -2.03725601304704 -1.4387672175683996 -0.650584744842931
P 8.004386754893007 0.835336118732799 1.6120092030683417 -0.4794477475523678 -0.5525691501283903 1.090978720926947
P 6.637157177881674 0.7703357175867636 10.501534723296505 -2.399835294844422 -0.2547251037258645 -1.0383459252225795
P 2.723781967468562 7.895872625926479 13.544517984149184 -0.030853495045746866 -0.6471890888978209 0.690497778987785
P 0.6669514829628969 6.494859908910628 3.5429979569030103 0.36066560971443695 0.652219966453509 0.4679723999229166
P 3.738608486694204 2.4033359340114706 9.223191326810577 0.6510616844793498 0.5166665226945102 0.8780695247956041
Ni 0.13763135708073626 2.6595325098096647 3.202582044161395 -1.1510836566386433 -0.6842191450679248 -1.4116605911595945
Ni 8.43559229424467 5.719012303395935 6.080253388376408 0.6380778706251721 0.2462466339412082 -0.2005401330430288
Ni 3.638637970354303 1.0119569088777685 5.468422648076151 0.005063016345204184 -0.3509949193938923 0.33000828983989616
Ni 4.985426232095388 2.010553359187837 7.519109557700687 -1.536146207140206 -0.08546809706683345 -1.5341368900196612
Ni 0.1827205755175448 1.7508163550383693 0.46661913978111014 0.7314266559916629 0.30542777228705464 -0.37331672281954414
Ni 2.0340226723900936 7.6630149264965475 2.085364473633585 -1.3806654283296609 -0.3727523656756419 -0.6487903719466698
Ni 7.7775943682438085 8.693083921466092 11.763896812543122 2.4210106433704563 -2.003638839213227 1.2909881782774864
Ni 2.5528351796023436 0.9524218110760932 8.291058033570621 0.1915415290888443 -0.749587900281722 -0.060697832100689006
Ni 8.708764292295548 5.602448358388617 8.39894792911732 -0.703314471136479 -0.49963964911921055 2.0988989826698177
Ni 2.7221235562934916 6.3274069648121145 7.715089969085421 -1.7469260156333721 -0.19648267514420353 -0.17840987680289272
Ni 0.7139720982344923 3.839184602620508 5.128647739204451 -0.05083045238830601 2.280781134292027 -0.15447419192290168
Ni 3.8424082558035098 4.319229419386316 12.142643452337301 -0.838648085575188 -0.9907599479135003 -0.5287118838948185
Ni 7.389787026945386 3.1538508429811314 0.29993856807817626 0.7391836742292625 1.3202370478402745 0.16008331057956302
Ni 0.5301176539528686 4.308785155750059 13.655885884705173 -1.4747891441889633 -0.5656720060589354 -1.0539000709070947
Ni 6.476114272482308 4.880350045396281 7.7989664434937715 0.4731385175048884 -1.6591601236712974 -1.163881322623944
Ni 5.592740131172757 4.5626338685363566 10.313790466286838 0.15817915157831466 0.16123773589898036 2.3715184501775997
Ni 0.3919934319779682 2.549611526419342 11.71510598309589 -0.8871005246496206 1.5926603401768507 -0.16752099780453086
Ni 7.53856886994929 1.6964335121794683 12.137243367409937 -0.2700607056416704 0.11885490005739532 0.6676663829155662
Ni 6.402445412025681 6.435799973861361 11.955881198349276 1.5635490246331911 1.967015274452922 -1.0942499354790511
Ni 2.402208587089091 5.47290594839887 0.5707412742087158 0.7555942543768019 0.9203019511022538 -0.44428611204957036
Ni 8.86042506256404 1.8398674449896073 5.267124140631136 -1.0835343488337597 -0.9913451309930088 1.787083304578548
Ni 9.209278375081743 6.180386019067132 1.4507603938095983 0.34920028938731473 0.8530938286868728 -0.055548683799581756
Ni 7.546078304820675 7.223489380519392 4.623260908976898 -1.0673718801412844 2.2900340203488625 -0.31730112668587285
Ni 5.922484447510298 2.4766134839661147 9.403298507189879 0.04243477212544304 0.3116418715175665 2.3382537745871987
P 5.931111912387349 7.5210623834439145 0.38922537602227525 -0.2860110583233397 -0.8601887878604412 0.2447433099228043
P 1.4020468947710916 0.9511919780698616 4.566124917229047 0.9938193035651143 -0.498841064477315 -0.04616235748867534
P 5.0851079240171595 6.755174561896356 3.900472212456064 0.48639666806637516 1.3810279538754024 -0.7682371399517931
P 5.104077166446614 0.9888695892607807 3.5769925909169342 -0.031723042134893756 -0.15081139835933383 0.7571032348221607
P 8.511664919213477 4.200708921869084 1.786498282669176 0.35019042121472593 -1.6592367425455037 -0.8451208377837252
P 3.075877567002694 1.939101924909113 0.24950889298097328 -0.2949299580795243 -0.34520839461910224 -0.17679111025254712
P 0.20389140536648792 0.5660269143514939 12.08287636330945 0.11875359859284064 -1.4642383652563105 1.7167952576862626
P 9.102031346788303 6.473486901968994 12.42173728265152 0.44120618757266594 0.17118199159588585 1.7256853610870408
Ni 0.30435758167556815 0.40467002885886943 7.237125619821823 0.6034805922662767 0.5802925841855876 0.7545750690836682
Ni 4.100915426946746 6.651533180371186 1.9685424500332935 1.440181838527739 0.46717330106038896 0.10631357305727497
Ni 0.19849597889748166 8.44907387272965 0.7188634795092778 -0.07338288376752522 1.1249725613738881 -2.2491408816789265
Ni 6.843638686094621 7.23043048347123 2.2974901699917973 -0.6274620427825387 -0.1788719040409758 -0.07937586812616652
Ni 1.747294560520524 3.3224218170853113 1.7886262664466257 1.9201687464130284 0.6981385833624943 -1.1362260228005208
Ni 2.3809473831480235 5.049768858921424 3.564133382468441 0.4752267674924848 1.1370953127793513 0.029813483817006717
Ni 1.662491984590814 2.2408861741883084 6.5227771181520895 0.41377483083459066 0.38126991622834977 0.09004260381139333
Ni 5.483499282702548 9.247272761440934 8.171003971562287 -0.311470893157341 -0.4001068464291948 0.002905346572253061
Ni 8.793222142306846 3.7070986743678715 7.21553925548744 0.19820017205594254 -2.4390263632215867 0.04538177056890894
Ni 1.0041306988381116 4.845467509219525 11.346109496642786 1.0663025583365056 0.5616513149353166 -1.0374997751722002
Ni 2.1026697147379405 0.9181560547857959 1.9262837108941608 -0.2860645372690944 -0.7712715559027428 0.4536608683962509
Ni 8.174215512753559 3.677787654386014 9.6650330582828 -0.04125514999504508 -0.505397120428278 0.3686362866247393
Ni 7.323748721277425 0.5901605237154499 3.878476835477943 -0.3747873938277997 -0.8262743945011835 -1.448347919278299
Ni 6.2905678761254435 5.4090105335751 4.9973034375222385 -1.2686326934004215 -2.0725505745832757 1.4859060800377313
Ni 2.3815157150675703 2.7157973698447693 10.828286445985551 0.6955080877181828 0.2575916266403822 -0.6662887858417493
Ni 1.3989350445886566 8.381339888219763 9.16325932835689 0.15590243972899603 -1.0408015858519237 -1.087247793129605
Ni 2.0759208468523993 7.08853384191888 11.495931107551959 -0.6481884766966127 1.1000359460332088 0.6085032422918487
Ni 6.054849883264351 1.4206527774487043 0.7535606090434277 -0.163288447780422 -1.2011983139068474 -0.6187891975988891
Ni 7.9043696539695345 4.785010036663177 11.790324246802037 0.11088885113278321 -1.7193979854164325 0.13804047184691065
Ni 6.214374131239356 7.134633945819146 7.433460074041684 0.8838131121476005 0.06700963325132975 -1.3500474463334877
Ni 4.280694651857719 4.540543459007754 8.495642617540623 -0.46814492094503884 -0.5714364193465383 -1.3031075872488398
Ni 7.547503793077897 1.593528167074695 8.129795248936807 0.20347196197784312 -0.03791760098137986 -2.048151062692989
Ni 4.506816220503518 6.951621750808457 8.96880689131323 0.40601318461130076 -1.2755484466836482 0.045067838872915926
Ni 6.723124368400619 2.7711864397087687 2.7559812316317216 1.5107617056288303 -1.8395983437581287 0.24044313988555369
P 4.951158612421748 3.6581382770364472 6.31650151379852 0.004517942475011574 2.1025944292435335 -0.03247097604451182
P 0.5194795984489636 6.922096441742179 7.452169374494822 2.696836533630678 2.0101486153072865 -1.7671490275484663
P 6.8975650000345405 5.976662318201494 9.582451635297678 0.8488502229191703 0.28821475084287784 0.2888148463207219
P 6.054467889679082 3.244513759523871 12.114620961936973 -1.4584240725673785 1.111345457508757 -0.07568350687624385
P 2.516471253668081 4.7164002619821845 5.956832192667679 0.5373790726515133 -0.006311544040324614 0.3218910600494005
P 3.790205571455656 8.316335760307043 6.850960850940055 -0.04431861941171722 0.4158314562533032 0.5949404160057497
P 7.725643240647229 3.651038786500473 5.082966896556312 -0.007931853252566986 0.25607596132680416 0.5905428011586862
P 2.8240413082265943 5.6939497974356055 10.092719598191634 0.8100628177383276 -1.0110531509448974 -0.8289773952546433
