# total energy = -340866.8062449999 ev
CRYSTAL
PRIMVEC
9.21500103170945 0.00000000000000 0.00000000000000

0.00000000000000 9.21500103170945 0.00000000000000

0.00000000000000 0.00000000000000 13.48708547648590

PRIMCOORD
 96 1
Ni 4.5320203716224885 2.2092043128384704 2.990221713083004 0.315663848192766 1.9245244522785627 -1.1043726257353497
Ni 6.928869747539001 1.517839656231233 10.003654759268976 -0.028632833245344234 -0.8278581940485356 -1.25998787324123
Ni 6.473528908670696 3.846894270616284 2.5769777627703854 -1.304352001178902 0.39531688123971914 -2.6021404902076735
Ni 7.415043979377846 7.73886832557563 5.023319065455033 0.9892386261729671 -3.7776398566865197 0.28644686030917765
Ni 7.170247480793738 1.0738701284584597 7.408779621774327 1.281825537941612 0.16435262737887824 1.4874094040561352
Ni 5.234009924253346 4.762128158791461 4.402993772191848 0.1967331005921128 0.2781064587642823 -1.6332081796922262
Ni 5.9603362942288545 9.1226573638922 11.532644566574431 0.7919838487494296 0.5192322265391573 1.124913683111495
Ni 2.4329445343939806 1.3241587675716895 2.2523968649997137 -0.21010875056807043 -1.9069787300853158 0.5129325095733747
Ni 2.0023275429076137 3.4735392946466357 3.2358079372431954 0.5342932346373378 -0.3445851592128065 -0.8284528902097409
Ni 6.884167778232337 2.1243249396610486 12.281893251258316 1.1703952124830617 -0.8775409059856436 1.4380005146057042
Ni 5.469314971923032 3.814485112493931 12.072559762090773 -1.2979741226770163 0.06662396777713687 0.05400165102743604
Ni 3.0703830058058785 3.6076636325684004 9.42338615336492 1.1236119335809358 0.406007785294662 0.041379591388051314
Ni 7.555001412861581 3.697869276258964 10.459558634691524 0.134214156122285 0.8594064011684619 -0.3633596116068323
Ni 7.637788980837476 3.525548759657315 4.302744699033683 0.08280957639806383 -1.0495065698250892 4.356680570742878
Ni 6.401228011705105 5.37784687311084 0.17571532292871064 -0.24605894341043424 -0.05221679121287136 -0.11849288873228625
Ni 0.5644151183767047 9.1382030703899 4.074017318997702 -0.011422897124960972 0.804433387366692 0.10963518123134021
Ni 3.810624027121947 5.850290753626881 13.367387181836632 -0.1444348054090287 -0.17171086751616232 -1.0790310616467673
Ni 0.9397273605349192 4.728723780573227 5.150407750198971 -0.37335734624949246 -0.46687736708652494 -0.14513774501332424
Ni 7.157890164603214 6.293117621289568 2.357596236634799 -0.7564332053383295 0.08212720561905856 -1.0877211332215977
Ni 0.7929397683931549 4.0305584533108005 10.024599534786832 -0.42535790768649967 -0.006948663403691257 0.6186734979566312
Ni 5.141408380331956 1.87911376603699 8.285790607767046 -1.6686346388206357 -2.2632786066318893 -0.10166116188692814
Ni 3.8611222319870295 4.88440200557153 2.2277154066218605 0.7813585078250994 -2.3435391913558545 -0.16620896386132664
Ni 8.18118836818949 5.254983266273953 6.532658804867371 -1.1142670020309262 -0.1508913596676498 -0.43096702634316103
Ni 8.655972858931028 6.990241653451673 12.4365218876555 1.2062986112478902 0.3773099031393373 -1.3941860885239152
P 8.46652165567898 1.2997482302199372 0.440336974422807 -0.6507765491387631 -0.4747464854219566 -1.6065718080516203
P 8.472585126263144 8.540711627826566 6.767751907516637 0.5723902986193756 0.49999343291420345 0.6136205089137562
P 4.176376627359169 5.195343780528184 8.355546321487427 0.9629979473088834 0.14932890027653636 -1.3212950567911437
P 8.042668474844248 5.597357409258856 8.947642381030962 0.541715495243338 -3.0668103081199183 -0.32259759919812186
P 3.382789965903692 0.5060767907562918 7.254420063403067 1.3257039844921168 -1.5258695078045463 -0.8225792050377834
P 1.7168928904083576 6.731078968483503 5.470955242081057 -0.7676198180827682 0.5941343751646865 1.1087458151023808
P 8.283963273090997 8.627489291186873 10.77546637362661 0.08632453152985778 0.6150608409047084 0.4967810966244928
P 4.956251367493619 6.46146647250858 1.6548925214351373 1.7722251565197928 2.331131561720121 -0.038764522362707436
Ni 1.580040912223807 6.984095247859519 0.9255648256704768 0.9155798630362361 0.14004130432702336 -0.24679170781140078
Ni 8.269873536733568 1.8473496579767827 2.511227809935924 -0.41412167265104805 -0.6649937211794096 1.6597275661389932
Ni 0.9111931102858815 2.4877461446736606 1.1124763746778508 -0.42746852627159926 1.1093261130858831 -0.5773548417135025
Ni 5.957046538911913 3.776611458845119 8.803357583130321 -0.21080886195888857 1.280066132048344 -0.6711036907318894
Ni 1.3456481496420127 0.18916000922399442 10.835079135869803 -0.8198530643558719 -0.9601957019733979 0.946585310278815
Ni 5.159009032027634 5.266796897412098 10.35398144802004 -1.1391411395647864 1.4612893099303157 0.18769078788418644
Ni 5.683499237557905 8.280046897713687 9.324849227371706 -2.222639492954288 1.2508576288051876 2.1563376844032605
Ni 6.252461037372645 6.3133445482382635 8.12924617268529 -3.4070595589615325 -2.0322035382247967 -2.062429941209506
Ni 0.3682480224776357 6.8605589459578225 3.005704757574667 -1.4055719617633535 -0.5290456130851534 0.27651391746618187
Ni 0.12199278925299112 1.7685521853853012 11.836617036359653 -1.3264071812067286 1.2419991499732932 0.647345154859711
Ni 0.2582255193778822 6.732617873631764 9.987469531709664 0.627968292994996 -0.04760011837646641 2.6927150552631365
Ni 8.157671685923853 3.289018116869554 8.224168053830224 0.21715511589189054 0.6915408755403186 0.47782666700917714
Ni 2.424429873573664 5.910768804453438 9.366336082868619 -1.4517155501989514 2.0712087158434005 1.115268446712247
Ni 3.765977347820611 7.416370939505687 8.197557895766556 0.6175766653480267 0.010572890419839857 -1.3364316553222662
Ni 1.6368145326934735 8.81199203896218 6.226056373828775 -1.6783287261799484 -1.5268159308782157 1.884190785656523
Ni 3.733605049701809 0.286017962055453 10.8724118689665 0.12791238227397328 -2.508241488764667 -0.028790184758814934
Ni 2.4471909257665025 2.1957964865467376 11.35176976464865 0.02303271344974743 1.5325302076541738 0.22167100148437308
Ni 9.08640555039964 4.21667382624147 2.7891291992094125 0.5466167891996973 1.4510280372136235 -0.9943669485384683
Ni 4.337030952836878 8.238081783670696 0.5083952849796595 -0.13418047467087213 0.06876158294542996 -1.0211565579274864
Ni 9.05293666717519 2.4021664314287667 6.337729283587531 0.7386601976256246 -0.2039278185683391 -0.5228132590221964
Ni 6.808761425967562 6.774131452631252 11.217047373169267 -0.3572406431932879 -0.47779067156491917 -0.9024276419249943
Ni 4.413672115220617 1.6570691046448331 5.203142435779521 2.900219792549457 -0.9216510089309805 1.1044703276554786
Ni 0.40716573572703385 6.723937342795467 7.742962550470074 0.3903921902445922 0.9865556800241655 -1.7489538446966781
Ni 4.859217408145203 4.142188974065474 6.508381885028491 0.3497772449367073 -0.49736936502779505 1.5160970017988147
P 2.9427552435100046 5.197260500712844 11.164959580651042 -0.25894634089606366 -1.2424694047414924 2.8554013506831852
P 3.1771203610891354 3.494116391629068 4.895596388650015 2.320614207128565 1.6494853195856947 1.2176544025803417
P 0.4324581486637476 2.2621629229405924 4.311874921913304 -1.218932755072133 0.08691871347043095 -1.9034164666553544
P 4.745614877200543 2.113469668615233 10.700505105904714 0.7749106953172267 0.4221342585428795 -0.6845083941735695
P 4.713777049133233 7.280182441385057 11.482324211226484 -0.7617016528261203 0.820149255440052 0.6526110312443405
P 1.6295346819921201 4.849652237223678 1.458155938481203 0.6314685928387705 -0.20701597057535961 2.2233956543940225
P 8.50977686984626 7.807142267153257 1.0233802170941766 2.0665596471071632 -0.7901082289932715 1.3527607314995929
P 8.000445340776402 5.695948703757307 4.143879926728383 0.697471896312773 -0.6609311210742617 1.973407036911879
Ni 3.0009018991119514 2.6017080606529435 6.939469763060224 -0.16804781684227832 2.392487853340415 2.4406042492316677
Ni 2.1540248875223913 5.248938225691564 7.330621670244459 0.1620509758288951 -1.572746631972059 -2.2299712507290113
Ni 7.674418609366435 7.708265307627284 8.870010606051785 2.816896252629452 3.3552397460767636 -0.6883221114927048
Ni 3.744580115759166 6.123727474970235 5.676417509375638 0.32700447001656585 0.2164490909638014 0.593955683494977
Ni 8.08204417363777 3.549857931999302 0.7673838064310505 -2.007422731735691 -1.8678948767099763 -1.247729110478535
Ni 2.689324289094039 1.383761393313907 9.059491297306675 -0.7473057891157645 -0.7299374730406462 -0.04626160207070097
Ni 1.7945292728879776 8.283474878043945 9.06744845057328 0.695968315184053 -0.3163698731208551 -1.7317621634087403
Ni 6.778812673082248 8.030504673672368 0.03117987700392195 -2.1841097123102062 -0.19883986252247046 -0.1818448706263707
Ni 3.149530648431096 3.191928867515812 0.7278910771262543 0.7660226487989775 1.2238301923737505 0.3997510057516728
Ni 7.291728837497457 0.6054430668294064 5.160576503678646 -0.3379871942803147 3.5703174106143347 -0.8900215549511575
Ni 0.7368766244919371 8.78197878107065 13.099332021011746 0.10018303467950489 2.629698345221284 0.803143722020991
Ni 2.200284191979091 1.5528843046074936 5.238154831652674 -1.9382150623917782 -1.4574462820351417 -2.4602518482592663
Ni 6.281958255214456 1.125326693415872 1.0595196075759064 -0.013340682972964124 -0.4316262571937147 -0.4916463465010888
Ni 4.295121128799216 1.5601365103061835 13.00299287273027 2.687155816007804 -0.7703613853836474 -0.7011020368661925
Ni 4.2220093117554995 9.179449414363642 2.677281204433788 0.6875654358323384 -0.36127033317797136 -1.0335238212435878
Ni 9.311850547119391 1.004425881768084 8.899089462853292 -0.607471715703541 -0.2588645798155348 0.052230932280258435
Ni 5.548066369510074 8.724753625557483 7.119872756940553 -0.9888146512616713 -0.4556416462717056 -1.7354786930283788
Ni 7.687577630634198 8.610349389535585 2.8995617698486726 0.36888748340359695 0.010249959862782348 -1.2022455242244392
Ni 2.079567680349059 7.206591444295177 12.05611927900687 0.8892355687147524 -0.8268477505061502 -1.4897136267092794
Ni 8.854067733015823 5.575508642153909 0.6028453580791389 0.042689825559042605 0.7989294268293272 1.7415282416565683
Ni 3.266091194660736 8.406697869915455 4.5838962191202945 -0.3690420067035903 -0.3951178778550356 0.45445688193498507
Ni 2.5584804914883263 5.9952795775953485 3.5970193850429157 -0.7336007808248463 0.9448634424917017 0.051347244123724475
Ni 5.337448309218774 7.409330678827417 3.70677741761719 0.06437733783480526 -1.0207606080406484 -0.11024504690119724
Ni 1.4542745801072665 4.617802814886913 12.956125378214976 0.4029150053019513 -0.4377040879566785 -3.498742783700142
P 5.490583193972047 3.193209752639215 0.7225067521075194 -0.8927536091703399 0.25324029165022194 -0.15242605114462135
P 2.0246462750578376 8.196236464639249 2.7121046927887416 1.494407175530207 1.3323150620507314 0.06678671860724626
P 6.246028966752968 0.8633884501802997 3.1841928742705132 -1.2116835297088875 0.48173500092464777 1.4826572340831305
P 2.2968389712813413 1.393013254205247 13.338079793013108 -1.814023837723134 -1.4879159113789084 0.3824117431422769
P 8.08721378913582 4.414989860347571 12.244560518161617 0.8999246729974824 1.242494344442157 1.64139791459187
P 5.759799444908795 6.742846524617209 5.848822803985455 -0.10391859046253715 -0.233433798447256 0.9013482928178863
P 6.599802065836065 2.726764837701124 6.119778847089819 -0.037729139119657605 0.15023521414088964 0.6020580008871373
P 1.1204703879480076 2.79675276944388 8.212946947249165 0.16803136178204608 0.4564960238522009 -0.005997869454647735
