# total energy = -340858.2916236654 ev
CRYSTAL
PRIMVEC
9.45620783372864 0.00000000000000 0.00000000000000

0.00000000000000 9.45620783372864 0.00000000000000

0.00000000000000 0.00000000000000 13.84011601279337

PRIMCOORD
 96 1
Ni 4.2396151161290305 2.4471341909581685 9.727095999292354 2.2914149598567892 0.824286160426561 0.6316238874697122
Ni 0.14471591288394897 8.46415703702962 6.501782100094478 -0.25362287180062126 -0.06979953729164108 0.2531708718648672
Ni 3.505274387236283 2.4966847198145237 1.0175002520288856 -0.20466289696215073 -0.7018695111598364 -0.9742020435548191
Ni 6.2603499851042255 1.3850223874053083 4.838504178916564 1.003678198637065 0.08669271350255392 -1.2461977614356732
Ni 0.6654948080265839 7.185621005626491 4.628356036181174 -0.14425559951868705 -1.189392322410855 0.21689980534797484
Ni 6.326420508981966 7.683953700321353 7.5362751575345985 -1.647786334616717 -2.423787434784645 0.361073643786133
Ni 4.378129647939697 2.1198926639346882 3.209425578857331 0.34856419846521264 -0.45700561649876775 -0.23784658280297102
Ni 0.6575771252381437 5.709005789499301 2.29921735173493 1.2643713470209064 -0.732330655863171 -0.5044422127141764
Ni 6.165343465367622 6.471450367964775 0.8128149605378306 -1.0142678012274533 0.302205408695015 -2.4662144936006043
Ni 9.35298383270219 9.237135830980968 12.653713825943594 -0.7844091217259652 0.5395691383242965 -0.5570973770160469
Ni 4.794136597553751 8.961487373697999 3.672363687767968 0.41551032546845856 2.6040389927819665 -0.456158438007124
Ni 8.916097576272328 6.4241882413952975 10.283358368572506 -0.11999415586816108 0.2988717163360918 1.409313945304289
Ni 5.279362988241952 8.578908118646389 1.4360499759195573 -0.31971719232653323 -0.3642391859983082 -0.8205763156751417
Ni 0.7588360895701334 3.627543154051679 4.314559345403488 -1.239201275513182 1.013785719384712 0.5978354781653575
Ni 5.065548673743659 1.613304699833033 13.15748005763862 -0.49959259793135896 0.11619123718230312 0.492592769574758
Ni 1.4751495039186524 6.360765455700721 7.127798186189307 2.0527245409962838 2.5552870201892444 -2.9672592505974573
Ni 2.703567633997605 4.727413595338018 0.28070090910891454 -0.8462474951890006 -0.7398004818776549 -0.1888228446061006
Ni 8.273141639529928 1.953576881200799 0.4699158446440539 1.266408174945277 -0.1538051908803351 -0.1692271818623602
Ni 8.737176668545018 5.407125811787413 5.637218042387486 0.38303960653426294 -0.5560308834247456 -0.05169614282271097
Ni 5.149916959708621 3.378220779275597 7.0844925369621 2.2983073161012486 -0.13082801325887145 -0.9330595078782382
Ni 3.0765393819274474 3.4716670247256936 7.490022008337062 -1.067105256743459 1.7112103073993172 1.3773967848807183
Ni 7.361175503378062 3.508612428588629 12.734041474316893 -3.160399748742306 -0.33238501760218886 3.065327552926805
Ni 0.763474359494569 3.406315172640527 10.061556395348076 -0.6352393727351124 0.5069683215701398 -0.7292605015782795
Ni 5.216299538443662 9.130649474978789 6.238238534412467 -0.16980208052922371 0.14875194472714381 -1.2446941803069531
P 3.294448234401847 0.3366674749555443 2.1905447204900814 0.40151144008620526 0.2319746974032263 -1.0330067723978533
P 8.431523663922123 4.79981032223196 3.0989959842037966 -1.0188477072886517 -1.1405588458479194 1.0691240869457006
P 0.10820927706279519 7.742326871052323 8.558464743010024 -0.8065198375820756 1.099745154265667 -1.0225835201820004
P 1.7496915848893715 4.512143024838985 6.150699581973166 -0.8634150081072226 -0.1550467765969201 -0.693432950356709
P 6.249295678189515 0.2516921004500135 8.273731706896463 -0.5612335106716076 1.7407594818113439 -0.38656638874059873
P 0.7515973625015188 7.793636254558923 2.0911174236083734 -0.3263251845613541 1.2038069551742878 -0.2256173877266308
P 2.4201745425288808 1.7738049147717583 9.177990088072981 -1.1931841853531193 -1.3158427754273208 0.49786455949665864
P 7.220173988916781 8.022079322519197 11.336646584629971 1.337480922522387 0.15353779615156138 0.7092971710824753
Ni 4.079294569138448 6.336236052675266 2.407709369410856 0.09310684455901386 0.09442273515695995 -0.3128523468858999
Ni 6.5069016909957815 3.500243684688271 3.031095684117335 0.6011604287735324 0.4681055830666712 0.8734549088417279
Ni 1.2518600692077515 0.9307196874549047 10.938120380749478 -1.0385852949268952 0.2712143596301394 -0.11532014743125944
Ni 8.074608556831611 0.7312362558729875 6.289073216287656 -0.6817555140187808 0.45060536939937884 -0.10241218112033976
Ni 4.22536461097893 6.082875877169859 9.191788586490386 -0.05994192777127096 -0.2663112659015672 0.09376067609292885
Ni 1.3069897606643455 2.0603469234368883 7.441747121912524 -1.9103641016177806 -0.29632143911041225 -0.9926851899606711
Ni 6.301928930787699 1.0858468851233665 11.30893895016394 1.0903961089505996 -0.2007694754450155 -0.8911086173677492
Ni 5.587115270995785 8.508355352272865 12.698126797103832 0.4655846164170304 0.36941275977944765 0.6737424139063171
Ni 1.2657039574225804 7.664549561921879 11.447657736063022 -0.7819028103643437 0.750825629343565 0.8885773663054631
Ni 3.570843732100781 7.441591094483874 11.706551684371242 1.3984260947471916 1.8568589306107892 1.512854069381485
Ni 1.760547311440344 1.7473086205245238 3.399962492242493 0.7616324901510818 -0.5345452027471439 -1.1085933486849167
Ni 1.5587234684286657 6.784876375396816 13.634742430120177 1.1414607888368986 1.6851768594500334 1.7171004476315073
Ni 2.7875860402740784 5.54481765351974 11.282102232436012 -1.0423429621971143 -2.0618362734895648 1.161476055616561
Ni 4.67970702700208 4.2562674980595725 12.328553610256238 -0.29722723875413326 -1.7812636125729775 0.41265794362132796
Ni 8.23003078818334 7.52473952964302 3.190755242182906 1.2812251853534515 1.1157227606408464 -0.15967373384597017
Ni 6.6342862662293625 6.084209202469238 2.8827296750237386 -1.0961587224659894 -1.5827407670702935 1.7249867923581195
Ni 6.317824816094479 1.3349044860811317 1.5530828404777466 -0.6429218289810347 1.1063914559375914 -0.6041231109462822
Ni 5.491853433648663 8.045265944037476 10.13755310055034 -0.7472877913936355 1.1327640323938493 -1.0206199686977262
Ni 7.801220133212128 6.459573370971725 12.744421553615677 -1.5951710224138462 1.3919055200198545 0.022259068508516503
Ni 2.4726375833867165 5.55314857258891 4.223491336214341 -0.10923100381438608 2.2644895962208547 1.3566379550668117
Ni 2.178048341886327 0.31418250405580345 5.5031205052388055 1.8508646607005672 0.6933131369493931 0.8860841675699642
Ni 2.3772811839616232 8.449859250840534 3.632282605399543 0.7730798127560751 -1.386698264787302 -0.8935763621819515
Ni 8.106135553626858 8.592222459224585 0.7072259986555882 -0.2520277593993595 -0.16752845400369856 0.7508042891873263
Ni 6.734181645397023 5.885940893589238 9.430323319411633 -0.278755662312507 0.013109283688448393 -0.5713322896685065
P 8.596487208941038 1.9538511112269124 11.579623843974256 0.4306009012529939 -2.4182901591154997 1.4580558905946823
P 8.800381961460264 3.1579573310597406 8.692464881218397 -2.1543034275820507 -0.8502370759643679 -2.6338547905918186
P 3.1086621198139053 7.807631442098504 5.938240342052185 0.2264352556422358 -0.6603045432338565 -0.13848090181843895
P 2.534840518275477 1.5999714468392423 12.864940921988625 0.5105100161748112 -0.5063409723987861 0.7714607890954133
P 6.972960348479434 9.201835807274712 2.579313063544836 1.3245158777212866 -1.6238118260789904 2.2906384867020813
P 0.2011335398424963 5.805733339054961 12.51395580280762 1.2507316447502848 -0.87416273354203 -1.5368316632430048
P 0.48556965103123156 1.5377306871192937 5.373743507022393 -1.6613442758068098 1.881322462969792 -0.10865893336099995
P 3.465917650385109 8.438351045951567 9.703568008672601 -1.5020639207445163 -0.2649516665498792 -1.440265656490797
Ni 6.094157133071697 5.3590599075551895 5.333385357765516 1.711335777233588 -1.9436868841396266 0.9834531298394417
Ni 3.197749053469578 3.4317429154066987 4.840303695260336 0.6506981304923439 -0.4711695667039757 1.7891157616275448
Ni 2.3905293310852405 3.087083053621118 11.248942148554221 3.4989996369059546 -0.2971061397952367 2.8761275274869433
Ni 2.757099226336504 3.9995881936174134 2.702240928043684 -0.48277604059465234 -0.16951540252674033 -2.0360964455213
Ni 3.9302552780497044 1.0945182276732288 7.546890696407527 0.3452801283973021 0.99922556218235 0.4081466860145358
Ni 2.061916653931193 9.140994566308722 7.804455101899486 0.06051374111434095 -1.2526283475523652 1.4760356150015548
Ni 1.81237678637578 7.023853658842965 9.35932327440931 2.1582912085852057 -0.7784019962999369 0.49210991640106855
Ni 3.514390171552605 0.3574976094908076 11.364797715241682 1.496828126266874 0.4957148601435075 0.29317980815763706
Ni 7.605174033164425 8.320602346463144 9.21274259734779 1.9946942284254292 0.5041241672531253 1.1926424539170364
Ni 0.24491199945955414 3.689916300680786 12.722693079339697 1.1726199880485224 -0.6065654018391876 0.5692589520792455
Ni 7.472976248162164 7.416456494159409 5.688758157364333 0.551882665584327 0.47234996016532205 -1.3950309530227134
Ni 0.29184126751457723 9.40990074743242 4.028968631242737 -1.8723338863179368 -0.7133201761989392 -0.9806426569738403
Ni 7.989464861827293 3.748459683152102 10.7760107192437 -0.4279966308609274 2.17752203179036 -3.546365270674112
Ni 8.013029731657454 4.982901417597753 0.6702370962367866 0.5545733250426127 -0.9662511641388585 1.3696492797248152
Ni 5.70789941318705 6.172898975397437 11.592688540666611 -0.07753315849047293 -0.04378768660891169 0.37784186438340733
Ni 4.979601201076595 7.1154748561882375 4.695356105285359 -1.0070358022553882 -0.32554254075905875 0.10320176690117064
Ni 4.05813157608873 5.758130789004791 6.388404059849835 -1.3446725551748198 -0.13985129980340433 0.8924301643926501
Ni 8.911539684114167 0.9636064869313615 8.60719541865038 -0.4332460521853248 -0.3974007603519414 0.03949085900577069
Ni 1.1527779239106346 0.1245732446555286 0.8356479198845016 0.33489055763286196 0.01031475166244675 0.3159651814832688
Ni 7.346367081967938 3.223942749067308 6.039052027755376 0.48637198547602684 0.16703994440305425 0.2506769017984199
Ni 0.23578959579777437 5.17488134829274 8.353727442376085 -1.7762016246690377 -1.7334228389406146 1.062796602065776
Ni 8.432686777481155 2.039618915945833 3.4587555185996504 0.01776092352784683 -0.18192637459658345 0.38884155792802066
Ni 6.6849148027745775 2.593714868019689 8.983259346529843 -0.06933082518533866 -0.9455684389785264 -0.5970183815807008
Ni 3.484640941823198 8.933903615554106 13.796464387106274 -1.015366947828903 0.7823499252040913 -0.15594691981368625
P 5.76807871960725 3.3375118047094503 1.0771717600903856 -0.4158139727518065 0.24250696439311784 -2.51590800417099
P 4.744169995554327 4.672690520816696 3.7608577171947677 -0.575112582646545 0.6719801797995717 -0.4438469676296227
P 1.2140541504352877 3.3466559576491632 1.1751352360051157 -0.593397754108978 -0.31860596154022547 0.34060971950482627
P 2.367626395800871 4.847450697113318 9.39162568024391 0.024181482342209966 -0.6247590420290788 -1.3432941867700543
P 4.280702339007058 1.6820040494783424 5.3797226672124445 -0.037089191542813545 -0.6324777508295752 1.3640890120282185
P 4.1895444958438395 6.045155064267569 13.580281292554831 1.2504056288694336 1.69461563626543 -0.36870776329262306
P 7.237876009912792 5.540231392738188 7.367564117365725 0.326502847789799 -0.30438261885199186 -1.3879167105754355
P 5.670339355817309 4.177913360253512 10.270763645407662 -0.04345087209478323 -0.11586187886734241 0.44739020489619075
