# total energy = -340888.76765358157 ev
CRYSTAL
PRIMVEC
9.10499574520395 0.00000000000000 0.00000000000000
0.00000000000000 9.10499574520395 0.00000000000000
0.00000000000000 0.00000000000000 13.32608162018124
PRIMCOORD
 96 1
Ni 6.435957140135192 2.231889344208272 11.575660650192617 0.902879127640116 -0.051000916527899266 0.14419003638807426
Ni 4.702165681375573 0.26626102627370263 6.206462085810482 0.2918808868405554 0.3068963864127811 -4.204681065612714
Ni 2.852513154500317 1.797107597673264 4.771669575251215 -0.10923177514533446 -0.4957734812955849 0.5835401445886079
Ni 3.8150932819019134 4.6317840659308676 4.896841411795542 -2.6539649310781326 0.6942317921089205 -0.08970321819410357
Ni 3.5617285712965003 2.743307838116901 2.625970850225895 0.8029956264789009 0.15062987847614703 -0.3209785755374601
Ni 5.115195593590089 4.659690877229448 2.3178987739801826 0.3310709267764556 -0.3792366878484049 -0.2310154188137505
Ni 5.470709249043388 4.8890821346051165 11.369532656395371 -0.32649050649462485 -0.36542677854850614 0.8926523077057852
Ni 5.72726981307973 7.963356560227202 12.535978186205078 0.49588712405531366 0.16380421107457596 -0.6980095139837978
Ni 2.194577072527495 6.638816440537268 0.19044190749864992 0.1742796566846031 0.49264393452766764 0.16370933736792453
Ni 2.8869209326071146 1.6404470445889672 13.282545026162817 -0.32443568084812513 0.018013405858285102 0.7705259359859697
Ni 8.059086483226638 0.09253771156671758 6.648342086860457 1.3424086988413075 0.28693948367488004 1.7968622383421828
Ni 8.604129725626509 2.566051785144386 1.1989512743503468 0.6150328158802505 -0.02270978289268992 0.3352767373276871
Ni 7.255943932545902 0.6239598806541332 4.575216549703846 -2.3205769261327265 0.67730724843944 0.24295947854950417
Ni 1.0975525811341091 7.304491768710349 2.1953519076470736 -0.10030567630029823 0.3890719287712719 1.2524375716977978
Ni 7.738645270553806 3.8213119938487097 3.4514288344504127 0.5918499500058839 0.20230108159819354 0.21097958320879792
Ni 7.752120663937786 4.179129213171026 12.531953778180943 0.557251128985092 -0.18449130711028228 -0.3886667229130532
Ni 8.269930864708275 7.567489564586201 8.632742174078642 0.13102470265070984 0.2202368401410078 0.4429581372667662
Ni 7.301341440257066 0.3273063793022378 0.26248154262931744 -0.08506751919430511 1.1367710966707132 0.09487473509271402
Ni 1.9489242931357518 6.731505295029779 9.177379333677889 0.6965612115730454 -0.9548946014754587 -2.0148915293089105
Ni 0.3632601856499812 5.140616741109056 1.3029002768144575 -0.3377012876087797 -1.1260465111643574 -0.11657510288428312
Ni 6.482237832412738 2.2321260740920446 6.769395733926693 -0.7589269182944607 -1.598937431434814 0.3036364847145867
Ni 3.5214571760685662 4.317652615160129 13.452679151631989 -0.09425329945863123 0.3051092126053713 -0.18114115969112676
Ni 6.132906468924117 5.57619972725068 4.405003210773566 0.17411767718544208 0.43237573376522953 0.12143037409405541
Ni 5.347910174334105 3.012806600800971 9.418541529274375 -0.5142286026769789 0.036170536383286093 -1.016546827069617
P 0.47311377771511304 5.875963495075526 12.296494951784272 -1.0394227032265262 0.5658753803189931 1.0784949866376394
P 4.2788562292080075 6.228244877115775 12.65426027263207 -0.8937331994747897 0.21493651097401692 -0.5183444246175654
P 2.5604704228846704 8.911377799776782 1.3463602414768987 -0.9305907346227714 -1.3079705717680958 -2.62974179686471
P 6.493919541677364 8.026126399409065 5.809358631776545 -0.5805489231707679 -1.4033381873368282 -0.19852875903995484
P 5.004433322971091 0.957135340074826 12.666146844296113 -0.08594092293819393 -0.10467140946816167 0.005085899163339628
P 4.152560836215314 6.320205331965909 8.060466800548943 0.4801141774917732 -0.13532358713637982 -0.12711945405903272
P 4.773002546596765 1.1042811728305695 3.961910424319034 1.0761359994871598 0.27971545512261503 -1.206480388241393
P 0.26448646264496095 5.664909698696704 3.6989208229391584 1.4813994504166292 -0.46414582708797486 -0.4785177795389307
Ni 0.6142703444114092 -0.0716326418304892 4.745524580587635 0.12887577462850708 0.9090191790995829 -0.29410206286159024
Ni 2.0797994988798925 6.512739567437287 4.84200475521872 0.35991921846671565 0.1446104117549445 -1.9495227740951138
Ni 6.215752823249005 5.7789497677064 9.34392882240701 0.10922097651205705 0.9052193457375184 -1.7764006280537215
Ni 8.848899320451869 2.3677540875026972 10.349008337442662 -0.5407726717140945 1.7548997778674678 -0.5332054008897978
Ni 2.4591045076523397 5.2370841687464 6.916435948734291 -0.05466036765735748 0.4487973696563625 -0.3319502440576154
Ni 0.6307886273014204 0.4248481964120875 9.108909767294422 0.09145979587389409 -1.2568228452496872 0.13804587116354936
Ni 1.6919357943095121 1.2500703612523854 11.225610902556701 0.42546409424706083 -0.06470823881166274 0.06278659630891767
Ni 4.452078769160859 7.238507866106496 1.3702808857325695 -0.9211871819206846 -0.04586668062512746 0.539258034841781
Ni 5.991159898517496 8.338200121190088 7.9472215976489915 -0.3802921256961128 -0.7343715975525997 0.7972903485640076
Ni 5.312546371696688 3.193349557159713 4.608599105313997 1.5481679141914304 -2.482628159071937 -0.6257964821546578
Ni 1.0459909914493264 7.377231577997251 6.7311502002041195 -0.7745494553230661 0.6037634136140182 0.954461370592782
Ni 5.200108781900223 4.428096210935586 7.076109344839371 -0.02757148186036542 1.2310891879290087 0.4478671445326093
Ni 0.7538162373984986 7.658248160026412 10.858864414118392 0.022050037821503957 0.6136670458809753 1.3818555919830202
Ni 4.618217622591589 0.5726067953669808 10.575231966873543 0.3362095335546016 -0.0852014736690081 -1.171147260157738
Ni 8.295916521950087 7.199747900136494 4.889352552972349 -0.040139291223047005 -0.2551287669221864 0.1561027286652602
Ni 6.971021307434493 5.982328052853671 6.78636016159766 0.7184035042591176 1.6326831604266914 0.4426087243471474
Ni 2.633419647068756 5.124446269048281 2.231292056501523 0.2872847828294407 1.5337226853003778 1.3402335455668597
Ni 2.324505358736545 5.4904944043294615 11.364309120459975 1.9464461920523186 -0.3485125192916707 -0.8452769037456153
Ni 1.2295203863418158 3.4580135672175034 3.47301677885137 -1.1967191950895713 1.048976151242916 1.4120614261424393
Ni 1.4797711884760654 1.2705930211763656 2.629955196269699 -1.4033826674215184 1.373467367919325 -1.8491641330696929
Ni 1.2216991951817895 3.4748578089474784 8.048060333640151 -0.6630777351036193 0.15526969124100354 0.6748515878100958
Ni 3.76611751094757 2.760061029891579 6.910026031881371 -1.536439827121225 -0.48048647322952726 -0.21056306449666962
Ni 4.503713198809879 6.805155603869653 5.714690351255874 -0.15107699331589466 1.0309681447012695 0.9474142339380135
Ni 0.8123313121693255 0.04607674037768179 13.128881837606903 0.3391506184607966 -0.5725296524107173 0.9206783606050659
P -0.10937375880071581 5.724456369461049 7.933189889038146 1.1383009030516784 -0.23094085682207324 0.12850039356695933
P 8.575995289439685 1.8877205131849997 8.077684347095637 -0.47806860781665417 -0.5948681680069174 -1.1870063386771814
P 2.0147352008245405 3.3508932948103927 10.444556160531505 0.2811179918970965 0.5142651123418691 -0.6447331711581605
P 4.107891728146527 6.324639464788881 3.474842330455078 0.04504804137857403 -0.003084038241962431 0.2709647055131785
P 7.128036955344449 4.005724573307582 10.187296332838478 0.6062185600227302 -0.20128318185664043 0.9328569049491289
P 6.66889024077192 7.967726958081466 10.095785664767513 -1.9919536895658145 -0.3906156191093079 -0.4321258225379525
P 2.6276106599207973 8.614199850682375 5.499740527289887 -0.514084878010263 -0.1059711021161917 3.118906514594525
P 7.034200871415194 4.104003895055338 1.300442838520987 -0.5363177212665344 -0.4277312930146827 0.6374803462504892
Ni 5.23194895126764 2.752194313753904 0.471736191891467 0.8557042697265264 0.9570522712484097 0.18962528590273794
Ni 1.3038353598553594 1.2504254560780443 6.868049270990721 0.8731327496156187 -0.10072810854969748 -0.4591388607916867
Ni 6.798226702271538 1.1271165016190976 9.438996812231435 0.1632822771328349 -0.44578249408943876 -1.84894250397719
Ni 2.8630203193416093 1.6879478062674966 9.121822471954664 0.1372565424930346 0.31822209583824546 -0.5761255972920917
Ni 6.410080742839738 2.0019426821052893 2.526198309211265 0.11640823828911565 -0.4728436119722889 0.14512823193162747
Ni 4.315258001335813 6.946911279271805 10.402139628356768 0.3243770596960478 0.12033277015450243 -0.9100103393682585
Ni 8.562856780890305 7.2312784996559 0.4039932041512725 -0.3637085103058188 0.20280578914875394 -0.5532708041811052
Ni 7.6324901276728445 3.875668817161115 7.943797208830265 1.0214753747194858 0.7644771586887287 1.256804590417242
Ni 3.395953917686958 8.314845807656365 12.089288016016754 -1.827125922322731 0.712637805419934 1.0353313067659717
Ni 0.19663239395930396 5.173576824926629 10.213641637403711 -0.6034695365226832 -1.3096926966655251 -1.3534991523275142
Ni 8.636261254850877 2.48539062974663 5.564824856335405 0.42136524158733885 0.09587515133277037 -0.37948582774473355
Ni 4.022149985243189 2.9668901083446118 11.467479645806293 -1.0474252618160285 -0.2668550542201791 -0.33895187218642914
Ni 1.1227278937737746 3.731108803135811 12.56079112002266 0.17114805303415687 -1.2153134131519907 0.04606954066455291
Ni 3.3532788036391783 8.38593761275239 7.796130570330222 -0.9144645184848703 -0.6175303854911235 0.48011957680841183
Ni 5.9016668974559146 7.91336102977353 3.5903127942624917 -1.437216842362144 0.3626669564151819 0.061436510038926445
Ni 2.6520666779136146 8.785464816596336 3.4596105834334154 2.6382547194317274 -2.0687425136910953 0.011034403437290674
Ni 3.432301059841585 4.531456120188924 8.967253336343544 -0.10098059088013578 -0.8484488737156936 1.588638106391335
Ni 7.614489551510596 6.551062493621862 11.419599205814174 -0.2557671718371337 -0.3666390536890525 0.20766311724105527
Ni 8.125389060674031 8.676405180141396 2.5626456063167193 0.8654016995199483 0.45334899358278696 0.01746396111271831
Ni 4.500590185343186 0.7201222909412308 1.5492504988637767 0.7357383959931393 -0.9199134574145835 0.8911530974524394
Ni 6.336594323919398 5.91208301234191 0.31705051233756554 -0.24590313455886043 -1.116774341833812 -0.3094389503289768
Ni 7.9808381516442575 9.154435655442557 11.154090252171228 1.3604377884288763 0.5154843294609509 1.504902418634576
Ni 0.10140051421534335 4.882872527653851 5.8502027312233 -0.08761856775093298 0.5631492396370816 -0.12010677018662541
Ni 7.66955656447432 6.250351806261926 2.6394298546179216 -0.7101924292032349 -1.1671759342148156 -0.5920903481514641
P 8.590326552403459 1.5851615117325304 3.335185356522526 0.26174447246649113 1.3285108578132927 -0.2158528521406992
P 1.8388266871904237 3.32403355799773 1.37695757895451 0.030297108321644593 -0.7944186834431674 -1.1999883527591464
P 4.696729999044333 1.1544314882082463 8.01558463558476 1.280756473247149 1.4730618770852115 2.8106908951496883
P 8.818652525302152 1.8282102624027745 12.438830615401665 -0.5355749295632389 -0.5128841728339425 0.5228986196471511
P 6.574007082356748 7.6588126697492545 1.4793951521606883 -0.07522970716827689 1.9500400800511644 -1.1251633372284557
P 1.7308778601901085 3.431991489993575 5.734745924909181 1.0154546224467027 -0.7192352561317936 0.6754545115014173
P 6.979807628120669 4.106489558834951 5.7274701229813845 0.23345385305191407 -0.810911796002184 -0.4687792120949281
P 2.6409767933584205 8.662647531895994 9.87138758694034 -0.46352464856420816 0.33749405669398 1.5345274405898603
