# total energy = -381173.99746448966 ev
CRYSTAL
PRIMVEC
9.10886484604164 0.00000000000000 0.00000000000000
0.00000000000000 9.10886484604164 0.00000000000000
0.00000000000000 0.00000000000000 13.33174444035064
PRIMCOORD
 96 1
Ni 4.678968837281834 2.3617738109862825 10.151056558847511 -0.35841640866894403 -0.6390353494424349 0.5103706623834695
Ni 3.198532355992403 2.906966700257704 12.024673548854052 0.5860899075936551 2.520119471149176 1.1910280582420651
Ni 7.992573483220703 7.841703354321524 2.6947857127817283 -0.4228649660613169 -1.8203004147604651 -0.1114552651592145
Ni 6.563747830304318 0.9769166488141059 4.848075824544175 -0.3759888703350686 2.3827991652977416 1.0267345662358962
Ni 4.350648911782709 1.251102590370236 0.6736825371765001 0.012105267903966248 0.0271315661094694 0.37938169806670147
Ni 5.277740069738969 6.132907630654359 5.025814372160609 0.4958565279276944 -1.977430556248975 0.03425789274160551
Ni 6.198673635040766 7.845674819406354 11.121474943460887 -1.0102165139762151 0.10037226787217553 0.2998608197222384
Ni 5.606752268968477 5.018738605926903 11.390322179314682 0.5000116877466486 0.038388369970211306 1.3839420421984034
Ni 3.6218121977973867 6.701637826758811 3.713983890565478 -0.11618172410060637 1.7227476186149557 -1.3828174416756571
Ni 5.1790455188349895 2.4659063542197193 2.5484964320274144 -1.073949533358802 -0.6705915269821612 -0.26431454718651254
Ni 8.797951988737742 2.5436231893201118 0.6038293851213692 0.2876768760615368 -0.844890466940474 -0.7630555957508536
Ni 8.751760934964407 0.34293601007508456 7.825853929441697 0.4418679895263809 0.15316344353127817 0.028043022180145254
Ni 1.9146742875371914 8.375355311798268 10.202410517231124 -0.20003671104404905 1.2345509212253643 0.5035279284300231
Ni 3.4070251640811127 3.5045719980110355 1.1824126403594466 2.1618444731541024 -0.20856917399509242 0.7331855476642987
Ni 6.515625697177809 7.9345317962469935 4.370332257887777 -1.3481340313608587 -0.6055619002753377 1.0541960048809587
Ni 1.4670282321956924 8.309388912384644 6.4991987702650045 0.24535009026886775 -0.2038918231240811 1.682141672168135
Ni 5.120102054238806 2.2486599269876106 7.930241520891592 -0.26936265113338126 -0.5621238836963609 -0.9862440623210174
Ni 6.149440220399695 6.085659948555703 9.256283653462301 0.5746541549528877 0.07417478354120129 -0.010544865395381839
Ni 0.5893499335185113 0.49538379437034735 2.935650515744241 -0.9985550184778869 1.8272917584766335 0.16339926232667343
Ni 4.287196559074161 0.44575050056133114 3.891762517187356 1.0935891619666003 0.29109927147952447 0.1707014524150415
Ni 8.241145296752654 3.2532584161521725 5.481212982395913 0.8875034165149942 0.5475824955470763 -0.780793636460565
Ni 2.092351805758974 5.2217023330374195 2.3805699536526745 2.0608037184599928 -0.18895011421258426 -1.3632377197715169
Ni 5.274360680870914 7.716438244581652 2.2415058245159925 -0.38869937592320153 -0.8340190714436087 -0.4398967247326231
Ni 2.8260617624515993 2.962858695121277 8.547834400836765 -0.3983420412192881 0.6365493497957876 -1.1791896708462404
P 4.1614304617662485 8.904789864838596 10.004861099401394 0.012107067676179148 0.18732671967654835 0.6890926711101423
Ni 1.5618150800689556 4.095026836838698 0.24287239678062406 -2.6382752882570175 0.41824520790111847 -0.7372779725661174
P -0.0013353595904497752 6.239617982646986 12.884971222466177 0.6501376300031835 -1.0448567297579037 0.6666433409676906
Ni 8.95957968705248 0.9767526892463836 5.410808744015938 0.46270420954544184 0.4454953018663231 0.21780971875675392
P 0.6388575249922738 7.34712842715194 8.667260728192746 1.061018941340063 -0.5520600717024556 -0.7405268185207182
P 6.76632898509015 8.834305468447734 6.634862560144423 1.432187764578669 -0.17245545899167075 -1.575185580430855
P 8.637153197126487 4.390090296684807 7.343858344662367 -0.28703075783710563 1.1718514853136142 -0.9561575273482822
Ni 7.313380082795757 3.8170880429547007 2.0241719521810984 -0.4967800681832283 -0.023742852142894594 0.475143206639743
Ni 1.0495143018556115 3.0882240023747576 2.3622246997975194 -0.1341809888915044 -1.1927548111251844 0.44933755843054873
Ni 5.777206457345603 8.485690992010534 8.396946054207838 -2.7334220460641956 -0.927542691825067 0.10774079242210477
Ni 8.750831830747314 7.81457715472835 5.079914653303573 -0.11197359955652973 -0.029424218798388035 -0.7614936505803724
Ni 7.7733413234461795 7.967551431413299 9.399013189824064 1.2967232809890505 -0.5101611174758246 2.220773129169511
Ni 7.701900496243605 0.652009814983068 11.956494606162664 -2.2249989943254005 0.5966196034803855 0.5743818751281076
Ni 1.8882585794041469 8.153217424129108 13.08633361113194 -2.31537455599618 0.7356000706430621 -1.322069730173639
Ni 1.956684372333606 1.896237945033301 4.543085523758965 -1.1553079791326362 1.42186452827579 0.24910235822244842
Ni 2.955781107114596 8.921859877611467 2.1209208495481056 0.19908180332994743 -0.9398374500320201 -0.6143496737702968
Ni 7.436240452209036 2.2647097468946535 7.225498665383067 -1.2309647465360025 -1.4373297137909244 0.8041878470147893
Ni 9.039464431992757 8.001436408742583 11.66122346419744 0.2750771850196553 0.017885364920853068 -0.2458936214771636
Ni 6.752747667563816 0.999470198240802 9.521132097636643 0.7156061440196385 2.033397301422582 0.9111861048439146
Ni 6.526009803133558 1.9909974663119436 0.460019537385612 0.6879292469296604 0.6691239412976993 -0.13354669774161515
Ni 7.681906537846351 4.378549364890128 13.157592261037047 -0.8817742273407009 1.8652186154293942 0.4854391892491124
Ni 1.8808895077215146 1.5565501561720936 0.8023498079466113 -0.3323497934888792 -0.721741310383099 -1.0019679008141777
Ni 1.937000115342051 5.347559518994069 8.15556113506105 -1.1620931203752696 -1.2002068965278556 0.5535379417995628
Ni 7.193662271763825 6.614201832838432 0.6141096500175603 0.37928733858068225 0.778442105509253 0.2271327959298927
Ni 2.933564585688218 0.5223906678336798 8.053706718932467 0.6559575791190703 -0.9149455718863468 2.272450245828828
Ni 3.5683067255306606 1.3321441611494422 6.124670484149286 1.279860186685125 1.2435145581765552 -1.1637656229816862
Ni 0.6592805109250667 5.971453000772215 5.9817141370521725 0.28810727873073605 -0.12103056755247542 0.4457796658759613
Ni 9.015034456402127 5.397266594608559 1.7359401409900872 -0.39941753367165406 0.1316656786688184 -0.6506521077457569
Ni 4.781607526676022 4.8647532452409985 2.813891408094165 0.396320382803569 0.30450448914183686 -0.9076089290156175
Ni 6.312725732121405 8.779169509368659 0.3938673171285694 -0.17528367246908524 -0.5922243026261672 -1.184574332196921
Ni 3.9101624242317525 8.112209314468776 6.0054172252259 0.044770619347471285 0.07661218933810032 -0.3081528845277015
Ni 2.1243603569243255 8.716664478606951 4.338535943273977 0.08018962227671352 -1.8670903785308104 0.58855482419438
P 2.9229254315160125 1.8643387002464311 2.669561444174133 1.4056516659613534 1.0891560658959114 0.41588184987526433
Ni 0.6798601693336832 1.2227102585596497 12.105650446692657 1.8163218897286912 0.41531620717978157 0.46945027002002376
P 8.887328170876167 0.8317687088284369 10.1648282516497 0.6329562331278905 0.3011839094090361 -1.0629017601850728
Ni 3.2252213300716512 5.500761517300853 12.920980387083954 -0.09963333282362195 0.4141561254334093 -0.6790527703756369
P 5.214779595733588 3.4877205979951276 12.966534731202634 -0.09015804634333505 -0.14815776278657064 -0.22789898467195588
P 1.517190751053857 1.702091599120296 6.9435729213439545 -1.1167748560544444 -0.20000071559979105 -0.11832988079186073
P 2.185116485630328 4.120458787565409 10.519026462254335 0.05551783056164632 0.43304036393242196 -1.2194156082458225
Ni 8.775790120500604 5.027091435015868 9.417730996252546 -0.06453674623080498 1.3294796494844654 -0.491542988154005
Ni 1.6469374223114734 3.833793701132633 6.233683557181924 -0.4543815486123594 -1.5468096003913232 0.3104864177568846
Ni 3.0875863818336153 0.7701672774621767 12.154284498025055 -0.4409416210573696 -1.367631220853522 -1.9699352763131948
Ni 7.871334491754902 6.791469452140909 7.471176592544718 -0.11368081205562358 -0.43909325499472124 -1.1801240097350514
Ni 7.772084300093642 6.072989517516715 11.169321988868218 -0.37454159636558076 -0.554662028101677 0.5282652832757031
Ni 2.0994749380900224 1.7863303814700884 10.248032266949869 -1.2753332453490487 -0.6986862283358483 0.2727315676056142
Ni 3.953201810758869 4.349191493402955 7.058132382198045 1.1356202708957217 -0.7119559488615609 0.4222658990247372
Ni 0.923074148547062 7.591874517437036 1.819810014312504 1.0923632599792994 -1.4000561741514468 0.5262917044891
Ni 5.205361029454426 5.460791818236095 0.5675433110114393 0.786372416099923 -0.17578760868869725 0.5008812348357954
Ni 6.651839662495585 0.5639899428243011 2.480664537087705 0.30191590247905425 1.4292327957154032 0.4375837603287303
Ni 7.164422815520006 3.0593397918610044 11.50372208167038 -0.8743493956315394 -1.5119202447133058 -1.1600177259034796
Ni 3.0130485405740624 7.206961214479081 8.494041088440037 1.3195973573737467 0.9252502962464646 -0.5958924955063737
Ni 5.479127963226378 0.9495445098693476 11.774422971525922 -1.145452683605111 -0.2366350789933731 0.1101476020913845
Ni 4.155054256354823 8.068113299616337 12.933565194793132 2.252905490927681 -1.0355380234601392 0.3289667359492593
Ni 3.8987216899506825 6.7499603549125355 10.936416512032137 1.1212136085520883 0.7333477842737757 -1.1717131599635369
Ni 2.95910584279341 5.723755638268118 5.731143838566984 -0.19352025008176993 1.974573289305838 -0.6135402904951239
Ni 5.089040825020295 6.546632273207079 7.167865966442176 -0.19218841864422384 -0.30092679909290754 1.2968734334136698
Ni 0.20103629130329273 2.896190913112396 8.691443853545305 0.9893754088611477 -1.9764447952969382 0.41709849589118486
Ni 0.5155790586813037 4.342733308207669 4.0510501481161025 0.002024743739512642 1.8538962484380395 0.6093187962146087
Ni 6.349625743723807 4.564597929930624 7.12887000503239 0.505639061235755 -0.20393090389213264 -0.40337831809161495
Ni 7.598587750848779 5.600694873827623 5.307127089593737 -0.5350409114366399 0.08471450673026056 -1.1911512140834903
Ni 0.25411091426150356 4.0845334245044675 11.631787256472355 0.8368403429424878 -0.18542358911656454 -0.8730155073114644
Ni 3.6479819665788473 3.689964724780642 4.405634574591373 -0.2528109174222872 -0.5346081947745954 0.7077182566311295
Ni 6.694195884157191 3.4329398846461174 9.186705589126348 0.4552050729549193 1.2275953158431374 1.1129611387353089
Ni 8.624582963601107 0.06525681883998112 0.8810094105614068 0.04651125618766184 0.7539019542760436 -1.5270637852229636
P 6.604163863747876 5.956031692541441 3.0735669279068674 1.0318240649436616 0.3078654351942698 -0.06354327196928412
Ni 1.7118836288592696 6.297523036647595 11.260218440554024 -1.7653999060678436 -1.6879253687294478 -0.01765885073234378
P 1.5805429062487968 6.516910047124968 3.8543669833358383 -2.719748148121529 0.8344528165469177 2.4752629769561176
Ni 4.403161517778227 4.5969890534206606 9.586364322541467 -1.8769017081942774 0.20378512234288773 -1.3166899539189645
P 8.166461713655124 2.182948575790444 3.4573880779664936 0.21190852278097053 -0.2877846052839947 0.017459847347660252
P 5.205552315616769 2.903277609983951 5.850209454873976 0.2410586619823655 -0.11585930776418112 -0.24495645437487493
P 2.991824885418892 7.081978479550287 1.0914888620790195 1.4728327917935409 -2.6955890343768223 1.4352345218247928
Ni 6.379001832940728 3.49674748308473 4.078820344455831 -0.15270758694078215 0.853910411050897 2.21865196906145
