# total energy = -340890.61239900975 ev
CRYSTAL
PRIMVEC
9.04860864485435 0.00000000000000 0.00000000000000
0.00000000000000 9.04860864485435 0.00000000000000
0.00000000000000 0.00000000000000 13.24355339912422
PRIMCOORD
 96 1
Ni 6.367967296742174 1.995516783425447 11.308710239187263 0.49145171399177945 0.1369230704130158 0.997541489611708
Ni 4.531036426292627 0.2414702621866711 5.958433609012504 0.5289042024112827 0.8612357410677167 -0.05063761965120957
Ni 2.8060096974482946 1.6631704409804013 4.817448412430994 -0.42788427365277915 -0.614112103838194 -0.05124954220359561
Ni 3.4185190569856516 4.149719014520549 4.689541806652674 -0.015229929575876997 -0.10719803254475731 0.5768416495225097
Ni 4.972029411274569 4.8232793357632815 2.753824562373856 -0.08935869037049127 -0.9661213234292135 -0.10437264728082025
Ni 7.141541887990762 5.962200544740671 2.6241037105866534 0.33381609362176057 0.31769296280765286 -0.7236043317337667
Ni 5.093235522441533 4.236667093819045 11.618357242291252 0.774367421219247 1.7477281998196932 -0.2744986868083659
Ni 5.675205828213418 7.733076572971567 12.512323569939724 -1.0505357824205521 0.6011218622261131 0.1610032512906711
Ni 1.8481511450181936 6.602525326878046 0.5334797175574287 -0.6503512886758864 -1.7770038088553588 -1.0560546553562522
Ni 2.711515078641532 1.4228574958238351 0.4175217993338653 -0.783109171967619 0.5364285358127858 -0.27651854545187216
Ni 0.3640481424057365 0.22868367348267443 4.962849597927882 0.8192442271272794 -1.0025854797935185 0.04285309060978426
Ni 8.768680769832168 2.4406811769365397 1.4412297905691434 -0.3683233833700108 -1.5271779422033247 0.323933544400726
Ni 6.7960660145786935 0.6746579174565843 4.849445197029538 -0.5009205727141631 -0.22468253461718726 -0.47361751402383595
Ni 0.8967967323944985 7.588715072593983 2.751573268573308 -0.568942192169775 -0.5959935398606122 -0.44627100369008305
Ni 7.754621309865074 3.6902668681514776 3.767777248760377 -0.10635548203880392 0.4516615785780351 -0.7168983804685009
Ni 7.54980605594464 3.6702332488813276 12.973636110221145 -0.6995763442502855 0.7528866256376519 -1.1986449513573745
Ni 7.691217709943692 8.735146626645548 7.2507658317514325 1.5351774154690336 -0.06309821401206553 -0.32375510984133277
Ni 6.8816115595561085 0.9944692225145756 0.36225651791816216 -0.7934349793736594 -0.2574594719378921 -0.6211720960087689
Ni 2.008347710311207 6.616034899403039 9.318415407740499 -1.4461514258476127 -0.012631058500449216 -1.7459983616127799
Ni 0.06753519457303064 4.72698404386042 1.391301378460366 0.21205301877863478 1.5416879628940419 0.00454056818283089
Ni 6.447812218350033 1.856104871910001 6.843235505948776 0.2743727027534629 0.7098551004684742 1.5333933269854172
Ni 3.5515878939264027 4.450684782607475 0.4866169740162789 -2.9161179518369518 1.0677382623417677 -0.20166499067609137
Ni 6.153560517787251 5.652792424901691 4.939077093615985 -0.679318622442514 0.008107973819115068 -0.5877693521786072
Ni 5.548679135234869 3.03170913984005 9.179278573924154 -0.08031432078003588 -0.5015813462266137 -0.6517466263615163
P 0.3263869288717301 5.42118424114435 12.420837613466892 -0.6430354717407635 0.8307026054758662 0.7728648685317915
P 3.9126183253896847 6.265066520617447 12.427035005444365 0.7222439610511303 0.0015202932992683493 0.9014858468370152
P 2.3352196445997753 8.472031188010762 1.2784389892125563 0.4722674277538447 1.1537817722960968 1.3903158069352315
P 6.530091215650607 7.743247208951534 5.772507325384047 -1.0751898335238061 -0.6896272034573736 -0.3278143675123709
P 4.69610114297107 1.117466958169113 12.68393405002378 0.7412845226223491 -2.2287816012962844 -0.1092042643415087
P 3.916961657480774 6.001824401463338 8.220816479305562 -0.2411044276186364 1.1191335860946083 -0.9733216978323947
P 4.706778501028332 1.1421606108286608 3.8117996340861247 -0.8223056396614226 -1.0152587043858128 1.0696565624104029
P 0.39766553279076833 5.553809696267469 3.4383445582597703 -0.3857824593867227 0.3086640198361652 0.12952857772115758
Ni 1.3261640651459579 0.9836289895038983 2.6876864729567926 -0.001519264858003835 0.47527150468749113 -0.24975850374920855
Ni 2.075633163289 6.569461711334628 4.7962185671140904 -1.5928477735973086 -0.08667702977327008 -0.5276944983738976
Ni 5.745033940186202 5.6008986550216955 9.388699569582847 1.2554940991359345 -0.13645692940987467 -0.1421308398662004
Ni 8.65472259409221 2.355262312478448 10.192887413186797 0.6128368366701962 0.2898785116985459 0.07297279281330013
Ni 2.238616700007129 5.196715409511738 6.6210089195081885 0.9485753441256503 0.28620954748739097 2.2765164454784017
Ni 0.22195512818489513 8.942884581118944 9.365920602486788 1.0149925952086198 -0.2946880172720473 0.2687350448517114
Ni 1.4726610371349935 1.1615970219362857 11.32992560673053 -1.057387515235063 1.4583425685971658 1.22402945286875
Ni 4.115678149256636 6.959221474858762 1.4907998777804055 0.19932451546837282 0.012338209850378751 0.25108442164948375
Ni 5.69813500221096 7.7326965314135965 7.924160563458192 -0.8100718165993919 0.032217208162492905 0.723904893693321
Ni 5.550126912598566 3.114051477400286 4.932892369690445 -0.41767982231595163 -0.5207409498741999 -0.9334914532093342
Ni 0.39956393085891534 7.176668586277447 6.5082397309281665 1.1052504003546129 0.9124019795288866 0.5478308641124565
Ni 5.391794360661312 4.6324260847939955 7.131931360878375 -0.23915167476763977 -0.06296605930957543 0.12392897214619301
Ni 8.045163080933385 6.823338520667326 9.214864036662963 0.1206976096930889 0.5198189522805629 -0.2430893192591491
Ni 4.67335294114399 0.38310632167709585 10.582791049586447 0.14386890560322962 -0.7840255131343014 -0.6183878483954124
Ni 8.124193627774165 7.204402571400758 4.336905769316274 0.2177685811061733 0.41964388802085795 0.7077321405882006
Ni 7.3984590297872215 6.05271377579727 6.969963078036537 0.19713650667811852 -0.4360745227730554 0.5231135638714345
Ni 2.492013933088102 5.140369724238376 2.668430129158777 -0.6770586227637437 0.79866691719656 -0.7428582948673722
Ni 2.396786376990967 5.325866198961984 11.316827745893338 -1.1361044096209918 -0.5544897641898708 0.8483532286780938
Ni 1.2910373668592725 3.3348646711895658 3.739250605530443 -0.8615167626432454 -0.15651024851632397 -0.40055858925463267
Ni 3.6387078967868374 2.658879322862642 2.517532818844957 -0.7890911005826668 0.19400156059356266 0.6961107542991882
Ni 1.3743298083144344 3.4049732900265672 8.21334685296974 -0.30956801970767334 0.6389787851728868 0.7788334274104006
Ni 3.947853606978647 2.806706440304574 6.793466349350006 -1.018258153333769 -0.4151061480515044 0.5657941334590966
Ni 4.081718721469431 7.014065091117288 6.310209123678356 0.2431836787451683 -1.5930516620779982 -1.3514191298700338
Ni 0.6912458266011366 7.208564931321385 11.203926447628879 -0.3230259449847921 0.5524403378600099 0.8451234088868865
P 0.478078707013879 5.574413377874575 8.037326985952378 -0.23504150925400807 0.21915620548231934 -0.15883195467096517
P 8.522612909654908 1.4735387521617342 8.121278166108022 1.3016621130515649 1.842728661856994 -1.436316699145378
P 1.8928422225137989 3.3841795876404763 10.33628885620008 -0.7407888139328532 -0.729541523153808 1.1845887303746243
P 3.980654812874895 6.18175598194524 4.102058183707662 1.5200436451513886 0.5323841905400831 -0.7814412973468929
P 6.975282754987269 3.986844061104698 10.541590020398203 -0.11370780863881706 0.009679689181609136 -0.5104395679481919
P 6.329755022949111 7.9004667820404455 10.038281983100209 -0.47738469437575204 -0.9590119660779419 1.385350492510156
P 2.376607979984448 8.46394173199111 5.821031393450038 -0.9220294753163217 1.0926249982811183 0.29094166285573764
P 6.785135295482786 4.045895280326467 1.737567195396501 0.0008559202423920743 -0.6488217394052375 -0.3476100620820594
Ni 4.935880220224774 2.8178633746135597 0.5409077202940439 2.2161487430236217 -0.20654005938020556 -0.01085288355410389
Ni 1.5402903372366643 1.2878613052676635 7.11271483095786 -0.6312863016246354 -1.1262848524274087 -0.2321135369739357
Ni 6.9051741361502685 0.8530313275508068 9.258555242916763 -2.0117383283919095 -0.6328158508952845 0.38110485140539524
Ni 3.0664919910028576 1.824525228164372 9.286723561249183 -1.4285743361957977 -0.7771832934014873 -0.4252316665212805
Ni 6.055374066703062 2.044089713977463 2.5246848390216168 2.2359747766106137 0.6421918927935456 0.291924081373665
Ni 4.005710409875367 6.985453390967237 10.276878407219943 1.2961290990484775 1.2613441301588084 1.0093022296920617
Ni 7.9691004776881815 7.04687534562206 0.41828821647577213 0.5618302637153421 -1.2548554371106713 -0.7630142009899569
Ni 8.060762882027214 3.918626601449025 8.398544723612087 -1.8427919109947621 -0.658218350128789 -1.8305719718898021
Ni 2.9260394895072546 8.302550750373046 12.32470248193489 0.7064478745591382 0.053336249529295235 -0.23967952224665173
Ni -0.07626981638038184 4.848172057810338 10.299007684224044 1.8780574190652752 0.15032880229596046 0.6580188325234732
Ni 8.792370026945651 2.4502093617113667 5.5484266790570755 -0.4547181060161717 -0.5353874961427811 1.2560674551409012
Ni 3.7992483092037284 2.5202636888972294 11.375656369345439 -1.7470124046995912 0.011486660483360863 0.4821772306683889
Ni 1.3316837163450506 3.3821798451568705 12.610074782953951 -0.8810036677232633 -0.11220397039978094 -0.8115574000059829
Ni 3.113001838811606 8.538131273272029 7.963599828566988 0.10305521402097735 0.19181792267868253 1.0698020868493319
Ni 5.563220249131496 7.806623663047347 3.576394654192489 -0.18857421893040424 0.14787159900471952 0.3087884612291714
Ni 3.0013329610279933 8.399895680864587 3.5576549859411433 1.2719514733610093 0.5525187565064291 0.37107060709784484
Ni 3.612114036337438 4.353059345251717 9.45972481246324 -0.09147599382381019 -0.4996381064573137 -0.5013692302158075
Ni 7.1272179406986895 5.97257929871667 11.457540847314407 0.24751675890288338 0.2519421416640887 0.5714348766846417
Ni 0.3973723578746198 8.805571946780859 0.3107084048837497 0.6021991544506919 1.5474618892633414 -0.8302174383093314
Ni 4.427746560001409 0.30014143985047015 1.6888313898910687 0.8588014205946112 0.1087268104844579 -0.24189349917883504
Ni 5.588963540379724 5.422469143554631 0.359934644971134 2.60595215064428 0.8897505606779579 0.501192081207995
Ni 7.726136290234347 8.564562258768012 11.617205354426261 0.71774453051888 1.0592888460228338 -0.6635384767901218
Ni 0.16844346710096933 4.938323344526011 5.514032918060761 -0.868612236037446 -0.371234900589851 0.021593152789743456
Ni 7.956142870283099 8.955407855314919 2.1850009799251877 0.17315197083806308 -0.33395287630994097 1.0354922578238683
P 8.257986353396765 1.4933642534358527 3.555960181564766 1.3067120167706465 1.101795866147109 -0.7582129229465716
P 1.7976418122422333 3.325101222593138 1.4550696373052292 0.990889531512829 -0.9797674534577384 1.042589788100598
P 4.627060259939795 1.184499050108259 8.132680317707983 2.2743996562457154 -0.5259471766654877 -1.1687990716405356
P 8.512948995752234 1.815214209994099 12.327986221967926 0.30557072562282217 -1.9228064411461918 0.824061960230897
P 6.3310399253593905 7.777505240820001 1.4643263638243633 -1.776585747481334 -0.13979087887911407 -0.009379641442687074
P 1.7053188594810145 3.2070983188433533 6.100205397630775 1.4811071159871914 -0.11478047287770556 -1.8823326494018617
P 7.199462031147143 3.894638740254279 6.07316272619863 0.024077352664177886 0.9222642170349471 0.23332915454859168
P 2.4027765558332614 8.82042071336727 10.192609620905138 0.3433577145636087 -2.172899702527 -1.5492439208644284
