# total energy = -340867.4343871428 ev
CRYSTAL
PRIMVEC
9.28175388425269 0.00000000000000 0.00000000000000

0.00000000000000 9.28175388425269 0.00000000000000

0.00000000000000 0.00000000000000 13.58478502366609

PRIMCOORD
 96 1
Ni 4.976115362416473 1.8565271426722858 5.701737825236675 0.9226750793201206 -0.26019975368719056 -0.8737660123242437
Ni 1.13923319766849 8.225128359193953 4.233440461245326 -0.1312494170670062 -2.391600051418823 2.133481605740694
Ni 1.3221951314665594 2.9381113665775955 12.721852268366222 -1.3638617265087607 1.8257059020467525 0.9333492712045153
Ni 4.947991647957862 7.567339738742685 1.499230665369638 0.9571371176527322 1.0612914782751595 -0.3673448215068254
Ni 2.420254468627326 7.651580937563265 7.8713236777260684 0.8266618597475891 0.8754631975210083 -0.35322535138630784
Ni 3.61985619396539 8.714499554281687 3.7825207882327367 1.633080652975426 -2.3979308787328573 -1.9410617878119538
Ni 3.938489525202907 9.314611355707937 9.13385291029682 -0.19736147820473107 -0.9574070834846672 -0.5843207315083744
Ni 2.779996688094939 9.059103233062174 11.249723396345662 0.8420082602966724 0.002008545789596541 -1.0803932321016168
Ni 7.790946473073514 1.0583705572845217 9.972753610984574 -0.3963358094225368 -0.5618947984046904 -0.5934828576236165
Ni 0.2416170496890762 8.610998716021628 10.524486126314248 -0.2706461458314952 -1.2984302363778284 0.6881917565624277
Ni 0.5988893944314625 5.004369021430339 8.785104000203724 0.5035361559601393 0.3669265030224842 0.8844872553964896
Ni 1.1112301460111857 0.6507066421899083 2.671841978405987 -0.05748575292129454 1.048378112647601 -0.555611793609456
Ni 6.620767907746605 5.994082444770851 3.0588994715634503 -0.19556993352194704 1.125637705761713 0.6400349943515429
Ni 5.709782321382312 0.7861812664456846 7.612437924819088 0.31761788659534335 -0.8519872258862552 1.6615155112773512
Ni 8.137332248611772 1.9014415500205437 1.3921554236646911 -0.0007384208279213089 -1.2707754507750373 0.2262092556743588
Ni 6.177972553963594 4.655143029184378 7.252400545575969 2.3599633983501485 0.23867062136616315 1.033936483300974
Ni 6.9514118285911985 7.549620870458365 7.235555090338037 -0.5550428084798634 1.8296283770296102 1.8557983505567586
Ni 8.377293433396751 0.9085342751469597 12.557055655217312 0.3086185113102104 -0.9574847308001382 -0.13341377170817667
Ni 3.0731794500105045 4.742057373141619 0.6891238217754506 -2.4214487593491394 1.1169391495464507 -1.6300562643268055
Ni 1.2984524048708075 3.4251714049325925 4.5663212847910835 -0.13214416096713372 -0.5671218511315845 -1.2715123289410617
Ni 7.96945316497715 8.968615413835439 3.001313613727108 -0.12116452202717844 0.45350017444867063 -0.03745634507424517
Ni 5.052040109700776 4.145574737508545 4.457996719004906 -0.7630972476220664 0.06619099400477632 -0.8021183660802702
Ni 6.674713461685037 8.665055651007423 0.06447570379100502 0.4344472715822776 0.15511028284500383 0.197839189172098
Ni 6.7283991265129615 3.9452466420761314 12.063330389353162 -1.8918225911701676 -0.3256983496106326 -0.615225905727663
P 3.3947829425109775 0.8620661021880183 7.2174194713015085 -0.1571990470532325 0.3576543336919389 -0.8323524823744632
P 1.504033973037074 6.170370797481216 12.59931733728759 -0.22437425934814906 -0.42114052717104244 0.6387908375317967
P 1.0423316864645609 1.2189727458249031 11.373412977615265 0.45609313198682744 -0.28118766879276735 -0.36817605915886914
P 7.354880390901887 8.449440506824734 11.47827359282852 -0.4263853205097496 0.9979060720399782 -0.08260080282136743
P 6.283970184035324 6.39029267549519 9.046570080707895 0.23188753700605869 -0.6695638570485952 0.34842458756355477
P 8.42755413101833 3.9729248323452997 7.408910408801234 -0.3684663367057783 -0.6313323243712223 -0.9848456393115942
P 2.1860108442735378 3.2899548134365353 9.15742206809377 -0.6085742047391003 0.5572349310351759 -0.9939087779551271
P 1.6043233244315618 6.807618896448357 9.623584237437688 0.2707513039507918 -0.008641220614765762 1.4015214458430636
Ni 0.27085271827050683 4.683702986078487 1.1452412769982123 0.8229317032811956 -1.2629976066018314 -0.7890137103775121
Ni 3.092169918585528 5.2944331140198 8.675814132007085 -0.030162896736625474 -1.3605696860210503 -1.101014507896394
Ni 1.2307884185990985 8.67276878853716 12.885317877999173 -1.9186014019259088 1.1516331013842103 1.2847157150052133
Ni 3.1447696182016833 3.197434290095466 5.740536484909429 1.0678783874640576 1.1666108057399651 0.7372486619900787
Ni 7.408881635364001 3.961573247268441 4.933246653638075 -0.12079942537827582 2.1389984217938647 1.2024118745989745
Ni 5.8513012238082025 0.7652360604894791 2.1551722167855054 0.5840839329072199 -0.7409027138028982 -0.3408478036575614
Ni 5.110134607653401 4.8857667694989395 10.34174324190932 0.5927128122268115 -1.0076502959109357 -2.333607276954123
Ni 3.2722637904140552 6.827305496569386 5.39603954629933 -0.4857760037632408 -1.37133386651609 0.38649619762429566
Ni 2.74603475040383 1.0303303786114306 4.855242793469702 -1.746100434408283 1.2492473468952743 2.4501052467435676
Ni 1.160219243342061 0.9252534985312162 9.117890149859225 1.6609159300201395 -0.9872303374936867 0.5708322101036363
Ni 6.138887088093886 8.489908954032504 9.763262568055941 -0.6670457186124319 -0.48291976526136826 -0.7963089584873447
Ni 8.74583475560587 7.176308726720624 12.497852915843447 1.1180884326595453 1.410663517353648 -0.0005730988946506259
Ni 5.211695559338591 0.902134505800685 11.6714630913005 0.6913930371085448 0.3580551686747834 -2.4787637910205245
Ni 8.6317063090768 2.479221451450943 3.874258859716096 -0.1647552621339356 -2.840187619057225 -0.9584360389698139
Ni 5.936349935222149 6.320150460919703 5.468745381314907 -0.6179103945383616 0.41100729539178243 -0.8419565811231307
Ni 3.8013794559017153 7.057121724290581 9.982453043858914 0.3525815471547218 0.6170161648588665 1.5956980985619098
Ni 9.205773508928504 2.7354628326584973 8.936791992253658 -0.7168832109598492 0.39239276561438874 -1.9237024705978998
Ni 6.066619351864596 1.8208573622549773 -0.057863382279349944 0.2618594007778006 1.3606126234438438 0.9019527591711047
Ni 1.797161044428959 5.60666203503407 3.816495720379371 -0.04480918589489057 -0.2804564470536976 -0.3600233481447477
Ni 1.404422189680698 4.645369342278465 6.522028609261222 -0.43154860987824384 1.0123854966030759 0.0024407482310087
Ni 4.524558032907743 3.1462825440950013 7.9536881058986175 -0.4608167627147418 -0.37936627144773377 0.30359251885052874
Ni -0.03404918617820814 6.81642728094381 2.5548092710669814 0.403336409110086 -0.06279508094934991 -0.8279888060891288
Ni 6.872062114100548 6.325747358549585 11.424560082738758 -0.9173606090857427 0.3537421431217263 0.024560720058499637
Ni 4.677215040069718 7.088568306662124 7.699136003909371 0.10588625571186926 -0.9400703919784326 -0.07885547684632226
P 0.5609567224019397 0.8021430987078875 4.882235990297601 -1.3880048994138676 2.5338630459875136 -0.36633000708906593
P 0.9710570979075714 2.2279643721127864 1.153436137557786 0.5125206188469368 0.7047756290630378 0.6618816579129891
P 3.134429744305019 3.9064210653169327 2.773673957306422 -0.800868295723253 -0.7568564089186771 1.4970528406831702
P 4.329307056884194 3.6934048122393306 12.48490672543854 -0.5383630338313373 -3.648620357391297 0.621718198320226
P 8.631000895776847 8.325445555850282 0.9498083785973076 0.7819087239016147 0.23446532503556397 0.08959420342006505
P 8.113394605183139 0.3343937494390755 7.765972985904424 -0.1852227859596681 -0.5037259033734421 0.4874551912378766
P 1.178541425632919 6.814812255757078 6.338157991751767 -0.8674992054789253 0.26132332576867257 -1.2858590845810371
P 5.776221116133051 5.606949769406419 1.0874864912400393 -0.7147183420980464 -1.0025448563635702 -0.3945473500635463
Ni 7.840111923729377 4.902947296054349 9.944973321421992 -0.9088068059784605 -0.8279016456919613 -1.3921189215822412
Ni 4.79105575222644 3.5979141276353053 1.4098288113546722 3.036204924529235 -0.7633132202876144 0.008166594971192386
Ni 2.7664917361024375 4.946571539604011 11.260876351888058 -1.2884376439414906 -0.4782529559133182 -0.6420646231870619
Ni 7.795726576356084 6.17124328235221 0.7328798662311556 -1.021799590828124 0.02269872714909639 0.16252611569310074
Ni 8.88400294485699 3.013599871426403 11.020004627040906 -0.32806376451901564 -0.9004941723477073 1.5384707415083245
Ni 1.456409293536369 2.34231558073658 7.146398274627265 0.9173906909927299 -0.20732733116819133 -0.2776027796549864
Ni 3.009469490920105 8.907986997055357 1.4636379235100874 -1.137294316164035 0.4920029585095591 1.0968323514942464
Ni 7.304796046605297 2.054989605561405 6.569968868396116 1.0076893766789872 1.5363611513644895 0.20737155414256545
Ni 8.250124122572515 5.929221548191056 6.669395944848953 1.8727594038911293 -1.2995486662529878 -0.9603715654296298
Ni 8.104595502441633 7.0908330546251275 4.562748737696984 0.1588661503430103 -0.02805922013006135 1.2632829990527341
Ni 3.726132276655523 2.0706572062234967 9.927067889883343 0.40147287353878597 0.7742062130510344 1.7360013983010683
Ni 7.240222884397851 -0.12004742102090571 5.628706200657569 0.01616092603057862 0.3393779039802542 -1.2515808801244575
Ni 5.052077236716563 7.881387883530514 12.109233303496747 0.8714065109531314 0.16893896119798002 -1.3831737965738116
Ni 4.1991490212891085 1.7892715535742332 3.2622775513427618 -0.8499539975063105 1.625728840596045 0.7726329550266435
Ni 3.133612949957706 1.790932987530699 12.474554785261743 1.8360674477867347 -0.3499783052039198 -1.2080659875609583
Ni 9.314425720629 7.404398548207727 8.26188596117382 -0.7151376890236523 1.0159387611719728 -0.16314215201054486
Ni 8.940528826392615 4.924898644138381 12.304935372762108 0.47784723583446737 0.2417852557357449 0.3527352991237667
Ni 0.9142379129472293 9.324821285049346 6.893055585177277 -0.5032363653315333 -0.6604706364980755 -0.97296071494855
Ni 3.148593700827739 1.922557540249369 1.2065259137823294 -0.7829348511732839 0.44910693047698136 0.15847611399344322
Ni 4.570697631776969 8.636718456208037 5.917709388770918 1.0812357826075703 0.9361260626187039 0.12143037409405541
Ni 3.1126547495459747 7.554484509526455 13.151715354375245 0.116530879909909 -2.902031391836899 0.02971501056592947
Ni 4.178051594568176 5.802952567499652 2.7025302414800816 -0.9052663969253699 -0.019340095089508628 1.0998996775656606
Ni 7.112320315011822 3.866063999156522 2.3938701548583334 -0.38558165622982626 -0.7253112871225444 -0.6505335798900216
Ni 4.698117549957768 5.603961044635569 12.401509238051716 1.0283605318750935 3.190586299628015 2.50729892234574
P 8.961004375599115 4.70456836895075 3.1969887659060228 0.20830100793537032 -0.04222008501147568 1.509455328112581
P 4.276837301823292 0.10550569711255367 -0.06950362990395217 1.6052762291686482 1.0727354584460427 -0.46988658622649393
P 2.114364985558679 7.337031578062313 2.550910006233957 0.9716977890757266 -0.38610693260567697 -0.294611398397841
P 6.2518645971335625 2.3204199231762286 3.8361804641496096 0.5733506056501159 -0.4428252112333277 -0.046676063900300255
P 4.306938029872558 4.932648908683905 6.466494019047108 -1.8367055955913656 0.6384270264344747 -0.42548054930729307
P 8.204559992447985 2.958651888061723 13.141255745852668 -0.21809228299417927 0.9767533492217629 0.7580386021522364
P 5.98603516409903 8.031557380634764 3.816360206771748 -0.09539126971781635 0.21713197596343897 0.14837065012832512
P 6.245961401623439 2.6231164828871987 9.97057982421025 -1.1242770779687605 0.38086136793602154 0.18492865175801698
