# total energy = -381179.59602277103 ev
CRYSTAL
PRIMVEC
9.07470860515251 0.00000000000000 0.00000000000000

0.00000000000000 9.07470860515251 0.00000000000000

0.00000000000000 0.00000000000000 13.28175332925285

PRIMCOORD
 96 1
Ni 7.920051753643154 6.0866793001991075 8.457076674196943 -0.3852463843775946 2.0044862748151866 0.35003101281872623
Ni 2.7520052051610655 2.332499575936781 11.719314630237102 0.7744759217726532 0.3750110798028316 0.2938025293433005
Ni 6.297421258048799 3.289790586295649 1.9552203807764066 0.46130090144001196 -1.6124107833309003 -2.112258691806175
Ni 0.6674384653349845 7.301501465956347 7.329522351175669 1.2429558574596078 -0.3693338269123962 -0.1261090105166473
Ni 1.0037262942720955 1.0530836343549648 12.932908080449717 0.9856804765080638 0.4141311857327448 0.3416715851104374
Ni 0.4621231832289138 1.400399956655325 5.1654602565306975 -0.10084123708879408 0.1753366371942077 -0.5910572789012595
Ni 1.9333031445623698 7.155180864467805 3.287818652116571 -0.8602736342647636 1.5727072940936915 -1.0620635805544936
Ni 2.938209150952644 6.474849960622849 0.9992769646448422 -2.801689977202659 -1.9112932983002697 1.9732383725444982
Ni 3.287458386185096 6.805532342056892 7.626741744642147 -0.8422250042931689 0.3196878817504946 0.15035014245219913
Ni 5.499663624902073 3.255778578457702 6.105609142341571 -0.6113808209499599 0.2343892203819899 -0.6441844977435421
Ni 4.230002995066733 6.673785722582155 3.1304958739197226 -0.48014580206065693 -0.37530804221796005 -0.7700873057866544
Ni 3.155938634425393 3.1222079425540885 5.225426838439432 -0.151075707764314 -0.8670029825687972 0.35366269603404255
Ni 3.710621122975734 4.8534899242326865 12.816200975540035 0.37818819197923254 -1.8417269600653574 -0.31717102886591186
Ni 6.00449873910507 6.575597375515295 4.458631203569732 0.7867393125210387 0.9011567456323706 0.6458271755532877
Ni 5.4497618023031205 7.99489087547868 6.307159327848932 -0.08427279120715164 -0.3995036656275571 1.1736281175980625
Ni 4.641704374893837 7.2016161483810315 0.06156191568085626 1.8359286082160253 2.4329837565719323 -0.46256536997473235
Ni 5.288132167404061 4.372965954372768 3.587826703536251 -1.4852301370166292 0.27372607030839957 2.546488705171324
Ni 2.3550139279767883 5.175505958952417 6.281924378170233 -1.172353621761013 -0.14918131895507858 -0.9482377582805736
Ni -0.14679974610269544 7.210364167472756 1.6232693550798918 1.5044532469122993 -0.33733079164323837 0.3407243907058196
Ni 4.50513908515177 1.5825293582848865 10.166066634196266 -0.333127037974536 -0.5459768416228533 -0.3233445046664754
Ni 0.7612301160844781 4.821683070584873 2.070691510374581 0.03349350377175522 0.40992434674024886 1.914732662999122
Ni 7.865285887233866 4.508424129665467 0.7648672592919086 0.3558468481695549 2.045236717259671 0.4764493270456763
Ni 4.075388109916535 4.260784406642592 7.6073499998318725 -0.3519832514490906 0.6075390786063666 1.1206682775715795
Ni 7.408011320810665 7.509965671947095 10.955719645091106 -1.2328488509325928 -0.2552562936389862 -0.7201886211839984
P 0.9241320251294504 2.1835473089538397 10.75592269328553 -0.7732428206965006 -0.16948249240627586 -0.6235107714442746
Ni -0.16063776924892958 2.6291064265726667 1.1373495634855968 -0.062010380264525454 -1.8923357833611603 1.37789275068053
P 0.6783998058545833 8.268148500883232 4.734240993443761 0.1830823425778976 0.5964501677820566 0.5812351506045151
Ni 8.627679380961041 1.9587940010236273 9.045086937556686 -0.5561823214009453 0.4280169425759015 -0.2044762348726414
P 3.7258666334260417 4.234413303447001 1.7697932300411057 -1.7395505491049075 -1.699326411477538 1.0926129140962602
P 4.271329218037387 5.738119742820358 5.389018425338109 0.2626482152276831 -1.5716197174564674 0.5273132037750791
P 7.96436355574366 5.274701598674029 11.617854850719448 -1.0259686346041492 0.5878212884624651 1.7230340395071229
Ni 1.3323759409794307 5.172583902782775 8.536076549926198 0.2425236765636662 0.5589164325026568 -0.09824236601336629
Ni 7.844141816192667 7.281736750622557 6.018586316737842 -0.5560547946841456 -0.0807372672500674 -0.24204545137566702
Ni 4.921441342239769 8.806569111619911 3.904569425087725 1.3053087086652166 1.0022993160116673 -0.6832022737676363
Ni 8.246759412709794 3.3632866512581714 3.3864752541472605 1.1418150868525239 0.4046451006191805 0.7780286721209182
Ni 4.623137521095427 7.994954398438889 10.506092335606285 -0.5362953526690313 1.5461768519033308 0.8629491242143976
Ni 8.95014915111084 4.978067523912339 6.7230904293551355 -0.9567470813031652 0.3521938247979999 1.3968962883662266
Ni 8.082225871058295 0.09021621556055257 0.6434149892545691 -1.143460849986063 0.9888704442002711 -0.1557479164290027
Ni 7.43188687914088 5.576490107921299 2.7403841333261467 0.21695174163183284 0.5431442572700647 0.36828070305753347
Ni 6.0612065931550525 -0.23033697613263726 12.265287213471845 -0.15372368691012234 1.4704123552775064 0.262533801137006
Ni 8.587741588406397 0.3040780582273966 7.198006229299406 0.24061977467273396 0.4035698652771308 -0.08644845870223175
Ni 7.562980119596317 2.263849405367392 6.188606427209732 1.6658259657272472 3.2642394063377913 1.7024572437970356
Ni 7.454274185260467 1.2375452360950796 3.0161264139457553 -0.8395734256029348 -0.8919719938093089 -1.1614372319588255
Ni 6.997580400187755 0.5068052334403557 5.2142168509041555 -1.3012121699983394 -2.1245423942695347 -0.4082726700694388
Ni 8.257875930746478 0.9492961920810584 11.408561216362536 0.021615521387246643 -0.6552860069733424 0.8147491674704033
Ni 0.48934549409131345 6.011622385357149 4.634973663524198 -0.9948528870359511 0.40935818982413374 -0.6016011158553768
Ni 1.554361462786224 4.476018345249963 11.138809150890692 0.1776362318616618 -0.13294300271934523 0.5446984891310619
Ni 0.4536891490547975 8.024583322022373 11.999891915599523 0.5388911384206655 -0.5852373297853727 1.0916554352789973
Ni 4.678747335404642 2.1797813048842696 13.18224658892277 0.556771361135196 1.2233902766228546 0.3263717215285734
Ni 1.747797951333097 1.0025556568625185 8.41436292828114 -0.4777970993228223 -0.49260691064214523 0.7278934460274238
Ni 3.3773615242989012 7.6323653415624175 5.159548991347762 -0.6034980757677736 -0.16549265452059242 0.004719774073172517
Ni 5.828803305873882 1.1871624539402552 7.643954651917232 0.15669125417887855 1.043773523996054 -0.5609270351747824
Ni 6.254915322959967 4.182387999035328 12.60021383611875 -1.0101275538068346 -0.5141805230478629 -0.48672628349165203
Ni 6.6331219533394 2.4538738034801484 10.923657792131594 -0.789797125510756 1.3287358293399052 0.26426466778518354
Ni 7.739183736509183 8.022305570163427 3.618865836836389 0.6685714112283389 -0.46616954238622293 -0.33399581373273446
Ni 3.398060934618634 5.379913770198351 9.746044654052563 0.7344253336086706 -0.2590774671572893 0.8924281075101211
P 4.54465944111075 3.61147085679713 11.04217076405295 0.0602615158942188 0.5646381654777823 -0.08696602176859862
Ni 4.3496167291414345 0.9844062396597718 5.883471165430275 -1.0686543463981335 0.5709335115681909 -0.603426856210206
P 1.7137768687865484 7.376603754341313 9.201452333996091 1.4314889387394314 -0.09433274654631496 -0.20219386659636793
Ni 7.217142974797982 6.920027940480418 13.31176990479017 -0.38599431828721265 -1.0935734782373168 -0.677105159730963
P 0.5621718455590543 3.915618790280757 5.12522935088823 1.144536856659061 -2.3496604737622437 -1.6016949395752933
P 6.850615494388514 1.8434181558657674 -0.08013421430442684 0.5559843464575264 0.010295468388737107 0.08268590633600598
P 3.145774960791855 2.2845578903957255 7.367654276718638 0.3280452525762544 -0.5637899585448741 -0.638303870593049
Ni 6.725538785735786 0.6037067868275399 9.58788518772267 -0.23870481703820826 -2.1274693381083423 1.0549534518722734
Ni 2.6721749935947847 1.5140697565961265 1.3279638176574429 -0.27476093933081713 0.09318783430859436 -0.19955411498067566
Ni 0.743347495314612 5.5279222674867485 13.23570569729346 0.048699779198548385 1.041724354776509 -2.045486885597264
Ni 7.344143521674201 4.8742982310556355 5.033439580856198 0.29575142553955514 -1.3111790514030643 -0.1789824614769111
Ni 2.150370174307219 -0.017142124547994145 6.368600549905391 -1.0143608751618918 0.25524163835096686 0.18047190153824405
Ni 2.413064838899773 0.7150207924154252 4.006029204605379 1.2022779201242715 -0.6616816260870411 -0.06363686012435493
Ni 6.308828166760725 4.732596656245191 9.688853118034128 -2.256785799818694 -0.3379208598187535 0.34272625162719683
Ni 3.3929155748416555 8.630501615336067 2.024989462916345 -0.1354593413832957 -0.6300115486772698 0.3149346833362253
Ni 2.554503247160777 4.996226015823686 3.786933070017263 0.7380156220630902 -0.48552712097722833 -0.40696989209761525
Ni 3.8459431776394126 -0.10589005225684452 8.264411535881186 0.5457079042321827 0.4419914024781227 0.29200070024787134
Ni 5.184626041096798 6.675373796587395 8.847945245487875 2.09676033906026 0.2753893169434354 -0.9456052057537327
Ni 5.247268754572078 6.035770184945403 11.573347942384014 0.8689667911633874 -0.04097824218457459 -1.628467836793763
Ni 2.6592435338378273 6.6121593764702284 11.730086309346932 -0.2560322525730623 1.1616694025742897 -0.20537740653067213
Ni 6.32214076427894 5.340865299086642 7.064710557066413 -1.1389279951127158 -0.0640124982962188 -0.3450685266071283
Ni 2.349206114471909 -0.1657413853663419 10.537291183777803 0.24350455241969673 0.5701657801642309 0.1778336925844486
Ni 0.8044393410899171 2.7927052732382247 7.223108688232525 0.591744277665955 0.6709103437741607 -1.2103493842784963
Ni 9.082149862426416 8.802149728531043 9.589386144525337 -0.08272910086911558 -1.4508861123191206 -0.19650041575601643
Ni 1.7283145519659486 2.8309007217414046 3.226509920805693 -0.46740032946953053 0.3349396657032425 0.013125995858996748
Ni 0.18890911642564792 6.332050346071639 10.317717719517256 1.8421573627345562 0.7539960566517466 0.500972251887705
Ni 2.031373520417411 3.4977738327305237 0.5738646075919238 -0.17221891750083246 0.7942235367132257 -0.5823422676257649
Ni 4.376396194224087 2.032099497105521 2.823355101539363 -0.3444830864173035 0.6116379312660886 1.1582346658611278
Ni 0.568493287570771 0.844998751183755 2.473420725807507 0.7051890624513726 -1.5058771238430193 -0.06207388651260922
Ni 5.31726198201447 5.460406435492532 1.4920191221656498 2.0153630696286906 0.24137773588468106 -1.9323382918960268
Ni 5.462475469053644 0.37683453443890697 1.4620816584897192 1.303014513314401 -0.38601591555376746 -0.8021569326276895
Ni 8.72698391718587 3.2743091334217063 12.241951600303414 0.07087245864084568 -0.3020951083693959 -1.1918839784844568
P 6.374755924749701 7.419309333019376 1.9664167562487809 -0.5039261923097064 0.9369575573810637 0.3711102020865286
Ni 8.487947017917094 4.214594139861601 9.825987392005501 1.274586082770379 -1.5789193364416743 -0.41592787262185144
P 7.017744402700006 3.405229954413719 8.107500749454841 0.15977272131767967 -0.4554896940748736 -0.6424430895724033
Ni 3.5148161354839025 0.2523867030922541 12.688497138747211 -0.2993458277590329 -1.5414455078659324 -0.13368142354726656
P 1.6921790623152801 8.137527145275065 0.7552498831161731 -1.2687923589067374 1.3127890762026615 -0.8349603523109557
P 6.874019167871457 8.230651804942358 7.966183034818235 0.050752547962519046 -1.0529970994768512 0.0809396130688606
P 6.220077516639294 2.4261777928287573 4.245658682345822 -0.4474565393577519 0.13421724144607855 -0.03268669159974371
Ni 2.291908404362838 3.174414741137789 9.270584371592212 0.7229283887126647 -0.2954205245626977 -0.0011927347565205265
