# total energy = -340855.2751455716 ev
CRYSTAL
PRIMVEC
9.38954934622479 0.00000000000000 0.00000000000000
0.00000000000000 9.38954934622479 0.00000000000000
0.00000000000000 0.00000000000000 13.74255457839270
PRIMCOORD
 96 1
Ni 6.0548040220411545 6.12753547216441 7.983503865141831 -0.1239315432493543 -0.10345579189350569 -0.9635317083251664
Ni 2.2068727575160585 6.879891901808885 0.5832243531172121 0.9406080096494575 1.2979026460091325 -0.6814634366996586
Ni 6.063029267368804 2.680875993395505 5.388730979256689 -0.7873013556720957 -0.4601567605332398 -0.6420260566396427
Ni 4.090547833042369 9.240856555525918 3.764608402610073 0.6726918611546157 0.511713292454293 0.8289262303017337
Ni 2.4078185055263597 2.767231679786362 7.744300397853553 -0.759895195745001 0.3972009856363095 0.348924924238741
Ni 9.19899794402973 4.019346879481223 6.121565596617241 -0.3073257606407159 -0.2547179046370129 0.7705099951463698
Ni 4.712107838698083 7.580117552847072 13.50850537572292 -2.180806358968586 -1.2043795398483064 -0.6556295063556902
Ni 6.231393278750175 4.862932171686703 4.01281269201146 -0.060842328098353285 -0.15924641650056445 0.24036369279786993
Ni 6.768315885566354 8.162297788064244 0.17353577522437205 1.859454459252107 0.8216883177923978 -2.4393958307458634
Ni 1.4358968512908428 3.8224761959369022 3.3876086022100163 -0.41830305772224735 0.13262547147892645 -1.4794083881285296
Ni 5.887360186506941 2.0754096755155804 12.847790948815726 -3.1120231572111305 -0.2842475386650137 -2.7156348972841036
Ni 2.6354775217525996 6.423165436937287 10.605294240645442 -0.6514326946655232 -1.4873952629887481 -0.685475128962213
Ni 7.061833201710553 6.938614144136646 6.009578318108328 -1.7714481691444526 0.8106665127605975 -1.4718696565493232
Ni 4.0475436965119655 4.756999274670106 7.517218838919152 0.058841238507924463 0.38709937842593334 0.2781275418102049
Ni 3.171714691458142 9.357972405950314 1.4338565021930139 0.7096288433902811 -1.7548211021107325 1.1981266169600593
Ni 0.45286736004321493 1.530374497965281 9.332774611017346 -0.0972334651328777 -1.4750711942057564 -0.08880333208765352
Ni 5.2917904537586855 9.207852289171251 6.37273886155813 -0.5469350917710645 -1.2803792924133885 -1.522857974671732
Ni 2.066395708033225 3.1596115622031875 10.082582716938163 0.254906109388419 -0.32289327606166973 1.2978085436334295
Ni 3.6935389027413765 1.086455378558196 10.943237271108408 0.8823761225907577 -0.2779071982692827 -1.5639056366416615
Ni 8.972794307969911 2.9970784610369656 13.414327255676282 1.4133261517874756 -1.7402717435416482 -2.3894675784568524
Ni 2.006734510759385 3.103865807054496 5.402981498473324 0.42981157258247915 0.13689993048456423 1.237175503332405
Ni 9.115966158147991 6.587886303127872 6.34753449394054 3.742551240513503 0.4244821899497657 -0.6833092316591458
Ni 0.774607783956648 6.178229649703198 2.2840679994529722 -1.1353047965378318 -0.7509421003167712 0.26162388772822687
Ni 7.512719366817542 7.480560159914347 2.052437203804819 0.5732403053244965 -5.052590521885169 2.339735758449364
P 9.305512993112897 1.503745735694489 6.963902078744439 1.8557500138173266 1.5065546095260183 0.6062586692320462
P 1.4859431499168372 9.262630920725483 0.3260295701071206 -1.8521867219461001 -1.3349604700933784 -1.781322747945687
P 7.461405479014341 5.977293291242358 -0.008250597111193485 -1.2444280711297602 2.7995083961703076 -0.9837061263905124
P 3.7617352004750715 1.775892437265938 0.5192815212892531 0.6636621468521796 0.40904811478288267 -1.7986985202199732
P 4.404224511878879 6.663828979166716 9.138812809895978 -2.0323166667638937 -2.370170677900454 0.9436755928311877
P 5.1541584377624705 7.807072352863752 1.8331057789953509 0.19093449163246473 0.01654582017382312 1.3537308087223459
P 3.500508544926518 4.748877314386525 3.204749943326029 -0.06122619380033327 1.8662691681810955 0.680172485802377
P 1.6128053526815296 5.300231658723933 6.497740994574642 0.38383587718331313 -0.7711160041614848 1.5040436701787065
Ni 7.20317408974378 3.6175398894057667 8.96512022919561 -1.2274191952765892 -0.3249786978357887 -1.5540642250712076
Ni 2.569675559131405 2.1130148211060322 12.585912658534594 -2.2387312563098285 -0.5424621436013755 0.6893340976969871
Ni 1.5072198689949803 1.965251481241628 1.0625411350365177 0.9136651625120265 -0.48203324889135685 0.7515583937445314
Ni 4.492796131942482 2.971285368668184 9.231712073306056 0.09873113272432672 1.249753082887099 1.423471981972226
Ni 6.784484689737829 8.753689171302447 8.03756701302715 0.3375490783016316 0.5056362330222776 -0.6952576622702736
Ni 4.267334270290066 1.901580946348032 2.4784974001374875 -1.4709106350701637 0.05784622158450682 5.7371837624630615
Ni 6.76982760302954 5.784995318285442 10.074282355214827 0.405939651060888 -0.6235799341193132 1.8804549727631743
Ni 3.8510392053966163 3.578498142747814 11.701153252988616 1.8111591145808292 1.9402644887216391 -0.8372859151203387
Ni 1.5139333968594428 0.5345423560278701 5.9205541217607145 0.2760542042209439 0.5295066118819719 0.30941118241483484
Ni 4.159842708062977 4.407839488421282 5.0878231487319034 0.17171343861932364 0.0764160141668942 1.4735159339034944
Ni 7.173662735788526 8.058280359137646 11.28996234718205 -0.0653237609084746 0.1125101887862901 1.475962338561458
Ni 2.46473795435765 0.2300721304376624 8.063952585966907 0.14837065012832512 -0.1049496028302128 -0.3042170398084051
Ni 4.739844567805248 5.989527874189764 11.355692949227343 -0.21600069057247318 1.2639923664149328 0.22660263445803558
Ni 0.003931404359231491 3.740308248605556 8.75332016200864 1.705968342274088 -0.6388800548114932 -0.615647566646114
Ni 3.1780901955420164 8.23099173191936 11.759806012650369 0.15952615252451238 1.0479379397863888 0.6883498794068468
Ni 0.06559257566821933 8.649455782738253 10.663411795987928 0.08931729560959456 -0.3118095074436823 -0.5828042948638479
Ni 1.8207369254906562 6.109066228375042 4.561483503112977 -0.01853379713812937 -0.886875038902376 -1.051241036017693
Ni 0.7977868257555466 9.088248208139747 2.3903116905567225 -0.056146979505212975 -0.5778045276564113 0.03462170383892747
Ni 9.289588317227402 7.112283250963362 13.44674655309954 -1.3049292138386108 -0.4549934711647454 3.2791296931860625
Ni 6.670176314602209 9.222190131197873 4.360897374847024 0.12657360885789168 0.1411697615045117 0.5743235110863464
Ni 8.983169760124081 9.175580407674527 12.961318113436208 0.058366869974667224 1.7236313067714895 0.8385951208500654
Ni 9.112041326473381 0.9119045930371129 4.23409526519888 -0.547056190729961 -0.25321149529481557 0.7187436612073557
Ni 5.599664391028429 5.078347215416077 1.7053825545451045 -0.9374800055434371 4.7005185673770145 0.7339867034093553
Ni 7.884282618079803 1.1725199889157691 11.552994613091911 -0.14659838871925077 1.552999531252119 -0.4695001494213527
P 8.148870732335318 8.911508718639356 5.923054558782122 -0.10849052610393575 -0.7148800644868915 0.046176755666378536
P 6.653143671880342 1.7981644485869246 3.381547648033078 -0.21687023766162006 0.47590785271990943 -0.13623478609673959
P 5.422502371802301 9.221100943460423 11.802023304935958 -0.7158565694675478 0.6390975701389381 0.9980063450632684
P 3.6927689596855915 1.6655464520027699 5.886059733906621 -2.6566720455966504 0.5837013527568204 -6.75737461404317
P 0.42972587644215937 3.7717726288486526 1.472803414401412 0.5138082273101086 2.7798391998761547 -0.06903386277021013
P 7.849306546338371 7.555798619743633 9.372229497851572 1.4028309086831066 -0.503485762338178 -0.5899684167124549
P 3.826663934996413 5.280044127383242 13.627447493517439 0.9595171878491346 0.7475029927282352 -1.0198506946318693
P 0.950588597860609 6.495220839499366 11.947735967198128 1.7716589996036778 -1.0106926822816853 -1.5495313701978604
Ni 7.324703028414745 1.8290654558623742 7.211804024653189 -1.3242711087003323 -0.1334561949103379 0.6888551011780395
Ni 1.7355549327823971 4.804519784491148 13.218674396697025 -0.7777823604380669 -0.9640677833342944 -0.11401119881184882
Ni 5.998156870144227 4.46723777831022 12.462408158657079 1.1428345292559736 0.9838881604943314 1.937712411723747
Ni 0.18271593773218348 6.0322127660385005 10.031102634109507 -0.5746009331174491 0.42005655007824433 1.216443412991376
Ni 5.503928544726246 0.5244157269344114 1.3774854030502333 1.0972869225331618 -0.8632825962944164 -1.7797284068753738
Ni 3.291224876995038 3.77472094737934 1.4553773495571374 -2.7165977754180055 0.8680368231499502 -1.685436540869323
Ni 1.9398621394996602 5.0482724884931764 8.80418147352783 0.9859190748814312 -0.47808943375226043 -1.8728411649716583
Ni 9.309597447128338 7.656210461677289 4.254914713218283 -0.9407815591128442 0.2933806113145334 -0.7649607831933664
Ni -0.09810952440587058 8.855941364930418 7.880214126298444 -0.28932778140139853 -0.13990195053568164 -0.17615296244791598
Ni 8.39826655556328 5.66471518969276 8.155381445931427 -1.4919211758835598 0.17845127156378943 -0.025604330831665578
Ni 8.602010389312897 4.1780114862696 10.992257291978339 -0.4322438361730556 -1.5418990504635832 0.9814728661846194
Ni 5.235246586905827 8.406444853143626 9.789522671852703 -0.645170001585263 -0.24593733023090547 0.3135246903625762
Ni 5.403563650539893 3.1423911284921044 1.207634087034274 3.1388734446347555 -2.3249416308593247 -2.7546997244960494
Ni 3.4918326012247514 7.069908214246831 3.163659396975733 -1.6382336579312753 -1.0600331803880259 -1.7243982668445013
Ni 7.545103922907796 4.212480522340149 0.772972124440579 0.2180310907389406 -1.900338856171295 2.097995754129258
Ni 6.020945306685556 1.0898731745619223 9.668876350831052 0.8889224083497078 1.8064133723657274 0.28221251051285584
Ni 2.224346709062583 1.3697099171417557 3.7663116668822596 -0.3150213295127607 -0.11253204316316102 -0.4876415962170698
Ni 4.379135635719656 1.5008255858121846 7.558047416839491 3.4203580758426515 -0.6563586712122308 5.870147334007696
Ni 2.3967576162615525 7.603309740015215 6.295079775877854 0.5395089745103224 -0.2747270007690882 1.4852303941269454
Ni 8.641596729839573 2.1719999708186957 2.164012281092404 -0.3306783193237273 -0.7741609616353957 -1.4211320209851397
Ni 8.288944031191338 3.28933757755342 4.033480968284545 -0.6416079952656176 1.3382553387945662 1.0187451202725164
Ni 1.5298580727449376 7.321519971147538 8.764190443419393 0.3999590079974209 1.336900881649201 -1.9154116913440171
Ni 5.3907844737237625 7.200498068147454 4.267159624670096 1.064867368551876 -0.28662195243446115 -0.3052634787950485
Ni 7.578502550339816 0.11900878359569014 2.2334808627780363 1.310342414434382 2.6503898121323646 -0.5093090538881745
P 6.488929841360639 4.2426867029555 6.7959953384218075 0.40650066577068056 -0.08188732169411059 0.8634954836361709
P 4.8215805958613975 6.624449208728175 6.218286406657862 -1.0720273766354247 0.2732519588854584 -0.256273679159907
P 2.092057346709556 8.98611807865477 9.985629046070915 0.19639628607798432 0.5471850029983415 1.2341588279932678
P 7.378993403397015 1.5460926037626384 0.22689376794518598 2.7538054948165542 -1.9483354386552314 2.08238401573393
P 6.316209079029463 3.333261889930981 10.780099482956912 -0.9380297073993199 -1.2441766172405864 0.2439557810245024
P 2.038593252079835 8.466444074198055 4.360609115678578 0.09591243232860902 -0.13051562422477522 -1.3650032963123717
P 0.6642167288560681 2.179173586606737 11.511561348186298 -1.2490100340734878 0.46042749769612323 -0.36757364968817985
P 8.21246615083323 5.570998096524646 3.946627635772266 1.2053781563161499 0.8735497825483794 0.21899345465220998
