# total energy = -340895.39710575284 ev
CRYSTAL
PRIMVEC
9.01818199178857 0.00000000000000 0.00000000000000

0.00000000000000 9.01818199178857 0.00000000000000

0.00000000000000 0.00000000000000 13.19902091679297

PRIMCOORD
 96 1
Ni 6.157767904934036 2.130572526525234 11.260546506689714 0.2220216999555725 -0.9024458967574394 0.44743262809835194
Ni 4.551963382702941 0.5489583754011786 6.119184515527401 -0.8570199032141562 -1.304900160372888 -0.26043346696455144
Ni 2.7562720225543798 1.6836043774131797 4.773597828152924 0.18144017898878428 -0.5841050159531423 0.11664375133868944
Ni 3.186376171528437 4.362455308424937 4.795071922874099 0.7585121993545453 -0.16027897153013687 -0.13667470184763558
Ni 5.078264477918717 4.586394801166509 2.5071014605154347 0.11979772358663886 -0.23457151159612505 0.5125866961981818
Ni 7.229326313702522 6.161221868598663 2.490457504015602 0.5037089340925777 -0.6490569953444951 0.9468524478972724
Ni 5.381013862214275 4.373475526696933 11.827655776784875 0.39325099984962597 1.6017497040726283 -1.0150962106660197
Ni 5.647122373482732 7.946028283203608 12.416820814333242 -0.8435676343639924 0.08550049296666565 -0.16585338029412083
Ni 1.7954388510555859 6.386667397716195 0.3567250065554192 0.5621305685645803 -0.049681683495843475 0.6243852036294278
Ni 2.608500094072445 1.5952442312355892 0.42804710168449744 0.9611580658866674 -0.33745446170529625 -0.6347061259394617
Ni 0.7261422023056069 -0.14427557936241509 4.598868750359492 -0.8614347444524003 0.2433582566498196 0.26735616222631375
Ni 8.549110179047675 2.3144532553026442 1.3425123891675026 0.5770334538183417 -0.2515194523043732 0.28890714892421215
Ni 6.61235641774481 0.7548389589040667 4.664454379987084 0.7638048152120522 -0.7408322655762789 1.5490372041702614
Ni 0.7433804569921209 7.360180132955109 2.600801272191265 0.13405191951280787 0.025711545833491202 -0.43012036207214954
Ni 7.530398316166173 3.6509297753298466 3.91307389383859 0.8177540157349981 0.7564851416221874 -0.10628477670186856
Ni 7.616657225962934 3.833286431367513 12.49894488773253 0.44820755859116357 -0.8263080759525961 0.24576300943657026
Ni 7.991353665392684 8.983380728055828 6.643977770730839 0.01274495837049418 -0.5815002313404436 0.19325208402204783
Ni 6.776550455452035 0.7804406754772002 0.3711117121276901 -0.45714779850358683 -0.2278606752348527 -0.1854693547528354
Ni 1.8726976153241528 6.21540310540566 9.266980003103772 0.1655042244848182 1.6020914036827634 -0.9652502336781699
Ni -0.12286371009629418 4.782801784591876 1.4000069060016125 0.4767663440654628 -0.6922103908035175 -0.19572471393225643
Ni 6.338284851865738 1.862002051600268 6.909793191087806 0.46610166526276503 0.9934539498058954 -0.19604224517267527
Ni 3.5315831561714233 4.386452690439488 0.3267007735824603 -1.005869549861429 -0.7731854850960038 1.5554042840388695
Ni 6.176570814178808 5.5984602639936245 4.663596750889156 -1.1023391402450886 -0.6841052451978799 0.626324843854302
Ni 5.569115100117131 3.1936448261333705 8.87318666169957 0.02606892917290994 -1.0420197745297408 0.25038970957530426
P 0.1084914336150505 5.4419857899859325 12.478908291204936 0.6900172398069406 0.9514709205058903 -1.0298558854736972
P 4.128108833780024 6.119179104618266 12.648304918045643 0.0812838837821568 1.2359454875800457 -1.2014338269564213
P 2.3905937650166056 8.393889232322968 1.396218367788793 0.4521567730468987 -0.5019351300216065 0.11727727115763029
P 6.226197869130357 7.857244282477095 5.964887932446621 0.6521271496293867 0.10267520497373929 -0.8605785670996922
P 4.4977190186227 0.999936008182406 12.366070093917953 0.5385772067246724 0.2953786155811687 0.6444020130709869
P 3.986279887164902 6.219335032710562 8.21047744900394 -0.1400670153586362 -0.9567177707271265 0.6209399253933049
P 4.598623455812031 1.051610190423434 3.60470528040614 0.27904414008720324 -0.21922819637083538 0.32704972143220445
P 0.14253597207545274 5.417717862514622 3.451794791882157 0.3213678405560788 0.509955943443554 1.884169188389968
Ni 1.5270397215865676 1.0080162991576174 2.5639358464350517 -0.47165524809114256 1.005121873062127 0.33301648053860067
Ni 1.7115697594602002 6.465477289270181 4.829904650431861 0.2577734036338851 0.37255567628380354 -0.42027715072948263
Ni 6.048061722218136 5.582606300227528 9.139239260240297 -0.8395006633834703 0.023335846512463038 0.4044887775469744
Ni 8.343648941002764 2.163434781339598 10.025025827488625 1.0965600716694663 0.6549653904091302 1.581094232605806
Ni 2.364404964802305 5.353842080173749 6.944493351371754 -0.36389800060880556 -0.6593696901244128 0.310433195921446
Ni 0.3370752900309906 9.006575491881991 8.989892757200023 0.30572370626091866 -0.3506488489083832 0.5980954166949635
Ni 1.4244218298377618 1.0986850998995537 11.48849367946408 -0.5921512832963866 0.18657698599471736 -0.2225911993057973
Ni 4.131797270173842 6.691734454757992 1.659698079035738 -0.19010351109073714 1.045225168840916 -0.21775058338404432
Ni 5.750777356149115 7.799049954728167 8.155595499463937 -0.19794897527708488 -0.13676520467891284 -0.8199299403403945
Ni 5.179078733289128 2.8828331872263844 4.700567689373505 -0.021155808142008726 0.5554482714483983 0.708664936815115
Ni 0.9110618256369729 7.5973943894416704 7.038931752144538 0.017358545883105585 -0.8945166146080337 0.22391506032354339
Ni 5.027023168408504 4.789231748280855 6.898442005540374 -0.6800135916270096 -0.3474529676789048 -0.09701337870227163
Ni 8.079840066116763 6.882937947231688 9.014284233763252 0.581998768243417 1.131771586573593 0.7772809953216161
Ni 4.566446582821457 0.09334269167290758 10.268640287663924 -0.8593439233616426 0.556845666016557 0.7473528403036162
Ni 7.953810974176384 7.210090531726936 4.621043557813674 0.8313914040127746 0.2959879670303935 0.26698052405444983
Ni 7.284815186883856 5.988487612639736 6.877455794459555 -0.04630093994906865 0.704785913475683 0.006652215209194995
Ni 2.3496241646813547 5.235135751929657 2.5947825375965587 -0.5470387072284644 -0.15832570445850797 -0.11635424512272866
Ni 2.508335147798257 5.258564988485013 11.281427205042396 -0.8636327805449836 -0.8905154638684405 1.5190799956865388
Ni 1.0920386998451668 3.253723953897721 3.8405722205180415 -0.5477958971094631 0.46354058940380816 -0.7307517414118254
Ni 3.527885701595713 2.7629184226087666 2.5521103045201023 1.016021036473134 -0.5230032635458154 1.101696107344451
Ni 1.230143137338902 3.3330929727290104 8.447003618212145 -0.2547852675398386 0.37266546238879045 -1.4859636727485441
Ni 3.6404506479713694 2.78282155004436 7.072734603330235 0.36343108827471604 -0.17486381132284726 0.28256680852848104
Ni 4.2004887616450315 6.967447329741403 6.1306808938032935 -0.26178843833054916 0.5335620128982682 -1.138896113433516
Ni 0.8005773738237955 7.4256431153089695 11.549011090868381 0.26727183004262356 -0.7324232155769773 -0.5303216515840995
P 0.2610033184994081 5.5002702995537796 7.899613504641981 0.8074400354034997 -0.0679344590584443 -0.26644496326595407
P 8.371470032139513 1.6642513590729973 7.966968501556779 0.21333497081485195 -0.19764121422867897 -0.48365715764802514
P 1.8450568878252434 3.17265951687074 10.566872464649792 0.1340948569356013 -0.37636656538946145 -0.7669387328553436
P 4.116836106415053 6.105633795416517 3.8775819371845253 -0.4345668278792774 0.38189160897274876 -0.05116983800559575
P 7.067098239647748 4.012658069198935 10.300528578833955 -0.9665632960626387 0.3313231519965778 0.8899210248175512
P 6.302987687940541 7.715965444957383 10.273867225888514 -0.10741066277619567 0.6061319138461948 -0.9177665862749098
P 2.436370056300281 8.554593233637998 5.793921240138522 0.9148224160449212 -0.07545159337109586 1.1037797293463572
P 6.823841801293562 3.7701321035779984 1.5398897289644455 0.2898024070449719 0.44428919737336386 -0.21454698884508208
Ni 5.101738805383533 2.6659459127243386 0.6051371394972492 0.5093992996091355 -0.43319848677684103 -0.2522133930476043
Ni 1.3705472112150914 1.1835822642306248 6.937999358591342 0.6590251623008004 -0.280485243409104 0.4565759851605169
Ni 6.564334599170033 0.8463284141981731 9.177213020551033 0.8508965639252379 -0.6825702966105922 -0.04622072153043652
Ni 2.4429172563538564 1.4146461206668588 9.264524352174586 1.062440761388254 0.21089473680447549 -0.12776274406998642
Ni 6.4636195438004345 1.9225140520954336 2.7632151207930127 -0.8604099027323117 0.36802179296919196 -2.432164603104747
Ni 4.10825079725389 6.6834016546898045 10.400023474193569 0.678261127712277 0.6612800197732482 0.05878801667248585
Ni 8.265813013093112 7.134905949293524 0.34640550101643 -0.2383741731716669 0.4963200978276742 0.32145140140882056
Ni 7.722566754102311 3.8758161771700763 8.231622380086058 1.2586064195126712 -0.19931371683509544 -1.3691062627371517
Ni 3.07421704333792 8.21832326724996 12.392203883222713 0.2796606906252797 0.13424372380863978 -0.13756147532796306
Ni 0.23803851831148878 4.675864183716812 10.173870919615705 -0.9108636885074894 0.3240567002421516 1.3616256380893905
Ni 8.642132725263417 2.357785619293594 5.817639960332611 -0.6325903651480396 -0.07957744261401134 -0.20260344332996075
Ni 3.750553630690516 2.95597966055221 11.530109883440986 -1.1980638820429237 -1.8426083342290462 -0.07798721530875602
Ni 1.155328300363061 3.47431770115737 12.678517631020144 -0.3736990458596274 0.0778324348984466 -0.33117737044733286
Ni 3.3727008275985733 8.384798904975854 8.20556704896376 -1.2408141285262566 -0.26821593912344777 -0.6322898031884853
Ni 5.717265792238528 7.7729513363327865 3.64439520073092 -1.25441320736693 0.34127254989980577 -0.39826182280065603
Ni 3.0711508614946474 8.374175486707106 3.6884796810916605 0.9970167274564893 -0.7894880789107693 -0.5767701728546261
Ni 3.5864858475297794 4.099367888090293 9.284851334159102 -1.23756168302723 1.204036554686591 0.013547399667131508
Ni 7.219271040892968 6.23647859648721 11.435262057210307 0.9804387684931501 -1.5044995267692025 -0.3216630031989944
Ni 0.6028573431149573 9.112692438204885 0.41971339979812156 -0.6700590515174589 -0.12905472340853258 -0.30493669158324904
Ni 4.56400265552873 0.2020947507446362 1.4702919102131133 -0.295667093355865 0.033733130586387064 0.035069332899307346
Ni 6.174135905067974 5.737827246952237 0.38982353773535305 -0.40391413599042697 -0.4248475437089845 0.34425322979468453
Ni 7.986213301714257 8.785684144619907 11.15816218585191 -0.372810472607087 0.4943069240523874 0.02449644247946749
Ni 0.09364029167534282 4.733057493275731 5.752740614346998 0.0015802000029263108 0.4150755519238852 0.03453557188302439
Ni 7.8692204280296405 8.911559927468122 2.380509634024997 0.547478108758728 -0.4151025485070787 0.43887676810854087
P 8.59944967036869 1.4993358668144143 3.685166401064548 -0.5199148544284787 0.6658974639406015 -0.001429790467991086
P 1.806080305688119 3.2866132632577614 1.5836053656858038 -1.3887160665482792 0.030372184533954148 -0.2885991307654901
P 4.622206001459549 1.258721755754577 8.287097725994554 -0.3825590673534186 -0.3751954278994958 0.22675587220644816
P 8.350142031964989 1.5498196490457015 12.360367897507656 0.7038364050782201 0.6319830705813438 -0.3505912561975704
P 6.30312296066892 7.735147117841619 1.3643823820737357 -0.26458271324623467 0.647257223131595 0.00817507961162463
P 1.8328733240891824 3.2397998810565087 6.089209882554848 -1.169232045412896 -0.01180059217935387 -0.23611468771352884
P 6.80280238293958 3.9167767593234353 6.142785097538705 0.6694550993848728 -0.3467096617549771 -1.6064728205799108
P 2.2227654000069146 8.346588868299548 10.155379137646205 0.027593850457868607 0.28147820344999264 0.16048157445924618
