# total energy = -381173.68346661684 ev
CRYSTAL
PRIMVEC
9.15214707809731 0.00000000000000 0.00000000000000
0.00000000000000 9.15214707809731 0.00000000000000
0.00000000000000 0.00000000000000 13.39509236199527
PRIMCOORD
 96 1
Ni 2.0744438994576506 5.8922070269133435 1.5180519473612755 1.3007699402545985 1.5886571325547285 -0.7818279912623504
Ni 6.934188092981556 3.964380519296017 8.486728075153811 0.3901427932379474 1.9475872476352976 1.9510461527181753
Ni 4.693559511811258 0.08241416677796101 6.496017166828939 -1.4879357088732503 0.521486826901289 0.2053614656910721
Ni 8.503049098553864 6.344753230054949 5.655099613952992 1.057038102315444 2.0195146299032185 1.1751242425276147
Ni 3.3600734178088283 4.146590610066867 5.566129764417527 0.574926691887984 -0.28176770966595344 1.0837940302530495
Ni 6.303321461461868 3.708751906843327 12.593515998759157 -0.6952052117657834 0.7720282315631092 -0.4222437875375502
Ni 3.1484483272018484 7.964985235652209 4.85519832220511 0.6511776412319237 0.17192144086507166 0.15185398069123526
Ni 7.754211294698235 3.2005240425309025 5.924407940237376 1.0073685030044586 -0.03959216047032536 0.5651554714338332
Ni 4.408351160879921 4.865290394488651 2.590650605355993 0.4932149765397893 -0.5358484949395997 1.2016235743697241
Ni 1.9851006423324795 5.009052316525344 7.742015143863878 0.029839709069251832 -0.1692220396560376 0.056767643808347396
Ni 0.8632368932929879 4.199224606351119 5.175957272191663 -0.25858535801221916 0.9316364022784664 -1.5361071263721546
Ni 6.872109081192984 4.843517437235959 1.2464766343129188 0.057114999845437116 -0.6301012801775987 0.283804280480008
Ni 0.7522588763319026 7.128698669060357 8.02990232816548 -0.3988493198730099 -1.181804482761268 0.18100386278231406
Ni 4.757642843750456 6.050868643951038 9.044312551979075 0.02511299301754385 -0.38452467572022164 1.292385058625013
Ni 2.317836091630034 0.9630254955684316 6.455711112293059 0.7027531993163704 -1.3428429581652488 -0.3553038311818913
Ni 1.8591121893940337 7.625651088507159 12.011780836940869 -0.4072257168621632 0.2975499122008747 -0.855175908026882
Ni 0.3317781347415936 4.670779818409849 9.408297091332784 -0.5342937488579701 0.19694187416880923 -0.023732310619933323
Ni 7.651121513069683 0.8563691223293812 12.231406734286102 -1.5232302704094862 -0.3706782567554326 -0.3100835258915111
Ni 4.353932495968399 6.037918356219823 11.52520420632861 0.06505842306222989 -1.1240986434093672 -1.2532184157278803
Ni 7.535566507490661 5.210317176947352 11.209428600278201 1.8078022822934543 -0.9609379794560612 -0.10865893336099995
Ni 6.806543101471131 2.3905041372737403 10.631081563207685 1.6648656586965072 1.8160750638252077 -1.2639422299032876
Ni 6.127234156904575 7.981312665555027 4.8820552970088205 0.31511106101308956 0.6272123886655778 -1.5745181220501852
Ni 8.515807191202143 1.461844952963762 4.451551124236019 1.2176541454700254 1.3131960818330932 0.6290324725934521
Ni 1.9020540622101885 6.559508354869755 6.046209286011843 -0.5400103396267733 -0.30665033184024604 -0.15606930432416347
P 0.3533964207132559 4.0505022207452965 12.874906989257497 0.004796907168011093 -0.8501599428695293 -0.2126286887764467
Ni 8.499379087684451 2.470237640252074 8.423918722050079 0.33059270158845644 -1.229147747931922 1.2934916614256302
P 5.632633839187047 4.560084602785085 10.572210378874795 0.5614795652441427 -0.7925296939505706 -1.0654967746057584
Ni 3.0772354729003775 7.707526193838217 7.920731860198681 -0.0012341295174172293 0.04020845389808559 0.36512338837547437
P 6.591257152141546 0.27972896063827846 10.15552960863855 1.101837518018322 -0.9392059870956083 -0.7548301225172678
P 4.164245101256629 5.158387895967201 7.299280042098854 -0.28403387999231083 -0.5659638262677413 -0.7464719803605595
P 7.715662452349206 7.737993690557096 12.743768623311027 0.17483527207775698 0.029063493024859624 -0.7711113761757945
Ni 7.840104192477352 8.791140375729253 3.390365193309022 -0.033586063485561514 -1.2852713303983672 0.20745228678182984
Ni 8.811000534299383 6.008896898696373 13.500377515020066 0.18897582524419712 -0.2367042416684117 -1.319854210579559
Ni 5.881544775883757 3.6095883961947686 4.253128920612114 -0.6162561467643903 0.17498593872300833 0.03449109179833414
Ni 5.399107661272084 7.024071326768311 6.751018857225383 -1.6957980866093054 -1.5924525950414188 0.1900068376118728
Ni 1.9333360999948468 3.490647096297337 1.1643416080125562 -0.43974374409452655 0.6525112724416826 0.0729735641442485
Ni 9.36118183957286 4.916890198183767 2.2029967839312814 -1.215317784027365 0.380176683164171 0.2620964564892712
Ni 2.3358200601048305 5.308272604217452 12.403359098916212 -1.4397912879575399 -1.03028140304689 1.080455709908436
Ni 7.484964287797456 5.564395432597692 3.7792774349196288 -0.39078608324890113 -0.005452281363822868 -2.141636373637344
Ni 6.428513677628147 7.13960802805372 10.699383119610003 0.38841578324451176 1.4987903921995671 -0.5616739406431358
Ni 2.862022740745245 1.3158682113998934 1.7977012843223372 -0.9156839927142681 -0.38918300042783943 -0.4784051652204664
Ni 1.6224651294180494 8.46897565599322 2.992879220570075 0.2502709246092528 -2.9158112192298105 -1.8751474445073317
Ni 1.1770942093727503 1.6942179603811047 13.003459873731128 0.22301003201077074 2.424267716855174 1.0403174471266534
Ni 9.305353744053136 1.2326111319010526 2.142357404835374 0.09300785708730433 0.34080023824907757 0.12649056222578214
Ni 6.284284996104323 1.2942966013769444 3.650524118430936 0.6599849551109085 0.38250455996639926 -0.924243709358821
Ni 7.7127246132243155 3.238532908218347 2.5986340230153133 -0.6057123098102729 -0.9730489037869822 2.0420948291965804
Ni 0.1290983524232987 9.033333636669981 0.239449447328138 0.5133194605991481 -1.9542895993561373 -0.09415096955281205
Ni 3.1394243104506274 2.974429407822827 7.738733184019062 -0.5271278272371502 -0.30807832253602424 0.2932633690103788
Ni 7.593142663050428 8.233591592276534 6.871267083686784 -0.3103558057162913 0.6524269402579925 -0.7139213001180479
Ni 5.392014747497037 8.245525991712226 8.70814962370248 0.9820691050077217 1.1093304839612572 0.5458110054689503
Ni 7.065548856095424 6.369198614175143 8.263418438718956 1.6811176017789953 0.01692042990442247 0.6123897218304486
Ni 6.3744061857080485 1.342519262900457 8.09159969543222 0.3555306024807167 -0.5665832050192953 1.8576814265120845
Ni 3.7517761489807406 3.632130133779208 11.2757871559135 -0.09235299711212482 -0.6381696590080299 0.2536125873879761
Ni 2.470146118784009 5.589353336939051 3.987022015280648 0.8520612736573003 0.3270057555681465 -1.5139017939197088
Ni 7.870910318628071 2.5856736679226118 0.47326208743814513 1.3278526554040033 -0.09984313484158289 -0.6502137346567576
Ni 6.272497031017536 6.901423407414242 2.0100805118261738 0.19650452952107447 0.7216006710401766 0.5300097767706357
P 0.529473657909062 6.413650591214372 3.9614774583289916 0.40537220859319223 1.0535375453613534 -1.2284417230038327
Ni 2.5128683400768073 1.3423362199643265 10.929081869730485 0.5274466440291498 0.868222199687879 -2.4052160995403606
P 3.6075932281909484 2.80506893116832 13.41906892757633 0.28298152746839655 -2.2236728193148094 -0.1627441452411778
Ni 0.20684492432993856 2.6979430527980957 10.992400997411337 -0.7279392116636947 2.952248636121238 0.0887699077465568
P 8.702739789725152 4.968242893915106 7.198441688584702 0.3320942258346474 -1.4758612942072196 1.64790434825182
P 5.08190340510518 6.2132551847389825 4.280308050983412 0.07929513548690213 -0.6349082146479388 -0.2751062384853778
P 4.601736022901521 2.1222089536408375 5.307322611378934 -0.5729621119624455 -0.3411787046344189 -0.30286746775904616
Ni 0.4581894168625003 8.563023116576938 5.383273532082137 0.4367229549903317 -0.2590458425884055 -0.013573367809060493
Ni 4.051060501700493 7.098414215277609 2.5212645195571017 -1.267355369349895 1.6189339291613989 0.5883270244542901
Ni 4.952373071352614 1.204614714819932 11.048700428491598 -1.3375703969123995 0.5509714666239672 0.6944351663689783
Ni 4.862206121014856 0.11689671030085674 1.6129697771062932 0.18845620529530124 -1.027555519475295 -0.915421997302133
Ni 2.457241591786827 6.063068455644119 10.064576488890115 -0.7205475471853139 0.6584572056124725 -0.6090292899986478
Ni 4.060258409241038 8.264589913510191 11.070199736554775 -1.1635643056041574 -0.6424813990095064 -2.1901926852794924
Ni 3.23325211951099 0.5945792846465472 12.754914107691999 1.6705362267187231 -1.0513785900368215 3.4576899795238902
Ni 5.638967124777153 8.506865543772179 12.701481128991537 -0.18418354606187634 0.8236420990846589 -0.102788590623152
Ni 8.911289759005143 7.307430944044733 2.0178094998042733 -0.19087664181133576 -0.1434549579942626 0.26097802661411185
Ni 3.770345854851154 7.113963712701873 -0.0024939600047745535 0.873235079521438 0.4614785646684569 1.2296766238521983
Ni 8.567754776475905 8.691876191465822 8.871435820521505 -0.9211277894376587 1.5420353189311313 1.891086998555724
Ni 5.092501591107121 2.551133465874835 2.0694349295104466 -0.18538502256914524 0.5805862041666066 -0.36750165879966384
Ni 3.78693869701136 0.8500568866769298 8.679282837460061 -0.18930132690441592 -0.6732713878071694 0.2872487873851827
Ni 3.0695659738765206 3.0177465186580488 3.5810574937401474 -0.17617147439067724 -0.03340660048490376 -0.6445025432045933
Ni 6.657692585810018 5.214234295780539 5.878877840304339 -2.186171222824925 0.2605049436324352 0.9027258898917034
Ni 7.059288787679769 -0.16857796810255005 1.1260746517851676 1.179413099710956 0.732690353195435 0.43250146070981643
Ni 4.228795192682959 0.48332670328126653 3.697085665309066 -1.5819437250902948 0.6348583352466098 1.313875367288305
Ni 4.890953014134111 2.8096175481311567 9.145365065728498 0.2343588813646867 1.1587018353055334 1.6862402677175414
Ni 6.0915224800655645 6.303678395187322 12.997150383722719 1.0656073320416939 -1.195716721966986 0.6615319878830541
Ni 4.468901764151805 4.648494340935992 0.3781273518138129 -0.4104393387034544 1.0419961203806571 -0.450191936011044
Ni 9.137018307840957 6.968554404240009 10.603648918369846 -0.1279280660032571 0.28462420527814203 0.09474232327990781
Ni 5.560112227892245 3.386697012868972 6.980195934977893 -2.2863411448783078 -0.7334539708343369 -2.5018492120850784
Ni 1.3896711232476073 1.1459128452029634 8.710037711588665 -0.04016397381339534 0.13580361209659192 0.3836420160049522
Ni 5.687784675843089 1.6368614563446933 13.354063059239037 -1.119307906888943 0.07845181365000037 0.056637803098702456
Ni 0.9517683549964218 2.7607542363311883 6.853920104629721 -0.06915881838384864 0.6207807741076212 -0.2196845671819636
P 0.6998362946388819 3.129942686359081 3.1099251108638777 1.21111685857214 -1.79769990375213 1.5090043566180915
Ni 6.597718567786944 1.0770063318967336 5.929310745281625 1.2518462179707022 0.5704509155048175 -1.2368919106537148
P 1.8791279344598757 8.485778997529975 9.892543585368106 -0.10707410537238332 -1.1137718075620624 -0.5043877053271572
Ni 1.8101848125664197 1.053229054493415 4.101898846781308 0.04939320572114719 2.617561195638118 1.4869607465544907
P 2.0720460369943448 3.1808286226032885 9.868057016587283 -0.1299309553658988 1.0795193141370958 -1.558394219905129
P 2.0553525212192665 8.071955527526724 0.6851452685850686 -0.46152047364998583 0.7305774206174902 2.262450711413955
P 9.055911982841648 0.8436714338500264 7.00512363723479 -0.4729343719138822 -0.44882462334987216 -0.4793461889774971
Ni 0.4008228454646017 0.6206949355589295 11.186415527133228 0.009525680102248111 -4.51510629111436 -1.8884428760646574
