# total energy = -340893.4193324406 ev
CRYSTAL
PRIMVEC
9.09042755233972 0.00000000000000 0.00000000000000
0.00000000000000 9.09042755233972 0.00000000000000
0.00000000000000 0.00000000000000 13.30475959735287
PRIMCOORD
 96 1
Ni 6.134247600615511 2.3161045148329555 11.270754447003439 0.3790937345126374 -1.028463633111861 0.8238686132731682
Ni 4.633490779912557 0.3860804461013087 6.052041957669161 -0.18839809836385618 -0.6529514453028948 -0.14898617222513696
Ni 2.731973382091931 1.5330369279783902 4.87535614241174 0.024704958945847774 0.3529952376533727 -0.5865869018347317
Ni 3.4471082058743114 4.334852062871552 4.7958203579578695 0.24008087145012846 -0.2942750981043448 -0.5283017929405934
Ni 5.512889624665683 4.301053854240161 2.657639140128346 1.3617827324925451 1.3503986590253194 0.24850200563428815
Ni 7.292858919309781 6.32308304652726 2.4762814796980877 0.4575452910523217 -0.8077053732497443 -0.056091443676929205
Ni 5.099502444054467 4.48794394871374 11.273002509670071 -0.04518508117707057 1.0538147102821398 -0.292873846881444
Ni 5.785929698482912 7.72429059807412 12.498996620586016 -0.5154452486928994 0.18007132366571568 0.030331561104005825
Ni 2.179402669378718 6.340382129643327 0.5448056697296377 -0.9685240193334352 1.9160084443877519 -0.8193085047063114
Ni 2.5840539493727293 1.4978387935456992 0.301340392028968 -0.38228010266041906 0.5907911697240664 1.3474159222479116
Ni 0.3753946488322932 0.09784572308360383 5.139828488516467 0.0474183413829635 0.4462571197330121 -0.8708238989767841
Ni 8.680876260871663 2.3900460503379946 1.5339059728264701 0.116237002818574 0.6494141215735977 0.40811171901154236
Ni 6.865636108376624 0.5045878013522843 4.960666166274611 0.09515369978571354 -0.29621448121890276 -0.4054783951537533
Ni 0.7998057906073842 7.4269063599979175 2.5073752862133305 -0.4253455663913255 -0.1966629094758097 0.08723547337990137
Ni 7.646312912856241 3.717548417489126 3.9440491397976754 0.03007110835376756 0.18615686773816328 -1.255648879546244
Ni 7.740035218125107 3.7051581651048906 12.667846762120112 -0.1422686509956453 -0.1550028107328621 -0.8642598726060212
Ni 8.0028576516783 8.771544182574054 7.201041058556322 -0.16046589072996237 0.15042059067881836 -0.6524958458227149
Ni 6.776777181703185 0.8818105351108209 0.44515367874526535 -0.009393525399758016 -0.02855929969493146 -0.43606398125009416
Ni 1.791550499000309 6.275521930992177 9.17832807680823 0.06026717232117363 0.8265669860409377 0.14913375354659478
Ni 0.18808275853286818 5.202433352159157 1.23545360954473 0.39795226198003725 -0.4644993537726516 0.6449555715816119
Ni 6.632902989124104 1.8133493436205552 7.069683475300684 -0.7272218738816959 0.12995023863960845 0.46010559558033015
Ni 3.3889931042657904 4.457709187576568 0.7534973359516468 0.916689551160647 -1.5856162888458758 -0.09377404582936753
Ni 6.3799163978891364 5.626074534743534 4.736041708156894 -1.6780433337290457 0.2677464556861969 -0.2410892581099848
Ni 5.39705030982173 3.2156659272957175 9.086791110257757 -0.22116526549254817 -1.249878295611054 -0.6797814210115455
P 0.5508908017516531 5.845999241956885 12.419886268128904 -0.7990063028138498 -0.8617435339420708 0.08637261115897382
P 4.134408141321749 6.0437342161769 12.591478082531 -0.2771795760746388 1.2802054858396854 -0.2654000669412075
P 2.2885332488891663 8.570954814187752 1.3949906083292674 1.1436925063808947 -0.7823416976739752 -0.2296771596183012
P 6.298357084322477 7.602597048061094 5.876393085571477 -0.3445759032414259 1.6169122707456796 -0.5874425649668077
P 4.756675159999694 1.1767285402656422 12.692141838071766 -0.134438099207633 -0.2682979573142928 -0.3445298804948389
P 4.067820761487177 6.1084126062824255 8.143417474470667 -0.3929668929503039 1.0557972879298074 -0.1543536071846374
P 4.597483597451841 0.8659395581206257 3.6899289722807462 0.5788167709710096 0.6654899440895378 0.25789064593803973
P 0.1355464521468011 5.682117018931948 3.6675237961608462 0.27122130160867486 -0.14188221419050404 0.1343239422272719
Ni 1.1974092623303043 0.8599771468669063 2.8014896975964962 0.23661579571966346 1.1891012735329973 -0.19639191520261015
Ni 2.0208837984496717 6.397851810914886 4.929985065157933 -0.8077843061167959 0.8237966223846521 -0.9681355256457648
Ni 5.973265223893267 5.7418229453146745 9.221714868135798 0.42250835405284654 0.3783681692005226 0.04665009575837128
Ni 8.624961042665184 2.30937759864489 10.49887899421745 -0.3713691121748701 0.2799136871763502 -0.512013340193215
Ni 2.2988781551351383 5.264784592880704 7.002720660819399 -0.06773622700470915 -0.5193926633764216 -0.42514373479316453
Ni 0.6115539501270864 9.14351537649226 9.088653738807668 -0.20409365472224206 -0.9860520009148696 0.7322604647468679
Ni 1.4005530407826154 1.2010999758064593 11.552455879934167 0.90612643093282 -0.08921650836567216 -1.136450994327133
Ni 4.390985451332779 6.836873996459001 1.4311396014555688 0.23948746084050365 0.8124585716640137 0.6345071225547781
Ni 5.524534462012862 8.055854842727522 7.9916364282424235 0.27039057817726336 -1.1231846162355301 0.541097659153681
Ni 5.351325460597445 2.615343200074517 4.8576607166662145 -0.6400015700104462 0.39748766363879284 0.5071449563573202
Ni 0.9548493911868392 7.4416692139025375 6.9103319212326815 -1.2271903670952349 -0.41612096246926394 0.6358232702630404
Ni 4.78025572836705 4.575375678304035 6.687517367186646 1.284191209960311 0.06887831102895234 0.7812127262758545
Ni 8.239326936543382 7.142830507461348 9.017872944868293 -0.3453315504605279 0.16024991806441433 1.0178015254123245
Ni 4.581257184754953 0.5474073500175086 10.495073741357551 -0.05832110433839632 -1.05708952437867 0.20820176335334467
Ni 8.19728371036797 7.251088405952804 4.7949158604433935 0.34550741391675976 0.18944787978460922 -0.10346093409982828
Ni 7.228071444076881 6.120284704311634 7.001523451546469 0.06193119028715785 -0.6550587214538848 0.8249029680749536
Ni 2.292778478429473 5.2938739601804485 2.7378003459791613 0.2323927587772514 0.22743078678628573 0.15951972476660914
Ni 2.507712541065462 5.3321719303160195 11.476073564704132 -1.0294859037287882 -0.8305205713720472 -0.48307711677483905
Ni 0.9481133845714921 3.6155538233943956 3.8527121626473897 0.44844230030978893 -1.019779732184618 0.28110359371939336
Ni 3.8554229280626346 2.8457309890884956 2.7069865246241784 -1.800629418694099 -1.2741348541655735 0.12215799628869928
Ni 1.104632361498681 3.2606635423375105 8.514340542123353 -0.5277888578599168 0.9550668653872648 -0.8337637608996931
Ni 3.738274591690194 2.426562296726455 7.0945503391283244 -0.17241175023792887 0.544094794108792 0.07214489759536608
Ni 4.153325320493864 7.006019576879736 6.018553732608058 -0.043770717328047194 -0.21380085470767693 -0.22505071658988338
Ni 0.6403006083183308 7.491812010785472 11.085298821954828 0.393816899655425 0.4958747827601395 0.16630718000208775
P 0.17339171900376898 5.538715528571488 7.978172596396282 -0.06238807531891837 -0.4823636356475821 0.6116487298993659
P 8.740845809645542 1.6804018446334408 8.17009333332726 -1.8767145318841356 0.40626412427984226 -0.5961022975243346
P 2.1049157082368093 3.2319559729835747 10.559043078135145 -1.660515095037295 0.41707998394842366 -0.2835474272741956
P 4.306335392490521 5.913559297510542 3.4900250221114444 -0.18392566441479938 0.9328995852616062 0.5272270718191758
P 7.081833740404696 4.037531457786318 10.288850126142378 0.15143849042037147 0.6895814378211027 0.8271074319254401
P 6.457375928751988 7.800622915954107 10.39174830870886 -0.22694304851658978 -0.8072556873068356 -0.7827929262787808
P 2.3703925465561047 8.595589872119724 5.825887580640024 1.2295164441252502 -0.4056352324465918 -0.6868442413955977
P 7.3977079075707985 4.248129386609188 1.3696983125048674 -1.755421711809209 -0.3001552110342056 1.6670798927390063
Ni 5.3550525357827246 2.974242359562399 0.6225151873427213 0.08296332836710874 -0.8668973102288683 -0.5805658924516324
Ni 1.4853758177432146 1.1709106668056932 7.0342262636904795 0.12809570192937295 0.768764987430805 -0.014687169698529543
Ni 7.023900447341798 0.583174545198001 9.365978131002514 -0.6632813664739932 0.517677737567844 -0.8536296465856847
Ni 2.6865030648315176 1.5880612843113135 9.255043101676751 0.7296410248461499 -0.1548223192909398 0.008919413976816898
Ni 6.33573692130265 1.9440969592056265 2.7464080715717016 0.3680374766984758 -0.8917390518628965 -0.47006502078588724
Ni 3.9629445019443157 6.847873413469218 10.27570445925108 0.6995120666712533 1.2260863353977787 0.4510825661461134
Ni 8.246608368795599 7.252433789190417 0.23456665843513214 -0.39982865306714366 0.273509069201587 0.23773011182976478
Ni 7.555526815599195 3.881230651113877 8.129500939345924 1.503258969493882 -0.0113961576520836 -0.33310826892145856
Ni 3.1823131496011046 8.29354224484828 12.566398502704981 0.2970863423008948 0.25272787079017767 -0.6625977101434073
Ni 0.18066315178597706 4.6866425082255585 10.424065686736148 0.24631759638845968 0.32621642689763175 0.1119993105881426
Ni 8.61412525334603 2.444297720352018 5.849210889915323 0.9806645113507111 -0.2092235197496397 0.2824904467645909
Ni 3.5367670901484933 2.929962888275819 12.033569470918284 0.7751284677549877 0.14862981732698274 0.06894978769683609
Ni 1.1208224124864452 3.506086898074544 12.848738992673574 0.5221895093952684 -0.12192248323912552 -0.19277103062057122
Ni 2.8980282172370675 8.39266426392216 8.07638829987023 1.283953125807576 -0.40645464302409356 0.02372151198665592
Ni 5.618474937536475 7.918780289754757 3.490184104588865 -0.5047288907166598 -0.19368222958093095 0.26537024214453653
Ni 2.9871962184380663 8.454979142934583 3.5391724172070913 0.6175892637535171 -0.7506651925063008 0.28627793883148117
Ni 3.2818169666207933 4.269600975847313 8.987005489992352 0.5003580153424737 -0.4391693596482953 0.8457924099294531
Ni 7.465286143979018 6.025680627596495 11.544379944337575 -0.18205390131338323 -0.09378433024201267 -0.7817310606731698
Ni 0.6232942369607176 9.16278708232834 0.23196588718998934 -0.8604091314013634 -1.2820014013978438 0.511317599677771
Ni 4.316862107282117 0.41429622333933297 1.4284124732712176 1.3331596694392138 -0.7114931502925295 0.9863062830175208
Ni 5.829309217468656 5.281520069505339 0.24736325291883546 1.2447312041924756 0.3053658087008676 -0.0037316991282903473
Ni 7.947515130390536 0.023083321995075554 11.437063814112447 0.3807140437248798 -0.2043458799423642 1.1769456120070698
Ni 9.057001780057362 4.922130026944274 5.922240655564059 0.24291705534734293 -0.4806726210984044 -0.8560027748035515
Ni 7.937570202944936 8.962152261805633 2.5950797286220606 -0.14174568861263975 -0.8552633255343658 -0.5038367179196935
P 8.411290549421278 1.5911520295869115 3.731798571295088 0.0373756124349808 0.6965835801705487 0.5934478906206232
P 1.8043498206121968 3.1525874523916775 1.8673492087988908 0.2677467127965131 -0.006512347197221042 -1.1844298361992571
P 4.936811067003363 0.9981380058997719 8.30495073108615 -0.48289533978133603 1.2919798527667943 0.28260331819337137
P 8.678785462596993 1.7056732324750938 12.721731178871975 -0.5465926208299813 0.5108668852935976 -0.963700886913179
P 6.397824539633042 7.997467028300567 1.3194327948536366 -0.10339871340332517 -0.2651930931367239 0.2663056094746123
P 1.8859636767425432 3.3260873474800925 5.948651073944043 -0.8097257461138828 -0.5797004591275435 0.6200379824043257
P 6.807411921640729 3.8453870963442225 5.953653536076871 0.0658886322730091 0.25042699057114287 1.0969637348657881
P 2.4120085226493013 8.667558784904749 10.24666054408774 0.5179641584600111 -0.7370329464348468 0.9881924442966402
