# total energy = -340893.0136537011 ev
CRYSTAL
PRIMVEC
9.06880509746212 0.00000000000000 0.00000000000000

0.00000000000000 9.06880509746212 0.00000000000000

0.00000000000000 0.00000000000000 13.27311294900820

PRIMCOORD
 96 1
Ni 6.287856016387923 1.9914189120049384 11.56573916011141 0.38535488493100084 -0.6553937361958003 -0.5393493090040066
Ni 4.5578363425979775 0.29802632825463765 5.8050890594322855 -0.6981234138538428 -0.40128441167706375 0.8038947412544026
Ni 2.648898212981513 1.7082182663284948 4.761781979860173 0.45714394184884494 -0.5949157334154012 0.8823087596879321
Ni 3.3838976599566224 4.2742729447175165 4.943716720263097 -0.6038338618406375 0.503649798719868 -0.48114956073482296
Ni 4.96224156844176 4.767162501926261 2.2313958188116794 1.0662120555052284 0.2714478157971841 0.3318078049424802
Ni 7.259261074721221 6.236481235493947 2.35553959871207 0.40290343533772544 -1.5984383803112086 1.0590402203471374
Ni 5.05792653105647 4.529795597227427 11.4538736354365 -0.11964808538265201 -0.436045726417649 -1.2230231230914226
Ni 5.923825110851285 7.944645088991839 12.542069486494754 -0.9144771168903606 0.06724643185248419 -0.30441064387644995
Ni 2.051218612837219 6.338459948848361 0.39204353761137706 -0.12646176587037575 0.9156924773547003 -0.7189246668699102
Ni 2.5501570630479558 1.7122357469879883 0.276984886660604 1.0973123764544586 -0.7573351483273086 0.22726135108795698
Ni 0.8557505868874266 0.0584484488723158 4.5586244217612055 -1.3605450034307018 -0.5920828919522965 -0.27326738550442614
Ni 8.704864882951265 2.1619849983339554 1.654918178111697 -0.186272310270105 1.4620539560104822 0.5689900146885749
Ni 6.762018491064266 0.6518548280532838 4.725002533894841 0.722519069089388 1.539405080397136 -0.12646973629017577
Ni 0.6973684402108462 7.434207393913749 2.4262055418156945 0.7343762255382902 -0.8667299314130686 0.2702525099375023
Ni 7.6718735691808995 3.836140832705209 3.838505070194893 0.5878747674082199 0.011166558139780769 -0.6533759344348231
Ni 7.7274109316159745 3.727741405339687 12.743210142339386 0.5084299937173309 -0.33806124205135973 0.4206005955071724
Ni 8.005170294232157 8.611619428908572 6.948687147729618 0.37388467950787224 1.0832697823184634 0.4704231754562544
Ni 6.770017177162851 0.9108435778725806 0.5691826938771909 0.812023541009124 -0.6266858267381464 -0.2777645020438313
Ni 1.752056870184007 6.326552607751488 9.26395581051269 0.9759966735613964 0.25540824583581817 -1.1162398094865809
Ni 0.23334035523424135 4.862430299506351 1.302644978387776 -0.14945616988302002 -0.978240989510883 2.246496244967228
Ni 6.214063149285668 2.0421316701265813 6.955575812083911 -0.18576785982986072 -0.25948035902266275 0.8953159705808774
Ni 3.5343672741830714 4.37273296169296 0.2684194002432413 -1.2449188947232495 -0.4234532344646191 0.5628193671014887
Ni 5.995758872907951 5.762899164344033 4.763309166639086 0.5800622133423364 -0.015031697522141854 0.0037404408790387192
Ni 5.317221806488162 2.8432608438940763 9.39910277164144 -0.512705224053917 0.4149130582040919 -0.1027263699266489
P 0.014089295604038763 5.601048199716535 12.69411344528664 1.0298880242632134 0.14231878750729038 -1.3391112590369583
P 4.155879694131313 6.233787800379118 12.605222831453176 -0.05018330572261035 0.20596438938239367 0.20803438453754491
P 2.381087329560511 8.36248121518937 1.3481903313631902 0.9047053822155774 0.5056192637414131 0.3746490684777225
P 6.306437998038718 7.996582135802042 5.836824436000754 -0.11901636533592407 -2.221405620547187 0.7400699334889577
P 4.777029361875537 1.0398019864007932 12.891895922602577 -0.651712173579155 0.6954484381248409 -1.854619242646993
P 3.79755306700285 6.070766959893664 8.240837704855169 1.1632035798306288 0.5998887611499604 0.32129507833661436
P 4.668466696018207 1.2927309606519786 3.82661223918618 -0.5780174149981658 -1.3936885800622063 -0.27874692056175865
P 0.190717878142698 5.627175427210894 3.5766124889824367 0.33418273293255996 -0.2849630766747996 -0.0013097199503590347
Ni 1.8240813202916768 1.1792076584047093 2.490633053890728 -0.3087774054855779 0.4327788827409192 0.445343349669491
Ni 1.8909909643227 6.548747401517292 4.803831308469369 0.03340274383016183 -0.39191531175733796 -0.6191686924254949
Ni 5.80519607133247 5.442335041653789 9.261314974467442 -0.10178560327993437 0.6594015718036127 -0.1477528140386681
Ni 8.539622185216205 2.199883534848681 10.455987666209927 0.36760424581579915 0.5699495503883668 -0.5164626342138202
Ni 2.4105337397216298 5.043661300633482 6.878007601418344 -1.3702056664489177 0.00880577121708806 0.7275777145592179
Ni 0.890945712601712 9.032094577390328 9.084065178779401 -0.8140958501571205 -0.009905432039170037 0.24558071822243513
Ni 1.564577462342675 1.27366833233086 11.391530134773546 -0.6573110078231712 -1.3175774987302404 -0.1446309805802348
Ni 4.232248101882092 7.055884051538824 1.7975514378508584 -0.44568350661772915 -0.23727194124642362 -1.148165454550584
Ni 5.526874442800062 7.774858919901461 8.098828378906918 0.31161513204468916 0.18874879683505558 -0.31348278138104724
Ni 5.295112059653296 2.9881712805939578 4.961171449439909 0.6214664873207362 -0.03132812068932024 -0.8019358177558189
Ni 0.8954864633155009 7.112591289831855 6.911986600368661 -0.252008733235966 0.9112447259959919 0.2914512555023045
Ni 5.005844383364661 4.406205921318673 6.848183022084537 0.6900090122768245 1.6779217205495167 1.401064046590671
Ni 8.420739219154576 7.170042170143122 9.044631293561173 -1.0483251479224784 0.12167488600469369 0.911790828307449
Ni 4.653738956535098 0.3745643226607949 10.39191837193636 -0.32869239924195004 -0.0383433756648888 0.5892713906454302
Ni 8.182256851428386 7.246029688079683 4.599120264056697 -0.12238990979384727 0.18804508589981161 0.7122536826076379
Ni 7.301830045862672 6.198274359605807 7.050757456015546 -0.5136115379182703 -0.8476955404894367 -0.5801678856822653
Ni 2.4266852816055073 5.406068890057142 2.6083125895155277 -0.5042113276502929 -0.5809443588369737 0.03561852053455801
Ni 2.6030735408090053 5.1753856947173285 11.330593205781671 -0.31223579634782356 0.21195711663071884 0.15677970012762676
Ni 1.2059062206203957 3.441275989827086 3.851127033133681 -1.072279601855547 0.5544864217557611 -0.6832498391761201
Ni 3.6297166910090644 3.0458398122276362 2.9521926101189946 0.038484015007811144 -0.6359996479399046 -1.0205083828205261
Ni 0.8749873362664733 3.2395222827576666 8.31391957763755 0.23127355757114365 0.573496901419993 -0.6298590822598056
Ni 3.7548389949797922 2.5130475125769682 6.896470781722324 -1.5595381037015852 -0.5262544234932613 0.18102366027665598
Ni 4.030993179093197 6.771187053020808 6.103415565135747 0.8523338105923965 0.6692105874742346 0.12009468600176737
Ni 0.8175155977034745 7.057561780482404 11.299109035114483 -1.0953663084716811 0.466585546877719 1.0926977605005825
P 0.10983139169088123 5.375071714223848 8.040719103345358 0.03244037991689251 0.3016513359637579 0.5568297251769571
P 8.651975611605517 1.5095660906034245 8.058678058085754 -2.3826677819262 -0.6135562313347239 1.740899349823318
P 1.8111401354133532 3.324841601142577 10.403213568688955 -0.21130379931743612 -1.1337351380578669 0.6636770592505151
P 4.065617876966664 6.097129976320634 3.889725681402161 -0.6248940249450464 0.3036472833478641 -0.702238721573797
P 7.062758205804954 3.9107317546563025 10.669870900101179 -0.9862538325130304 0.6229602982574433 -1.5050206893799951
P 6.378607549027995 7.730802664723538 10.204395433830545 0.4532338081611614 0.5339739036247062 -0.30813694368810157
P 2.4777063791005656 8.415660688298331 5.907517585519679 -0.16412328497689155 0.3051889168033712 0.18344075435858084
P 7.007755902870804 4.030539738838175 1.6368667215592774 -0.4086398236008704 0.4047183770592772 -0.189673365531854
Ni 5.42659159599943 3.114853419041961 0.20596979456061276 0.2851623371697992 -0.778902075864807 1.1959530063475081
Ni 1.214866200059627 0.9606131802637784 6.853611608817658 1.5897017717691588 0.2894481090293467 -0.2952207498470657
Ni 6.747399577242361 0.8494323503739521 9.123035648057 0.7405337604992537 -0.8000041479507448 -0.02172762148507871
Ni 2.7507408942594194 1.748121008770417 9.142891796824408 0.06836589016890807 -0.8981729804136982 0.1250995954155265
Ni 6.195916470279694 2.1686777764980776 2.615347261631937 0.9699394116237231 0.5987006543791302 0.015501695180024914
Ni 4.247130011051909 6.9999295240691275 10.481100094413545 -0.1829080217835624 -0.3765061762911193 -0.35092164295379563
Ni 8.0579598087218 7.321337045633712 0.29783044206446824 0.38912077973133624 0.4389076213464764 -0.023288795324611505
Ni 7.475688108443148 3.8957772950456824 8.460893167497781 0.4095553934366043 -0.5765066347805943 -0.5328241062909791
Ni 3.381222362451993 8.376945959324567 12.4755452666805 -0.40907768246923737 0.1552843465290229 0.8787986896521447
Ni 0.26352133860849536 4.838969300711521 10.413434112037145 -1.252285876611282 -0.9524944766743983 0.029650990097213455
Ni 8.334531157869822 2.348113154215322 6.066808426467323 0.7666330286894668 0.9424576612636865 -0.9689230545440668
Ni 3.5647477712695346 2.59839403737718 11.555054293942074 1.0085321842952566 0.2651506699345627 -0.2414497267731971
Ni 1.0535593637381562 3.390372786798334 12.577681777243662 0.25625928098220385 0.6213158206754847 0.26575359362588424
Ni 3.1546019917971755 8.24625540902217 8.402517269066268 -0.17385208222888124 0.6174689361255689 -0.42655938419376865
Ni 5.565580102968727 7.9094309187868435 3.7085871820870544 -0.45010169029008296 0.03332123985994906 -0.08909669495835623
Ni 3.0523240078744482 8.49432350373952 3.63087296365937 0.8845474192104636 -0.30104661250022346 -0.038269585004159896
Ni 3.15947194013611 4.167569383905776 8.971748027610492 1.324368810620461 -0.28691248709168654 0.339855357837305
Ni 7.450893995298553 6.190602150490837 11.44678545737 -0.7009698821637024 -0.4553313141201384 -1.420158858438593
Ni 0.49964491012806084 0.1067008401702104 0.7398231444080315 -0.2597598379362946 -0.07782677847149176 -1.1339819639613502
Ni 4.709965548157807 0.48933095808733396 1.6653908342416817 -1.7466138837095917 -0.7445634504839371 1.1815892814266682
Ni 6.126567317676653 5.479798275523693 -0.008204547974365262 -0.20187247870120717 1.1031408102107776 2.1777678292525784
Ni 8.008416926458112 -0.18556135556258957 11.244768754952664 0.24464277978919804 0.06584106686452532 0.25959605866492064
Ni 0.12719996721923796 4.921921660965217 5.811446291807691 -0.4810983957819134 -0.34787231460451057 -0.36367045797903175
Ni 7.920594617865481 8.776036865379494 2.6384953866508014 -0.3088182860258424 1.6058202745975763 0.2917189073413944
P 8.533473535358107 1.6987413649985383 3.8688338750922844 0.24747279303882544 -0.522192851829378 -0.6066145099095682
P 1.8955253668729186 3.306078243389773 1.6158425106949346 0.04677607981327428 0.14405582480305515 -0.5104832767019337
P 4.608095660464598 0.9964621668258055 8.231944834573682 0.797475210881304 -0.04169866529036689 -0.2746292988489593
P 8.536040007201532 1.5790422064778715 12.7422814966971 0.5245891199756966 -0.23922700809026545 -1.656270460828328
P 6.275214102077914 7.9214833607653246 1.5576135269060494 -0.1200556052337158 0.6479966724007807 -0.814432664671249
P 1.498511217185992 3.1326645522592185 6.028780206039661 1.4069364462110479 -0.35656367173092135 0.3508342254463119
P 6.956625979714541 4.185716062911751 5.87473294820109 0.06611566068215065 -0.46774460018282665 1.5978053747129
P 2.290027457547024 8.31081623253218 10.555695550767188 1.278286671550418 1.1224796197487055 -0.7828525758721228
