# total energy = -340892.1178284132 ev
CRYSTAL
PRIMVEC
9.12572544843126 0.00000000000000 0.00000000000000

0.00000000000000 9.12572544843126 0.00000000000000

0.00000000000000 0.00000000000000 13.35642163624029

PRIMCOORD
 96 1
Ni 6.629191662080032 2.005369056783836 11.209457179480362 -0.6004304925860433 -0.569628162493206 1.5066309712899084
Ni 4.435358121905147 0.2515843890791609 6.113968713085413 0.2371981505856947 0.9352143494377119 -0.9187626316395918
Ni 2.519010517546243 1.6001503408969402 4.779862473350391 0.5305088278942413 -0.05697436050251478 0.3693178860727962
Ni 3.3220834888272694 4.401227908469038 5.078726333764081 -0.023778590476836465 0.29406349631417095 -0.8323568532498374
Ni 4.978968465267603 4.694647361038882 2.5748909851811814 -0.07234261542846895 -0.18260128917642102 0.4604732633323941
Ni 7.19899283767822 6.174246867847319 2.5953800641134683 -0.08205392917896191 1.457093269571097 0.11668051811389583
Ni 5.381303451890913 4.595231707249317 11.75771160455876 -0.8994860427981669 -0.8671878448860937 0.12537804588789375
Ni 5.857054900303928 8.249391221939307 12.506739291606454 0.17809337400373845 -1.8061153815093347 -0.5999327270140183
Ni 1.7575964832534081 6.730815741444875 0.2669694497294113 0.8633635860439969 -0.2898723410509588 0.36086152777532693
Ni 2.6447630151798216 1.5085006795229177 0.289269072604405 0.08692874077275997 1.2231390798439967 0.6167881080084603
Ni 0.78903212999953 -0.22511704736024454 4.63216716870956 -0.8699895760009468 0.6136302791057691 -0.3966600255311749
Ni 8.687462549689837 2.3391424675928443 1.4144454769024357 -0.34570641730144336 0.5707491634715267 0.038905675926262026
Ni 6.59044383153198 0.9847752920634782 5.000790812698022 0.6173964310164206 -0.19537735789516675 -0.059837026762290496
Ni 0.9570422122152601 7.425383836320731 2.5405782572347193 -0.3989411082558678 0.4099924809740229 -0.3514173516432916
Ni 7.428714726134683 4.143699934360215 3.694025246613959 0.9919184869979755 -0.8850405567967983 1.3033209888112263
Ni 7.681789346190881 4.0408986364035915 12.849078108386355 -0.49326639860301497 -0.46140040313235375 0.3214220908327819
Ni 7.998844427851505 8.578656524342584 6.968606596404069 0.09342000492405846 2.203164157838496 0.2908894694615636
Ni 7.049394819266952 0.7957194616588832 0.5430545866784294 -0.7810098662364292 0.849979194317291 -1.2763164351979244
Ni 1.8526226630689708 6.331355358359633 9.40049016214285 1.2212372348355933 0.7318236343197655 -0.4902839189359234
Ni -0.05414292949637312 4.981040004960115 1.3432821567430446 0.2100735264547608 -0.3053416403311516 0.7682273697597801
Ni 6.325971180304204 2.3135904361433512 7.04370949226944 -0.305820379739783 -1.162673675469088 -0.41019534101344834
Ni 3.4014225464779466 4.388552275724986 0.418306831424347 -0.01718705330224782 -0.3975789378010185 0.8739470179867981
Ni 5.737973308023771 5.507147206779668 4.841342486162976 0.2973264833361589 1.9683167668731651 -0.09023723632070266
Ni 5.384944616372466 2.872568501277573 9.251045455920279 0.04606928355423679 0.040172715564143716 0.37201291640645606
P 0.12381875639638297 5.616947936208349 12.50921053807664 0.6177419872812975 0.6194114045639204 0.5570444122909246
P 4.006312136691599 6.176309281814314 12.640170174690606 -0.09097077205261753 0.525461752388637 1.1946556276923233
P 2.406545076266401 8.6354550399646 1.3523777673665125 0.4330347075054671 0.14234347009763873 -0.49953706210307514
P 6.387140918449188 8.03806679612648 5.5532932630049014 -0.2234021252428669 -1.0526381734755357 0.9567406535452619
P 4.967360542409118 0.9874856325422281 12.610319013949736 -0.4965101023512933 2.3787733319678 0.37794779383365235
P 3.9495501239716524 6.254735766913224 8.325992561934681 -0.46864140096548323 -0.301933385980551 1.4210983395337267
P 4.631141437161373 1.207433868969261 3.8392100641648774 -0.009677375188763977 -0.13946923387363722 0.12153604643398423
P 0.13324563085614255 5.783392043925246 3.5578301812705035 -0.34375700688455635 -0.9023026863113557 -0.3985305030810104
Ni 1.3815527118465234 1.1480436473002238 2.530254323956572 0.031023444964707863 0.20627883529901894 -0.009150813261332628
Ni 1.9038909890272762 6.43272391740998 4.867333465009869 -0.012919536275145492 0.6676974932638178 -0.10335629020116394
Ni 6.219428334885334 5.524878491460513 9.472294108233582 -0.0718384220985408 0.41392549747984203 -1.2113845104112297
Ni 8.780380686910817 2.3730992922441176 10.20620320581614 0.7200137861690309 -0.24630396954170486 -0.23972631632418712
Ni 2.2821066831073678 5.160068488165888 7.09730852852496 -0.4705679285642348 0.43254285547071314 0.7519468874322018
Ni 0.8294709574860087 9.045583396180007 9.362651253856358 -0.8733034708655283 0.5843515847463098 -0.9979515805659328
Ni 1.5149799446404677 1.060692202645027 11.523906866505689 -0.049390120397353646 0.3718337105161145 -0.47772665109620305
Ni 3.9594150332562603 6.984374024953509 1.7351325973190965 0.8218904065008749 0.5237792224798915 -0.7421964929136572
Ni 5.719822239969113 7.7351474632927335 7.959412167889628 -0.023913059172171718 0.7548026117134419 0.9791773852822232
Ni 5.226576775738712 3.1841390219020753 4.903956826657407 0.5517533390953143 -1.5497691972402792 -0.3676417839219539
Ni 0.9126181803952123 7.3640407093909115 7.077875296035068 0.040813434471936166 -0.11551298016835591 0.34779441017872365
Ni 5.042465263419595 4.715974181573691 7.350679734660481 0.5224710451914293 -0.2412080430760362 -0.42931534967235097
Ni 8.453688839103526 7.2331960569184695 9.195522716725634 -0.49495407071808306 -0.582374663525597 -0.1411175681103376
Ni 4.741717853259057 0.09741073189333146 10.263729041761914 0.4034827048799632 0.39132987156751314 0.18127768526899102
Ni 8.42790866451609 7.224179840107006 5.031711508469565 -0.5652146068065427 -0.7853933400161055 -0.8186281908098353
Ni 7.247559948883292 6.299223678811895 6.903787480624566 0.4625049490504422 -1.3841595575258483 0.3249077353885372
Ni 2.508488556024362 5.360715815123035 2.6295586438948213 -1.2708914075276112 -1.1291431478118104 -0.08632761685365133
Ni 2.2498381176768647 5.0952393340883155 11.829835863615163 -0.5399252361121347 0.7467620007971527 -1.1208482547928695
Ni 0.9805592068743119 3.5384453151258555 3.7457416456951815 0.13329524385244138 -1.0541075589322104 -1.0415670032630384
Ni 3.452353220592098 2.656471321019 2.7293183375364025 -0.30819067974417247 0.9132170192310143 -0.3732107933692992
Ni 1.139501968215679 3.151934336550196 8.204289148713297 0.0651584389752039 1.4285879630425526 0.8418617074164791
Ni 3.601531455629551 2.852847808433875 7.17281295631311 0.5369144743102688 -0.7346171379045026 0.14509866424527265
Ni 4.1067042431115555 6.966688368900253 6.266258820524393 -0.12697290117883941 -0.6201115159547385 -1.276145199727383
Ni 0.8725498573647512 7.482812027003467 11.423106840155093 0.40472377637591583 -0.43578090279203663 -0.0193434375236183
P 0.1608126224999389 5.463991650806578 8.094926454109464 0.3645250926698431 0.24021456881451533 -0.41780323526769336
P 8.869885802788184 1.5678178953878132 7.879553856456995 -1.945471229733559 -1.600439469901637 1.50183920632822
P 1.8304380243355 3.370294696737153 10.5230173683231 0.3650503690456939 -1.72820709906763 -0.22281694216335823
P 3.95965230211972 6.307217814365379 3.995426971294114 -0.45603811037917585 0.42993395709295634 -1.2555496349642183
P 7.154970337780949 4.049686710077114 10.68921143116081 0.21986994371989227 -0.7303773887915422 -1.2329085005259348
P 6.559142593006349 7.853033585530075 10.157037447017107 -0.6724897724461386 -0.6426230667936932 -0.1488200789609179
P 2.398696952321199 8.436441217875117 5.842553209883789 0.9967053668636576 0.23105012870642788 0.9901048308280046
P 6.849796950744338 3.9700100005822825 1.6613118658889579 0.11627891180010297 -0.06998902759462786 -1.198758079896471
Ni 5.126376309554627 2.762393617102668 0.9163569901398042 0.3403410392244719 -0.0882600579896738 -1.2986390099545249
Ni 1.7410880457919318 1.04532448087326 7.144337042407752 -0.2806680488438715 -0.5041640193521253 -0.7896580288297304
Ni 7.085468812238327 0.6505173052294813 9.153289771602381 0.03634922805299546 0.3650930493581712 -0.7857648644229113
Ni 2.844954055861085 1.4600156998475038 9.344059413259195 -0.15756928590845765 0.9571571722573903 0.14185187517320086
Ni 6.532194325552652 1.9707004255421838 2.8015092143890836 0.2757958083532347 -0.3605241990405662 -0.3861254445484382
Ni 4.538880352177666 6.7145354471213405 10.607095415235104 -0.8076956030577317 0.9885007195656782 -0.2654789998082589
Ni 8.236560451861454 7.214524822509304 0.5424586768021251 -0.3885137422749567 -0.4416743854583361 -0.7370023503072275
Ni 7.56385759532595 3.8963288927525643 8.157447712203616 1.518719012802694 0.5501888228216718 0.8355118539390515
Ni 3.2851973062848225 8.642144196769058 12.45785551772592 0.032726543698743636 -1.2515628824023284 0.010912018926813465
Ni 0.1571431682692813 4.8434605670556286 10.303130274257034 -0.7362132787470288 -0.05238468424930333 0.1933868098276992
Ni 8.700722228867022 2.2478487095140114 5.803445825750339 0.17120564574496966 0.679096736239695 0.19400798835146588
Ni 3.876389182496442 2.4563715375929136 11.366008088163545 0.020931865056660726 0.19485645239469024 0.7362575017214029
Ni 0.9160950818174469 3.2379716767308477 12.7347738334147 0.17025665156813904 0.04003027644900847 -0.41680127636574027
Ni 3.3087873067480156 8.484999203354672 8.140832503753582 -0.5816426704555789 -0.943335950103582 0.35300757894854684
Ni 5.629459305893083 8.270499025061692 3.385906075380242 -0.18963119944000892 -0.01571252563925036 1.1474689427041915
Ni 2.9544810135242354 8.546333204558975 3.521741587138301 1.3468996447331254 -0.2749838539749006 0.5832375257465245
Ni 3.658886640508147 4.424890914736372 9.902371300430627 -0.01754957884798913 0.5094232108685355 -1.2306011925489968
Ni 7.342613505875408 6.229840787701003 11.543047163206463 0.32818897724297025 0.39705597541801296 0.238472389312428
Ni 0.5592381483114764 -0.1278879174047148 0.23297977246627438 0.047009021759686784 0.5153295490506415 0.018925119039277082
Ni 4.462543658222304 0.45564838767012633 1.5245957216184434 0.6330624196884516 -0.4746084171821955 0.08298801095745707
Ni 5.971591881276282 5.806105974738742 0.4373275811208396 -0.35012074431905504 0.46108724276730906 0.13937538860825027
Ni 8.096882097087903 8.820561256365146 11.322519443209059 0.2396545825459873 0.7152500462318004 0.480000020511412
Ni 0.09922766384390082 4.789582283599268 5.443396713458286 -0.8982930509313303 0.2491563513888354 2.6890540614717815
Ni 8.078265617031843 8.85156134594869 2.4128646411873915 0.30053136342670184 0.17623446641812873 1.222153833112592
P 8.711517962154431 1.4152266390067487 3.790365530904067 -1.292070869818704 0.6284565454853241 -0.9266271219893332
P 1.5514189666325489 3.3402984369605515 1.5167950514459336 1.6324183368010787 -0.3621645628574666 0.19658320527780984
P 4.740896537962465 1.0899584043802146 8.144732838839838 0.6026742943148976 0.14605382906969042 0.2428574057540011
P 8.656599345989056 1.5110741341189025 12.48279156270297 -0.5164130119228073 0.5037019921140422 -0.03901957579630699
P 6.289030243408651 8.064759543265682 1.332221777415621 -0.06444932872332126 -1.7941988325774068 0.3809714111513245
P 1.7786221548461343 3.23537084495831 6.060676301207286 -0.7118808726492514 -0.23339368923794 -0.7982298296591414
P 6.936929377987111 4.2570140681132 6.079108441607889 0.539226153162581 -1.110897314227745 -0.4936950015000013
P 2.616674032036414 8.467058026986921 10.33264834601651 -0.019013564988025318 -0.2421886618217506 0.31909524247181814
