# total energy = -340886.67148966074 ev
CRYSTAL
PRIMVEC
9.17108952739821 0.00000000000000 0.00000000000000

0.00000000000000 9.17108952739821 0.00000000000000

0.00000000000000 0.00000000000000 13.42281655128544

PRIMCOORD
 96 1
Ni 6.571479792899426 2.160947071818049 11.935380255762036 0.8220480151246616 0.7657765942264425 -0.7088544271181018
Ni 4.566954819054134 1.0460177536574036 6.3580657951006785 -0.3834543254741783 -0.7217562227814344 -0.4359781064045072
Ni 2.6623855467687063 2.181545338237304 4.907636939260112 0.23771108566637125 -0.18212152132652507 0.8279031883538581
Ni 3.5487988344892036 4.589882542138789 5.322334335127976 -0.883198104271421 0.38873897091188536 -1.238217571443674
Ni 3.880131946330182 3.347906124821449 3.0207513612354178 0.48773749836498587 -1.276279668422718 0.3123108725601331
Ni 5.0724835998030935 5.280639812144067 3.1360668030441565 1.2207309846231365 -0.10031287538914982 -0.7724010415214957
Ni 5.445297548248832 2.9594371270535076 0.5346213100166183 0.8671680473917518 0.4281655523386239 0.7109555326215046
Ni 5.572307963048591 8.253136570266596 12.789366406169444 0.020607648948022573 0.105797809763121 0.3272268704400171
Ni 1.833612554883034 5.565117829089243 11.85575594192472 1.3080657025850635 -1.2471346714276457 0.42009434529471523
Ni 1.0166427548413424 7.671918790070569 11.649581601967183 -0.9825776692130239 1.667037212426529 -0.3129235664434675
Ni 0.7676485992509032 0.4156686142177301 4.661073122316646 -0.40625075454340365 -0.330793761855669 0.6503939689883638
Ni 8.70933406202661 2.8456239096612763 1.4785630062832873 -0.7929888929751762 -0.08048118537520332 0.9205876006634727
Ni 1.7134987991871389 1.3437663367239787 2.718160443053364 -0.10507661532638031 0.20297625328834723 -0.6221066920078964
Ni 1.6078019957668754 6.934205543187916 0.5720292658926194 1.8758359859339242 0.45740696570224443 -0.39792783650000496
Ni 8.292691478132244 4.045211552539705 4.017394721784477 -2.3985124622679397 0.567360706615268 0.0578693615129584
Ni 7.822544759647524 4.324828892190934 12.703863424133221 0.17925808373580093 -1.0851078639684668 1.318036183534214
Ni 8.443418329690772 0.23155532941225004 6.685958831370037 0.27173475090998367 -0.8998228573122955 0.492954523789551
Ni 6.957995348660555 0.9426320647240733 0.6501110025208001 -0.17675331503607625 -0.7683993765612702 -0.29296949191904387
Ni 2.2146988258177163 6.769025054996821 9.65081698926968 -1.0202222190386752 -0.14174466017137521 -0.30689767196436174
Ni 0.3576605577046274 5.03168142380164 1.2149354607112972 -0.014984389223974194 0.09159812122397128 1.1825061368139829
Ni 6.604578253944435 2.4171231073875257 7.266280596147914 -0.490235067975859 -0.11361473470437852 0.2810431727951031
Ni 3.812935375513673 4.481993848391633 0.3030228764849691 -1.1393776810556246 -0.055395188940852984 0.21790356402214084
Ni 6.636145143087389 5.832849437093387 4.864120120845435 -0.09739827284551612 0.02723569578750148 1.3832175053275533
Ni 5.6224738211578185 3.6428575256716957 9.215796459659577 -1.1633444762838674 -0.8121569812631948 -0.22691450927149953
P 9.055524338426446 6.056504790239587 12.803930095872817 0.5142792534092563 0.8929978639706622 -0.5221049201012621
P 3.855067359454037 6.445193894149141 13.08328605948088 -0.051006058734221836 1.3200555279570878 -1.759018685131848
P 2.565346251585209 8.819121171245175 1.765234747773203 -0.17748402255451368 0.7596051753084079 -0.9560595683178373
P 6.600203644379882 8.39283977256602 6.0452738743638 -0.19416328298240754 -1.5514846372694893 -1.1230151805372015
P 4.8520289567995105 1.1773202382186108 12.819702535137212 0.0333034992481362 -0.7084528208043089 0.30642458898268515
P 4.070523758825165 6.406849570062363 8.571730122052815 1.4007400875923488 -0.4514466343537516 -0.24923297026304175
P 4.853028605526002 1.5495930923995511 4.09042869089834 -1.1287739373978496 -0.20789760184936454 -0.1764365551266058
P 0.5379595864977442 5.792423275750522 3.9353950958355903 -0.18556705667296428 -0.3079590233493406 -0.98874034638031
Ni 0.9625883548969578 7.684116338751606 2.771825071705309 -0.695144276620861 0.29813740927322846 1.0024913774178152
Ni 1.903487083755831 6.9483473627865315 5.436294289947949 0.37559214911728217 -0.3199604186855909 -1.632816600680762
Ni 6.320063552642324 5.880768378340318 9.665031260473244 -0.9471848915360267 1.8418501159067826 -1.0229347328738319
Ni 0.10922858988422392 2.6726938510675677 10.251796632546833 -1.2315039068689242 -0.4786692175151305 0.49081382329746437
Ni 2.417352384618372 5.6401648522899395 7.368468540827302 0.24291808378860746 0.2004516870942806 -0.006198672611544163
Ni 0.724014390894033 0.4243142000384922 9.257716591438637 -0.4853828820898801 -0.019699535311456396 1.8156690866360408
Ni 1.7906001463762196 1.3208844690854917 11.759366876967905 -0.39118049047384246 -0.3401919152411173 -0.988012209965034
Ni 4.00010813568757 7.254441637055922 1.71426825357386 1.3119071878183406 0.47899883294040724 0.12246601444742133
Ni 6.219291624140644 0.0040600412038308605 7.980965237964339 -0.4269087971133873 -1.176714212722554 0.3547055354762601
Ni 6.8211810394697965 1.0900756663368782 4.915327814691628 0.7385313853572443 -0.04306340684837745 0.03266560855382116
Ni 1.1329688506836524 7.984020127788138 7.746333925223051 -0.2009152569942604 -1.0862039252461229 -1.0005283401541736
Ni 5.05324265459045 4.997693367100946 6.968133070699666 0.920356458489273 0.8924882713240953 1.1972115613449574
Ni 8.471353467497115 7.617415006753726 9.751528388582415 0.21599606258678283 -0.034497776666553494 -0.7474009199327322
Ni 4.566707199644819 0.4164252290795238 10.666118930865032 1.1561366456815187 0.44607122897445106 -0.008097689406469924
Ni 8.571483419752425 7.348261879918333 5.080871478016384 -0.3981790332788626 0.7820236522129241 -0.19064164298239425
Ni 7.313439254097357 6.7442264297084575 7.4919719311040325 0.3161299891959072 -0.1969292757633189 -0.7099391755418483
Ni 2.531229799635241 5.623225850474995 2.6672480582805003 -1.2263802124891137 -0.8774277774465469 -0.09517683971416512
Ni 3.6006888573743967 4.576584462749689 9.971447439974742 0.3236378675371781 1.361228659761288 -0.5733832586602641
Ni 1.186913197557231 3.528970939565593 3.3519588291538924 0.7700235424282545 0.8813119429923015 0.7986550901220181
Ni 0.8713286801486404 0.48335950674394473 0.49740502990560487 -0.3070254557914777 -0.31555791874252104 -0.30396301481607
Ni 1.4591844947321362 3.892733022937509 8.6532198354403 -0.8232795735389176 -0.12193173921050612 0.47712552717709444
Ni 5.775154114723159 3.3653128521873197 4.98007937311839 -0.3400978128654143 0.9257544895763928 0.4079294277974071
Ni 4.351635986021513 7.473704038459102 6.0916227251338935 0.48862684294847464 -0.18648494050154335 -0.14922657037071718
Ni 8.553049530392363 7.680539613950399 0.7528629691880703 -1.4444195307581706 0.3295094958266067 -0.41217894710238046
P 0.20582858989341937 5.890874918676034 8.184079185444535 1.0625317784401636 1.9268890958559977 -0.8028295332146818
P 8.63681825945446 1.8122530880573686 8.20594489639591 -0.2946666771158087 0.7463326265692178 0.18765067867487037
P 1.9804692067848717 3.5959107198835545 10.825769252248108 -0.6263906640952309 -0.9225169564757015 0.9418989605467392
P 3.8149713573235906 6.717190058647032 3.9924420221969843 0.44191298383170347 0.5530388906759572 1.6131000960884414
P 6.961572073461761 4.180081590812884 10.814588777363106 1.3081842304407987 -1.062460558882596 -1.3166462451652228
P 6.586428668350622 8.516511910884653 10.165125253742216 -0.3173206670698987 -0.7179041960251958 1.040416691708679
P 2.439555591653553 8.850376243354178 6.109582469180566 0.2360064442704387 1.603608097437606 0.9913327896978347
P 6.869191691609066 4.492513087742873 1.8165900961560622 0.3549045388609436 -1.8345978052197438 0.007091102518826497
Ni 3.0856313149114536 1.8338693453815822 0.5218276405353803 -0.42208900712724085 -0.41179893805514245 0.010214478639156602
Ni 1.6135339265380395 1.4254440574407565 7.253300753555229 0.10039540780062711 -0.08774866557089404 -0.772527796907347
Ni 6.874831911487891 1.5150089148986563 9.647313633182346 0.6314685928387705 0.22521295319936055 0.7155740052301225
Ni 2.800181162507488 1.725357017566523 9.469394502045416 0.08268822032885115 0.36405098124690205 0.48557931437140245
Ni 6.394899640790641 2.3609501858301187 2.773019147523558 0.9769461819588594 0.6793229933178881 -0.3751275507760378
Ni 4.457094341121696 7.117783236382138 10.756333101440688 0.11055589327339671 0.07039166234968522 0.1916150626392571
Ni 7.161942031043186 6.615574389935836 11.774601890403197 0.8617612745538836 0.7693941363743717 0.17271873995538642
Ni 7.790381749704369 4.394235695512804 8.608762980379153 0.30845498914915265 -1.6304133905559084 -1.6382233735186302
Ni 3.0555318000459177 8.648658135655376 12.759460401286741 0.5728968059421488 -0.19435842971234915 0.31779554982378816
Ni 9.125242958782268 5.3402794054318745 10.126064667586274 0.5557871428450557 -0.2890896972486634 3.6651034426479847
Ni 8.626720890207977 2.4798166733902085 6.029314344879032 1.2231280241004032 1.324162865257242 -0.6507629222920084
Ni 3.9701828715174767 2.818321577012068 11.693581736784484 -0.28703024361647345 0.179368126951104 -0.25381699008929837
Ni 1.2612815601546206 3.2341387628753866 13.048600999998413 -0.32087933095543447 0.7614658826662305 -0.08971941614401968
Ni 3.651028966179067 8.58006755927532 8.273246934738609 -0.3513708146760723 0.428609581854578 0.2793053641683899
Ni 5.889645992718696 8.197660651490962 3.83848236168352 -0.9626539337059034 -0.6648055164280035 0.25986731004843633
Ni 3.3363597234760163 9.015969430560798 4.043301214652291 0.27961055411363456 -0.4500726368243604 -0.14643306678598006
Ni 3.5621519404137074 3.1115029576401794 7.621193495518076 1.7055443673627917 0.3962555910039046 -0.01914160592545736
Ni 5.3114546719698446 5.016319849334921 11.775487817623187 -1.1851679999168623 -0.27649926217816256 0.8157886644785113
Ni 7.852873551743907 -0.02369534325353014 2.701086626226682 1.044133478438634 -0.18178419259176434 0.7912055758225083
Ni 4.768012608328098 0.6967606650177642 1.7910201822631306 -0.28721793414724733 -1.0290490733016857 0.7581378467342621
Ni 6.026817974389576 6.014455346102329 0.545175399506947 -0.39300391683582636 0.6055981528299118 0.3019123029346284
Ni 8.225990146134363 0.17237245636828954 11.695661739822725 -0.12903389747292615 0.01990985155004958 -0.2237309693371953
Ni 0.3604430661781813 5.173934188908079 6.082093046310987 -1.2504125708479692 -1.0659112364353578 0.19538712808717962
Ni 7.611050270825424 6.30074923871581 2.6295567157471726 0.41125360707463365 0.7681576928641094 0.6363174362906396
P 8.606150137056424 1.893903295506445 3.4573548208472853 0.6365537206711618 -0.1103275793126745 1.2331586688635279
P 2.344194605799852 3.5409208688373157 1.6179323809345998 -1.3640226775666573 0.2872657566660472 -1.0087432718647982
P 4.844040938076817 1.6401117431377723 8.613487925552437 0.008142683711792428 -0.3572133894997783 0.01852068451200681
P 8.574702472073511 1.9341735483323348 13.024105020654765 0.18222950765929907 -0.26312952573947584 -1.8322822697126895
P 6.252408427364122 8.079848839192767 1.6033017422798193 0.9040649204181009 -0.47325678825030754 -0.3766121057413643
P 1.8514136390859608 3.542324045490097 6.561421859336649 -0.7367550101831118 -0.033172115876594487 -2.5138560067379676
P 7.149487691863601 4.387082245910391 6.498804413374607 0.11961337548997465 0.4111448494109113 -1.3726106763459844
P 2.5626591224396873 8.800577228814307 10.365649285622771 -0.5808602837635997 0.0630467919488398 0.5845097075907288
