# total energy = -340868.00805100676 ev
CRYSTAL
PRIMVEC
9.21460808252381 0.00000000000000 0.00000000000000
0.00000000000000 9.21460808252381 0.00000000000000
0.00000000000000 0.00000000000000 13.48651035562756
PRIMCOORD
 96 1
Ni 0.7574371113449756 6.228780301627265 8.671759080687044 0.6055135635359056 -1.2802571650132275 -0.04585099689584361
Ni 5.422391505477143 1.6661025301752854 2.505942197152084 -0.8947847806677557 0.7514581207212413 1.8056379276522836
Ni 7.52713703162023 1.2932426224207088 13.597908917020419 -0.3285227064333052 0.12624245077071808 -0.40287206787915775
Ni 4.894956544525082 8.945532463133532 8.575384414583487 -0.9698442808067557 -0.9904976953910489 0.9045194914570165
Ni 7.55949873575314 3.966649266774012 8.462852854394894 0.8406072661840878 -0.8614622552562261 -0.050210302305803846
Ni 0.3891780574837823 3.6321037000742873 1.6960905512260094 -0.3628219939358074 -1.1700483706666043 1.8166605040150323
Ni 8.70242345398246 4.46119729092358 5.006192530795369 0.8392751776362256 1.402473525343688 -0.14821895504180924
Ni 4.981094702336711 0.4672451399394849 0.25188500203722947 -0.3045865073326819 2.40726166921548 0.6472266270039756
Ni 7.287796797238623 5.021519188678134 2.1329993579233624 0.12580793433646073 -2.1289608350522045 0.39192096818429273
Ni 3.4676505868453447 2.1632490738480543 1.0118727169425665 -1.3116423641927282 -0.8369894669258424 0.4561453253810015
Ni 6.452280624447234 9.082240390956953 1.8185886316851474 2.854797655660916 -2.2914237016075374 -0.07062460429609772
Ni 6.169677804386807 3.051684741752 6.644398755990025 -0.1577214952156058 -0.7845939840432616 0.3883234806410215
Ni 3.2010258974701298 1.4630954960772953 12.027984781793217 0.014972819259748409 -0.016775419686125947 1.6216081335594525
Ni 0.7777792804918471 0.5361215721383069 6.222527268476755 -0.2579955469470202 0.2784895531353139 0.2861444985774104
Ni 8.574699769191382 1.5677273726231933 8.4209098006158 1.0889868873078987 1.2509481316364648 0.4517037446698801
Ni 3.160776488685235 0.7284359748365737 9.905234832613314 0.8737516141465403 0.051519508035530626 -1.7162108459377023
Ni 3.966851988155254 4.473047277118034 12.435816892194612 0.3672383778359482 -0.5475704113622183 -1.0374300982765294
Ni 9.06924779334095 7.624166856369531 6.213667422655629 2.4871705270269806 -1.3090360369181326 -1.9509304530759173
Ni 6.016807453713408 1.27209509651381 11.527702506936954 -0.3808107172037442 -0.141672155062227 0.32151105100216243
Ni 4.235678968899423 8.588659900672406 2.114131526094619 -0.9142781135056771 0.17461030055114446 2.4031977835587517
Ni 4.87670240560501 7.279374645308816 0.2852962500484819 -0.7456962785367997 0.5583402482842126 0.44555238035650363
Ni 4.814356366264671 2.844752284544494 10.417507155709254 -0.3877277560385516 0.4021848120041461 0.1999860603117717
Ni 9.07553215615947 0.4376994200841993 1.6957265742005965 -0.06458405452897265 -1.00155266765363 1.2887955415015417
Ni 3.7346622897665673 4.89870689007807 9.51056579008033 0.35622351478268327 2.2392609035610533 -1.1837351241250773
P 3.1820438044992323 6.158039754181834 7.277482886237493 0.8968496336165844 1.9501377819712928 0.9115689421046301
P 5.774196033407205 1.5234143216052078 5.060678509308438 -1.7361376667686164 1.6262728860249733 -2.513387808852297
P 3.666861202349155 7.679417647366378 4.264447897280219 -0.6950815417037255 0.6117621155487787 -0.08359556263446893
P 7.356998505108256 7.027981703351513 1.7689043855250572 -0.8577974048101291 1.8207943236777484 -0.30606077788536323
P 5.533611826913426 4.950732568191513 4.731351175254063 1.2977404093996554 -0.20886613641022092 -0.5704169769430886
P 4.628986092334787 8.864536056718872 11.945407148604865 -1.722948421771852 0.24769570768290888 -2.0103908132250794
P 4.529846122298916 5.2088337449463 1.0479635730295167 -0.477780387152274 0.13805692690714289 0.5329086955849854
P 8.665343870431538 0.4097072831778911 11.752698360673998 -0.5362179624638765 -0.370611150962923 -0.718608421181072
Ni 1.4874497056511227 5.1268145170171895 6.709404131267938 -2.0583760828551068 -0.08155616360693697 -1.9590142585253163
Ni 3.2447952866020557 5.218407722905893 4.708626108416768 -0.19080927890851007 0.7263757238313168 -0.616641812238583
Ni 5.003099186809773 6.418352436913813 2.8723030417161874 -0.15133976005897806 -1.0162496075441725 -0.2767049504310654
Ni 1.0541511824615353 1.5230641664921525 10.322642763895951 -1.358511003719809 -0.8647825778787106 0.7773308747229452
Ni 8.369656306672725 7.194802970897698 13.203698761977702 0.9770207439505367 -1.3283884733028155 0.7406265773233761
Ni 2.619077314180285 4.343646533627585 0.9174229824999903 -0.6693692245392859 -0.569112142088736 0.46810455462540673
Ni 4.989793292513667 6.686294815267105 5.852660265477978 -2.2245889033711754 1.1916266110580123 -0.8434881872763086
Ni 8.004564313663035 2.375000771164191 10.970547670033904 0.3383173239262238 0.8327808281611334 -0.2608700402813378
Ni 2.5828546891955275 3.076398321047121 3.5350840113940487 -3.9445265633411615 -1.3238939278665716 0.017037672208577107
Ni 3.5226433688115195 4.08824523708662 6.970988429936802 0.46441322181674854 -1.5276091162034724 1.2844241519067232
Ni 0.7833725476924952 1.2440919020776158 13.21149339908648 1.0373565647261167 1.3489716967708056 -0.7823342414748075
Ni 4.211380046975025 6.909067184036249 11.459178072772835 1.117901770570036 -0.8560763083539643 -2.9295915608433547
Ni 7.710083863583441 6.307648133538875 8.634846281545238 -2.644828258884187 1.5295155891975658 3.032434915963842
Ni 5.564830919624787 2.958045892834394 0.4285594501726294 0.10993162942583647 0.7575999719529211 0.03204905801574481
Ni 1.7726971182759412 8.418005356099087 3.1083711687123747 0.03377658222981279 1.4303579104587818 -1.297913701752726
Ni 2.558712415611181 3.2956230656445196 10.399326733655087 -2.114750347879777 -0.48599531886289843 1.0934989162456394
Ni 2.4199219863259045 7.697376918822825 9.06540345878393 1.287444426790286 0.30836628609008826 -0.04806420249707851
Ni 2.6584789790072567 6.487876656071788 12.906833571286032 -1.7067520145176478 -0.7263194166720846 0.7003124510853616
Ni 0.15765733965319614 1.657311793915947 4.191850606274771 0.6840995887709251 -0.3440531979687365 -1.546831454768194
Ni 4.393663427145078 3.1704057542942587 5.052856228374945 0.30436899200523704 -1.5841080797314653 -0.499148825525721
Ni 2.5419602578339515 6.529637260607764 1.7951761550732745 0.4476257179457646 -0.13086118048965203 1.4691496865149989
Ni 6.205236977578408 5.502871893830457 13.309796682694314 2.0355097197798946 -0.5333586386382105 -1.054712796616377
Ni 6.452501775044953 1.7035875564886902 9.064081162501735 -1.8574860226718268 0.9304020156507331 -0.49073823286452267
Ni 6.055711529695512 5.0685689783428955 10.269154727455092 0.5169424020637161 0.10323981922795768 0.6816367290527293
P 1.716469578805834 1.4078354904722092 2.1908975058670737 0.6038922258823987 0.23674229399519872 0.35785539395915145
P 9.207595921430787 8.670457978003796 4.308063402454565 -0.36349716562596107 -0.5098770105765025 -0.18758871508868338
P 1.4295819659145976 0.4059818170671464 8.399277586315566 2.1808863202769024 0.8759097981401238 -0.1298556220432731
P 6.035531537653634 3.6598673146962852 11.959230903883963 1.6633325098814322 -0.5857304673717073 -0.2105180701913471
P 1.9157170527425977 3.2130693904375884 12.61385233796681 0.07389838995136305 0.3075733578751477 0.2452806704835131
P 1.3246091488638825 5.077903376488293 3.4001784609420396 0.6570497837419845 -0.9238780984892864 -0.2307390252239123
P 1.733636393953787 6.227941772277579 10.824111880293309 2.436473772003062 -1.4516055069836484 0.2952983971625366
P 7.011487554604955 0.06328316499817382 7.67277299336574 -1.624156611012919 0.9667257897824317 -0.7143198211080473
Ni 7.041149378524042 7.294090374665382 6.51889394886273 -2.472854624624941 -0.08500529849780199 0.6835725126228615
Ni 5.196320306958688 9.278281181226788 6.390516026886732 -0.9556289085383219 -0.7661378342206031 -0.47880471465173025
Ni 3.266071817024291 0.7359329800992547 4.121585532614438 1.164009877782008 0.09320120404503303 0.15385584161261245
Ni 7.306981611590763 2.829787760765494 4.073695370678345 -1.28518879798689 0.14592038881561964 -0.8521795444027195
Ni 2.5490923646103956 9.009629278039148 0.6424784233464147 -0.5423441299662725 0.26934131097714253 -0.6057629605425503
Ni 1.304604234378533 3.068353968055085 7.917660421906804 0.5599207053974551 -0.7003620733763745 -0.278295691956953
Ni 1.9818779398935926 8.368025321014548 11.562052723527687 1.531109416047247 1.6155223323766885 0.6446611802696447
Ni 5.805977217221101 8.267669022691221 4.0716856646215716 -1.1991655997475348 2.087669175392269 0.03634305740540837
Ni 2.72220720958334 1.6564087623085937 6.237942386598607 1.49145426354947 0.7091786432267398 1.089823524276581
Ni 8.477061780298353 2.525585898994492 6.3300147521157015 -0.05641488845461897 0.1042878008764978 -0.14971970795705183
Ni 4.3760543108016865 3.90789692464661 2.8229293278537275 2.848511822652204 1.5594468295393595 -1.8709380344116748
Ni 5.64265750080547 5.162926566703088 7.359818175229176 0.330827700417398 0.7573423474161602 1.8896631216250037
Ni 7.1737199472484665 6.554608848933557 4.095880461472876 0.9368835096100188 -1.3985667340901138 0.7165543668655208
Ni 8.080529543979583 3.7093221171112423 13.128039456654665 -1.4670100144641767 -1.1474738278001981 0.7664800480513703
Ni 8.870203040785428 8.590392247021207 8.100551044759762 0.7284441763245714 -2.6219711517803552 2.474079241060662
Ni 1.545557025201843 6.911195758539296 4.8505992633875525 0.5997357805118639 -0.8211103338017407 0.01866518050967108
Ni 2.8827625435274817 8.384795908008254 6.53216482764753 0.1895322119682994 -0.7938784946689811 0.16755956435195013
Ni 6.900691105147634 8.744248560776104 9.730787555289112 1.1090474055031996 -1.749068773007988 2.2857130243760055
Ni 7.301876718626745 0.27769604117353197 5.40289800174902 3.8846962214470904 -0.4474760797417778 0.1272125279934712
Ni 0.04934422711609722 6.660383336901004 2.8268667299539536 -0.22114752488073525 0.701023103999141 -0.5063291453242441
Ni 8.534358214324103 4.927917198193482 11.082526353728197 0.5317002770991811 0.5576738183448073 -0.46071366147797427
Ni 0.20609945662276377 7.4940565880447325 10.565696485397595 -4.262001239490422 1.3624512193144793 -0.24271856618329168
Ni 0.6048339843104872 5.0412384503080965 13.41416870728789 0.6552939773931423 1.7277257885558372 -1.2646150876005962
Ni 6.672988920970999 8.414328727412006 12.548348452383204 -0.037168638630497276 0.007973762234095945 -0.8540675054540517
P 7.228482364008685 2.7215714016148977 1.795391776906051 1.2245243902272975 0.04264457414340398 0.3876855899467065
P 1.0508984257534153 7.4656203070213385 0.6110833316177022 -0.13097173792558733 -0.07031890013022084 0.3193677794069145
P 8.53838499812424 5.5801087400838885 6.991677068353433 0.29298903230306955 -1.403759848255279 -2.122152039660487
P 5.276422896374231 6.7414166017486155 9.135074190212894 -0.18656695869238837 0.875248767517357 -0.4929028446160092
P 0.2946905431474289 3.5703197518364846 9.706754014081977 -0.27386902364416704 -0.5114003891995644 0.22433543569041364
P 4.508468231186059 2.6888318985442172 8.370429412303919 -0.04523187525460597 0.12115989404148811 -1.1851913969556298
P 7.365798455975833 6.723660051673412 11.240278603846248 -0.6067903733658001 0.5073043647533199 -0.745117266104878
P 1.2987437435389741 3.0404060612683206 5.454929208627405 0.06046823258838618 0.4714894119372396 0.9431037794881177
