# total energy = -340896.8360468609 ev
CRYSTAL
PRIMVEC
9.03081635790285 0.00000000000000 0.00000000000000

0.00000000000000 9.03081635790285 0.00000000000000

0.00000000000000 0.00000000000000 13.21751258870394

PRIMCOORD
 96 1
Ni 6.2784945740687235 1.808466163615109 11.413851233597928 0.7841602389399527 0.5463151987988785 0.19060461909687174
Ni 4.684690919300491 0.32853658984412804 6.043681604305145 -0.09795080291487647 0.13229174228859153 -0.009402524260822517
Ni 2.716839874800295 1.4890552138715183 4.893096878457459 0.3250766568662337 0.37183088230263706 -0.17581460527189074
Ni 3.395487675171563 4.385996662669846 4.838468566203961 0.24493357155673945 -0.20578055550636173 -0.23967926513633558
Ni 5.032594095186778 4.538039489718479 2.821846597049682 -0.5655714759253291 -0.38545310107176195 -0.9195373050220874
Ni 7.061899846153233 5.8404096643437775 2.5442519401527286 0.6581270759665634 1.1042600114168855 0.14577357882511022
Ni 4.974516914101618 4.461078871275354 11.335100707319151 -0.2878185438457237 0.6773895237406011 0.4768051677231982
Ni 5.747238730234683 7.854308842315166 12.4685160447857 -0.8502645867681937 0.6026526970483427 -0.41865941262040157
Ni 1.8671122861414704 6.492100477381941 0.29206563729982393 -0.09973926227386694 0.6448247024307024 1.060441471570038
Ni 2.801774704236764 1.5032968115346028 0.4417884475826696 -0.222768605423926 0.30487215689390074 -0.10097313468096804
Ni 0.605523472788814 0.2163449499658567 4.751299512758711 -0.8010701273214139 -0.880313069414142 -0.42727826463766416
Ni 8.627653784788594 2.5305612222977913 1.4437096779261276 -0.23340165965773996 -0.4333100726540408 -0.25832413393103254
Ni 6.85205076251525 0.7516520180939122 4.841720563235334 0.04895740373530923 0.3075885273837993 -0.898538334172917
Ni 0.8376353253291664 7.438114631851676 2.3268774771027934 0.2883422775596776 -0.7279353550089528 0.485684215380383
Ni 7.585976190848307 3.7604861867434676 3.748235884124587 0.8711704836829255 -0.2153633140987904 0.37142336245157326
Ni 7.649489923482723 3.850586643233383 12.5246506972359 0.4170113354940173 -0.3657060003518218 0.08828654035223504
Ni 7.878999094699994 0.02200539063134971 6.818544627036761 0.18461137762791432 -0.2393632765578136 0.8759617344239817
Ni 6.979376244729474 0.6866202052013065 0.4782892018215128 -0.0021651259721188515 0.1582046054996114 -0.7088996785337404
Ni 1.7098225546906485 6.542591772584417 9.118246571046496 1.6426919508129452 0.2954290092031299 0.31457035801827116
Ni 0.16472570577915677 4.94446235669975 1.392240345293776 -0.6818303331207742 0.07126069521819985 -0.5053266722016588
Ni 6.364603409653703 2.0995835651795978 6.988627413179737 0.3758693140380688 -0.4069246406819766 0.6617348479224796
Ni 3.2877680956374635 4.476936985096772 0.7866717184223269 0.9981950640353068 -0.03807778070832797 -1.13777614089646
Ni 5.928740080794401 5.355915388486562 4.799199866699591 0.014631119649613512 1.9387423956501577 0.4255851932059574
Ni 5.321444761802988 2.7836317938340134 9.24880960098565 -1.199809918199753 1.0220556727029881 0.12021758473287684
P 0.20211418928260444 5.574388901907833 12.377143146247128 0.10574227393483725 -1.1646703941841425 0.5922767531306574
P 4.097832338109688 6.191085300903856 12.608436806810134 -0.38573078021318086 -0.5903929058443832 -0.5878022622990715
P 2.543502382380987 8.541274024707803 1.460297481722928 -0.20177760499455571 -0.4327809396234482 -1.2001503322583071
P 6.427999741673268 7.692765596280125 5.74923454068715 -0.9889910289385355 0.08456563985722211 0.6951414484073835
P 4.742172066494868 1.0094827330215181 12.695408085373442 0.2812884560366898 -0.4340019565147429 -0.6011136346959971
P 4.065267213713313 6.2361310137405495 7.992735907286035 -0.17140259224712415 -0.45818986661485606 0.8179067392627785
P 4.64153264711794 1.1996085133645253 3.8539226268584574 1.0010780420100567 -1.0925110984110733 -0.014531360846955619
P 0.12204064838262145 5.7419737641994395 3.5642474466933316 -0.6796562082875908 -1.1791827288677046 -0.14734657973918494
Ni 1.4707316871382279 1.0336491980477798 2.5386347722729328 -0.11704612898343068 1.1093327979541026 0.21542656323655804
Ni 1.781147943620923 6.451967528735937 4.727005713219419 0.7199101707116311 1.2017122774287883 0.9368261740095222
Ni 5.911247389181595 5.4712569771694515 9.09452080986675 -0.3028402140655365 1.107984254346008 1.2894964242233082
Ni 8.7763100556396 2.210942563774079 10.296971321192325 -0.36014033333858625 1.1606952115864786 0.11039597065676472
Ni 2.4450213281540125 5.092721271623567 7.002241369094195 -0.807822358443583 0.5431159751352904 -0.17694151978748238
Ni 0.6496543639113226 -0.03603927951431333 9.163490058765131 -0.6910611076904227 -0.09744943779842573 -0.21792259018553437
Ni 1.3886144724581841 0.9710566086991178 11.508065227015893 0.8228903085202989 -0.0976713240012447 -0.296570836117057
Ni 4.0275725855296 6.812875080421109 1.580298971733752 0.6215647034614973 0.7143105651366666 -0.33333812554407755
Ni 5.655359202888947 7.8568284401262 8.071961454514133 -0.20116054023584712 0.05677998510352157 -0.4218401243412283
Ni 5.409739054987503 2.9231037242770572 5.035462282515755 -1.065981941772293 -0.2774922222190511 -1.1417191847046078
Ni 0.7019563378274641 7.551550718247369 6.903467716411746 -0.17865464582384716 -1.198186523663717 0.10030233386618854
Ni 5.06552948306076 4.460798915963017 7.053631230541109 0.05529183059376929 0.11972521847749057 -0.39926275326134464
Ni 8.221438626587442 6.968783096943299 9.032372536691218 -0.4881987542721205 0.9478911735744321 0.9424905713841509
Ni 4.561582828404378 0.19895340349815316 10.29792316925427 0.2234314358189055 -0.032980311580762554 0.4857901448306279
Ni 8.054865215746862 7.421154758413964 4.443833624035388 0.47105823793709195 -0.5161749277700722 0.3168326716898866
Ni 7.211314705592508 6.019563002606476 7.109871543544677 -0.06510393158818466 0.5416417045826092 -1.4835316662682838
Ni 2.1499845522168046 5.20836087725185 2.745356484147614 0.8676956377604474 0.24343950350971622 -0.6118968413544301
Ni 2.3325966932093447 5.441103080785787 11.482199162319251 0.38054897890192524 -1.3439788715419045 -0.9334410595873732
Ni 1.0973796702788443 3.3436778807561427 3.7852577164770382 -0.13597201935365616 -0.13202948976614037 0.18059711426219863
Ni 3.5978773043582404 2.675144594895119 2.7091140112614434 -0.7386206026369408 0.1758392878622391 -0.4560345108347501
Ni 0.9858039320877147 3.354650322836452 8.236572468923397 0.45375471366163794 -0.23772137007901636 -0.2101653148376187
Ni 3.504092274725308 2.691661958323009 7.2705965976023705 -0.10513060849276733 -0.5915653288859296 -0.373638367825021
Ni 4.217219732596675 6.904212758775223 5.822512392150563 -0.19565349437468885 0.12822271442554045 0.009099648308423039
Ni 0.7120880108891094 7.300421772264453 11.248011125059339 -0.12459617341654672 0.8410109293804097 -0.02100951237213156
P 0.32870456303153034 5.48425232215181 7.94582713699982 -0.7056485185862943 -0.16640899568727469 -0.5259137523243911
P 8.480659184178556 1.7298890290136506 8.218596628626395 0.3557326911891938 -0.45747330016380566 -1.6201703726716614
P 1.9294068585447415 3.354641292019925 10.425907901074966 -0.34244728693419735 -0.4170223912376108 -0.2849368514225544
P 3.949284437057005 6.266682266051403 3.6638546437412236 -0.27604212003608586 -0.496059645077436 0.991109617943435
P 6.79530111145956 3.82630277759227 10.437631707090322 1.1041918771831112 0.6648520533952227 0.26997303102387055
P 6.4450408924597244 7.839173193815908 10.16729421435447 -0.5814346682098309 -0.6594198266360579 0.09865605651201718
P 2.3688102674826292 8.394577441043158 5.807616963370923 0.45757203052519907 0.22298097854504823 -0.723834959687334
P 6.761607134997309 3.8276393384382663 1.6594188584084832 0.7282942810102684 0.6601129960483405 -0.8803457224242903
Ni 5.226458633571965 2.961791742278741 0.4927466359995929 -0.4632940206106408 -0.4178919383267577 -0.5697163513316382
Ni 1.2643955911292493 0.9784980015173688 6.886786895204717 0.5934394059801908 1.079464035419128 1.4491125653584656
Ni 6.7623386311359965 0.8646654622761409 9.12695679358679 0.5243986012314452 -1.1114261901480214 0.763996105287252
Ni 2.6316792749506503 1.4630013081911128 9.291845054063433 0.22238679660447505 0.2968420875005726 -0.17507181356859525
Ni 6.3901425587920695 1.8073282807327067 2.596210743040844 0.22904209713746362 0.5885584237388057 0.41417875114122865
Ni 4.125448575049265 6.793838119182185 10.305747468693268 0.1630015126676225 0.13633454489939745 -0.031450505199797446
Ni 8.16104955647137 7.181467856970761 0.21165976235164724 0.3906513574432498 -0.01742925122004095 0.5478547753718565
Ni 7.452491691762667 3.9170715145051833 8.304418284245816 1.511450504165739 -0.9176660561413035 0.03240746979642806
Ni 3.065384238659999 8.29151776283699 12.384664010250818 1.085536466865453 -0.02135866818143418 0.47737646684563595
Ni 0.17360299842520133 4.827901607785714 10.246043837551593 -0.5158977628492857 -0.5956587822290128 0.03922526404920987
Ni 8.642229522663177 2.4795461397367475 5.916119514697913 0.16960719090959822 -0.14936001062478793 -0.41702881899551403
Ni 3.6900548486493663 2.4736851398107222 11.43872661772156 -0.38075029627945395 -0.030609240245424704 -0.039868039839531334
Ni 1.2547145558123014 3.2103920596340965 12.605991261694621 -0.6145304223225352 0.7552402134714928 -0.43004091498446584
Ni 3.0429155671408146 8.311457805728615 7.848122732994168 0.7755066770300127 0.04461635315779413 0.9067537801041737
Ni 5.664931868407571 7.954830861077243 3.484969520729378 -0.09959425205557042 -0.23859245983006008 0.15556305411170626
Ni 3.127561410448419 8.446685252403968 3.556198279922813 0.5914869102395104 -0.5876346263729557 0.8847381950650312
Ni 3.409006807512487 4.407751899683397 9.2078087908714 0.25554194320020507 0.02336387153692105 0.3057069940903703
Ni 7.301677055761707 6.19342428238435 11.432884582510242 -0.4399234642055004 -0.7901457670994263 -1.3299326778614837
Ni 0.597651310022225 8.96313958795025 0.3692312552781117 0.30317959968282626 0.6437291553736785 -0.1389573272342252
Ni 4.731389271561627 0.39368128794332136 1.549092082143038 -0.3793770700810111 -0.9567267695881909 0.5749200070197646
Ni 6.014442529635665 5.5308784278807295 0.21983626363519632 -0.23912056441938814 -0.015413763451908936 0.9365495233093676
Ni 7.961631065922076 8.883894172925794 11.297246233682909 0.21074741259333385 0.14493205676042137 0.2826408562995261
Ni 0.04338133335076727 4.9512354690950025 5.7994088542295295 0.6003914118179918 -0.013623761431021699 -0.44579483538461284
Ni 8.161925545674489 8.904358003175984 2.537392131918817 -1.2445561120671922 0.39908071915752563 -0.22439482817343936
P 8.623517670819226 1.7254278056493109 3.5465894911380813 -1.3577450720880617 -0.1113490785986534 0.9262198592485856
P 1.698750773628542 3.245774798786896 1.5378315570155174 0.7492374589208387 -0.4442331473244478 0.7940157915777939
P 4.768722667084259 1.0021858332676992 8.221305873584496 -1.221424668256051 -0.30049511087212766 -1.010740247690169
P 8.565783660762092 1.6960505594869681 12.470802647530336 -0.5530890271876023 -0.6260996152173733 0.5521721718002878
P 6.4867361723649 7.6709200511013025 1.3716735637351778 -0.8677612008910605 0.2965762354336957 1.0076415541601873
P 1.8096040464975116 3.204476874808909 5.926746076505238 -0.22682349221959 -0.08434966719167408 0.5326762678592052
P 7.060310422444481 4.033252969125085 6.004597133457925 -0.3803047241016031 -0.2519652815925403 0.42721527261021264
P 2.4186513438951622 8.372343570753674 10.314180445166183 0.05826711117200933 0.5429516816432843 -1.0037093089853166
