# total energy = -340864.4951684265 ev
CRYSTAL
PRIMVEC
9.26389052381553 0.00000000000000 0.00000000000000
0.00000000000000 9.26389052381553 0.00000000000000
0.00000000000000 0.00000000000000 13.55864019000911
PRIMCOORD
 96 1
Ni 1.9476681328543073 3.097993209365382 13.703446068591024 -0.7022711174736294 -0.6071256452180318 -0.8503628029089548
Ni 8.162951235520971 6.292154866132868 3.9925181827327 -0.3033865734873098 -0.4955981320599852 -0.1928049691823002
Ni 4.858567809445112 0.8996469784312447 9.53088324737411 1.7294597405278085 1.0700519980766086 -1.2899193706933398
Ni 3.1698254163932127 8.668917143599261 9.899461027218422 -0.8797337998719043 -3.66988080943197 -1.8637386884497578
Ni 7.232254475261614 4.7193130072730245 10.947801785864138 -1.2296128604937984 -0.6511475593249366 0.4691211688153792
Ni 1.148018367773658 4.329173522262697 9.303057314408575 0.12612186603245376 -0.5985638716909498 1.9624304832957173
Ni 0.5677384563994498 8.241258902016492 3.226983620850489 -0.6822568791352315 -0.05551345968627214 -0.510847859130204
Ni 4.4434899311772496 6.462239895927939 10.139463417872552 -0.48629562371213664 -1.493495719459531 -1.4475285087007974
Ni 6.319261009770144 7.6898258193067095 5.241376777893519 0.6307263153561073 -0.7381590896194901 -1.8098385959971928
Ni 4.34588558074583 7.7016187519281205 8.122086361695699 -0.0908491588730887 0.6567196540960755 0.5120506211890535
Ni 6.6944763671661 0.7196884941287891 12.146494561125923 -0.7519412310052469 -2.270733777358354 1.8634970047525972
Ni 0.36980617172616626 4.1815997464110914 2.3823345076091886 -0.057838508275022966 -1.0509762123920803 -0.3601303060362572
Ni 7.434985455219966 7.768744902576002 2.435443465523794 -0.3923549703979178 0.7906417328992383 -2.1667375395803457
Ni 0.24281953975874293 6.530431393984666 5.761866613516074 0.6374556636601408 -0.7637657344440008 1.6648335199069908
Ni 7.591508149305888 2.7446869530296296 1.9305873715288089 -1.0296627956262847 0.330865752744185 1.505590445840536
Ni 6.273108307240784 7.28525319287913 11.21410714084818 0.8073227930993452 0.861246025480362 0.5998671638834056
Ni 4.714857075936891 1.7849293682350256 6.641225671726665 -1.5955967970973552 0.7750647043965878 -0.8388031230958135
Ni 1.2415280785989 4.539639850798331 7.059007679634896 -0.7775846426049641 -1.3512406953106406 -0.8499169736207878
Ni 9.275748291569093 1.6185776863161758 3.6289429037647127 -1.1660860435847467 -0.29599105235418705 6.189932660568004
Ni 3.8257922396371766 8.054434022066753 5.735277394969352 0.589394546486856 1.198822100365187 0.5690416938621168
Ni 8.050469076927738 6.447232393298963 12.965680018517675 1.4881197998595983 -1.1534279885011038 0.4770051995491463
Ni 0.7331693076014354 1.2126154763118404 12.136555332995906 0.6613185863206675 0.3045515403296884 -0.8641300318963764
Ni 5.962128766653054 5.090322558376663 13.154972798899735 -0.07933910135096015 0.8845829004340895 -0.8200320131358975
Ni 2.631046808122433 6.197283363402404 5.784753055025264 -0.89236974346836 -0.5882465489253418 1.9863635970725468
P 5.02275174098422 3.964519000050095 11.35941496908062 -0.5353718124134973 0.8413228041938736 0.5899031106921583
P 4.6822203896641215 4.139504627925863 7.008162816561353 -0.8749993705107124 -0.9076850336691916 -0.44259561172102485
P 2.633214558502174 7.387554335799989 3.99959579508365 0.714613441089066 0.7027861094368348 -0.7946963625845861
P 8.7371179055465 8.340975419484582 5.025605019261828 0.20970534448206465 -1.0837302668946498 -0.07893698081653502
P 4.723870841404788 0.48468767796193285 4.824367378453965 0.4103629769395642 1.3260737091267096 -0.30560543551549946
P 1.9703924562795418 6.680608323070064 10.613649549550406 0.08772398298054569 -0.30436693512270807 -0.1261552903735505
P 6.025308499942943 6.466112202161836 3.471866229026191 -2.1032701151543196 -0.6001636120779018 -0.4062283859459004
P 6.986427876642769 0.91635347858007 8.20746515581881 0.7857316971921307 -0.24264914639793694 0.8852192484665078
Ni 0.45858666644517837 6.482583399491663 8.235897888577362 1.3079638868998764 0.8820876448160614 0.7151502874291426
Ni 3.916439408294299 5.158032334126781 3.113727927399528 -0.6799043197426549 -0.1359069704436756 -1.3376501011103994
Ni 3.7026658708459848 1.5660143715527097 2.1842836451373553 0.01314399358112575 0.4373310208879758 -0.696276333342775
Ni 8.381616107159472 2.1403663193884723 13.228229792288266 0.8465292880954776 -0.4401121831775388 0.4520410734046408
Ni 4.220350600421591 8.526049424127606 0.5263436880369065 0.5065903694054307 1.3507884382645705 -1.3065461806167433
Ni 6.9678445122762716 5.232495486059939 1.9852563686055873 0.2356066377288588 -0.4837993396528443 -1.0341817665425608
Ni 1.8131471787337068 8.37172227209296 12.35056509965227 -0.44579380694334836 -0.2819669701609531 0.594979239663485
Ni 1.5111906675043858 6.058751144690231 13.270464795520223 0.8041485091364216 -0.4393976736090175 -1.2769890357849167
Ni 3.596473893910206 7.024307924945168 12.209080479034013 1.6416606813349532 0.20766028902757783 0.97871073005845
Ni 6.528189532480831 0.5780436082046805 3.509233984183292 -0.3110052663748321 0.6707059410728384 1.280250737255324
Ni 3.0562037992670397 0.5807570017355614 7.768409549739478 0.32572226087003264 -0.1663647727129006 -0.4014893285990182
Ni 4.759749889356657 5.332489920243382 5.116163254570038 0.41475159292556313 0.44005279069451314 1.1522938748966607
Ni 3.9440365381286955 4.045226014188149 0.6388749452498511 0.32491647713928556 0.58214866355772 -0.41260960688189585
Ni 2.4740609195109258 0.21563280027401557 4.024231259121451 0.4059105975951655 2.115497767568763 0.14923351234925267
Ni 5.49099508689881 6.1214676834545365 7.165592445528372 2.240520229889451 -0.1385822032829936 0.5083076092068537
Ni 4.442016972585886 1.6569209291441602 12.719970144919278 -0.14230027556452912 -0.14157265336988523 0.2415751966074678
Ni 6.401107482441137 2.765512178899963 -0.08233653247906374 -3.1914535327243163 1.283595742468157 -0.22369857343736313
Ni 2.8051616302900997 4.8784481184832496 11.545954521202596 1.1314553408847547 0.10404226052459502 0.06964167155753813
Ni -0.5139300747512096 6.276610057854212 10.775580502917066 2.087572501913405 1.408021965965743 -1.5440492640373669
Ni 0.1420395276599076 6.4774048846956145 1.3913872562397454 -0.7849215425860095 -0.0899508154285354 1.84487938965141
Ni 0.8763519993504885 8.536953023259892 10.18111479600227 -0.7097031482716423 -0.5548975411512508 0.5454734196238735
Ni 7.826310718215793 7.732643521251852 7.239323750111104 -1.3757031992283792 -1.3467844593115 0.26888853971044013
Ni 5.581049366563182 4.223111239794083 9.12576497779539 0.946233583366351 1.802717411571379 0.28775452337700763
Ni 1.405619371232892 5.793609334354462 3.7135490894191467 -0.6867403688278818 0.27211527417785397 -1.157551266640858
P 5.397494639964079 3.2481238189982204 1.9232253577391496 0.07465455139109724 -0.476658871953321 1.1783939144178222
P 4.619346364761118 9.046680070885937 11.322549316789253 1.4999828698457716 -0.3236016149826039 2.379444647003212
P 6.522696045407385 7.640782782937695 13.473545950539917 -2.938477293368759 1.2436847652058325 1.616434559778313
P 8.708242358821487 2.6346597254220017 10.00996441879835 -0.5356754596968452 0.7739352187778349 -0.1683766609366068
P 1.9691603588414839 2.277990676830497 7.087019831764216 0.006622647522840207 2.808513170772079 0.44957255725949025
P 7.598808095029119 2.4406553303256846 5.0256995109450475 0.07579792096692108 1.342663752274907 -0.6363958549370589
P 2.0020564340485807 2.438580218851061 3.456951365302331 0.6068086281982453 0.21045379261231498 -0.27845355769105595
P 7.528152402096275 5.319122126234977 6.27583374382933 0.5428814905269812 0.39084239040813334 0.2844912792447036
Ni 0.20115148662610408 3.8213270444105305 11.898194503740449 -0.6614638536492801 1.0112495832264197 -0.30154643495477745
Ni -0.7439793414395546 2.589340773038696 7.668590203086707 3.169675517617277 -1.295542630417388 -0.010534323872420566
Ni 6.424035611457629 2.8920847149615128 7.478132025278274 -0.347679224757098 0.9110611492302763 -0.24383905294098007
Ni 5.856270289775696 -0.2224686250826094 6.873240735981595 -1.9343470947959396 0.38790901881142226 1.35813767954079
Ni 0.45575747428290087 1.785049798811678 1.6434160295561835 3.9751440311167023 0.823650069504459 -4.543403081176524
Ni 8.118447505502697 4.783900851920695 8.650737684859072 -0.9644495921537455 -0.07172735044197324 -0.38744750579397147
Ni 0.9749596291243269 0.8251643723280123 6.072033710905927 -0.3264910207152571 -1.1117267521075758 -1.1211483025317919
Ni 4.614195641636606 6.336037915486857 1.2494357355396992 0.5081739118424667 0.9762357861553961 -0.4000662229992465
Ni 7.8247729123908485 0.11391898801159944 10.243390373578215 -0.7559729778724593 1.0109958153444008 -2.967251280177657
Ni 6.582577833675105 4.11943904107749 4.232804048436489 0.3099873666332791 0.025297598224524175 -0.4627983119211449
Ni 6.079613426122612 0.6064003770610373 1.1129035907890057 0.5994827839607934 -0.17620772694525136 -0.1914991058866831
Ni 2.181108909858991 4.11251891486524 4.953079873223721 0.4210443679128104 -2.4091300898827863 -0.18002710069134156
Ni 0.24829820460737065 8.919264520787822 8.065031912812154 0.1804734442001408 0.37841779149153537 -1.0283674738536288
Ni 6.38263528476078 2.447232692589002 10.838302600015677 0.6375160845844311 0.2172047381829033 -1.3351000809950362
Ni 4.415429606817267 8.44272999286525 2.9803112290279246 0.519741304965092 -0.9588882960158841 0.25564967242266295
Ni 3.56347591590748 3.3364086955748564 9.387446725025034 -1.586520288717384 -1.5714379404629646 0.8846608048598764
Ni 2.7455762865187543 1.0644302836864616 11.091944216670205 0.2496186357372346 2.0323737452540738 0.4458452290065741
Ni 8.977349114296269 4.255155037074101 4.898357145581975 0.06693429992870409 -1.129618544786332 0.2426247209179047
Ni 2.2149776935698178 7.925202749428341 1.4880198245564866 -0.1115172287454015 -0.7901496237541682 0.3332417091755293
Ni 4.29292391869036 3.067959676326405 4.344202331839851 0.11466837277987349 -1.2033726958503468 -0.5312691030990334
Ni -0.10939913583093414 8.958209916499069 0.3290950784833875 0.19203132424106928 -0.8933791585694808 1.0368899095023432
Ni 1.282576377456305 1.4272876111397912 9.063408804371992 -0.311019150331903 2.021084802603816 1.230140193752178
Ni 7.784197071949541 0.6165888038458205 5.883189302824635 -0.20921220689573 0.7469208949725201 1.2252239873974835
Ni 3.2187017027330165 5.266707033719699 8.123563952232317 0.2112901724706813 1.17398292983432 0.05414537569415191
P 6.892992276941621 6.670056751777222 9.126036409787384 -0.18129028367448133 -0.49511579310692794 0.03608774686149269
P 2.092870352734914 0.5372139371633518 0.3829229143017022 0.6363683441332331 1.4445596558804605 0.5653015100933941
P 8.544743955180245 4.205973042347411 0.43631997921122234 -0.17607094425707098 0.7591495758282281 -0.35140655301001417
P 8.716172249099515 8.570303029102064 11.863349305969688 0.09034650820505731 -1.5576704543652269 0.5622272420434447
P 8.189853573566989 0.5415994629315972 2.104327932519802 -1.6888931319593559 -1.3096443599260927 -0.2753396946524226
P 2.2265482928189484 5.262353005179194 1.6275794087264082 0.14065682642383517 -0.19796465900636875 -0.39369811468937355
P 2.0336926201460845 3.0269299052500234 11.187831041800752 -0.11415620903014533 -1.2236162765907312 -0.4680713873946261
P 2.287828928553937 7.879392810847915 7.650001280385902 -1.1391018016864187 -1.6524300040363153 -0.8164571513004455
