# total energy = -381170.63513732614 ev
CRYSTAL
PRIMVEC
9.18753178336038 0.00000000000000 0.00000000000000
0.00000000000000 9.18753178336038 0.00000000000000
0.00000000000000 0.00000000000000 13.44688145488844
PRIMCOORD
 96 1
Ni 5.6210514103332985 5.759939328978388 6.188886814967802 -0.7709087732466853 0.23440490411127374 -0.35883112760885943
Ni 8.155064563836127 3.9227545269763087 4.862782358485442 -0.12967487349103474 -0.6113615376762503 -0.7876636241075209
Ni 5.383039210795049 5.968496301475811 12.890395643296074 1.1678349079550532 -0.7337100527092009 -1.2740685197040122
Ni 7.620386961569166 6.415717788271276 4.810635765335624 1.7269747693224256 0.8981817221644467 -0.2420217972265832
Ni 1.1994690302831965 5.3679624710651686 0.18091444548627775 -0.09519766564977153 0.08224239104068416 -1.123386447833691
Ni 3.3446658368216675 1.2397747324129849 1.9507390203844202 -0.5199397941291433 0.2506177664257103 1.0379558888730123
Ni 5.674660658550146 7.597335444212512 9.345555538016924 -0.9937159452180306 0.12331216449780055 -0.6905420019621591
Ni 1.8589776274982852 2.9988930764718655 10.036026117492643 0.15151125263983584 0.08489551239281509 1.045623432720599
Ni 5.757302507343728 0.880532131650034 6.033562401882275 0.5637125683397194 -1.2578440874253498 -0.7004839436662195
Ni 6.438208866186416 8.713197934860178 12.868692855611783 -0.2625443426599672 -0.48990905209500785 0.7022788307831132
Ni 9.03896943842025 3.336599183876613 2.740891563935263 -1.5406893464261981 2.2671260054024374 -2.067051242031601
Ni 0.4340337036094387 1.9618504213773005 4.303728396772218 0.4922359004559716 -0.9885210312806523 0.1499937875540449
Ni 4.232153848818742 2.794782869379233 10.365986216813136 -0.2636134073544299 1.6813171193843108 0.9039193959791723
Ni 9.242381393093948 2.2780117666452 8.780598587104157 -1.4895583320783379 -0.18803814392127613 -0.6897827551986314
Ni 7.682770302681831 6.7564741562429464 8.651307045453498 0.49710042763712453 0.28870608865699954 0.2567521614582223
Ni 8.261189743982284 0.04760611492038092 4.36485763979035 -0.5315023021557621 -1.0993972840079451 1.5513396270511928
Ni 7.639882904108352 1.3337631830142465 2.5924109433084737 -0.33216827360569245 0.5460799428596208 -0.8794144688592727
Ni 8.489849036119546 0.30785489774213215 0.4041971939977479 0.08258974707777389 1.838007602232241 -1.3198123015980303
Ni 0.1678663127840381 7.604556844229384 12.55562219605085 -0.1904336407366462 0.15019639048315422 0.6674882054664891
Ni 3.525889902130552 6.55573577333122 0.48751524513387695 -1.6761664284213067 -0.48018154039459876 -1.2136496522963227
Ni 4.452048235592015 7.538654678426563 11.439302166318145 -1.1490380869635244 1.4305054917802396 0.6371569014727995
Ni 0.7940002818804424 7.566933901393395 4.677241990723727 0.7773553002029774 0.78533060509897 -1.068138840214296
Ni 6.251040467784764 4.185609812577686 0.7165980824884143 -0.4431746241529464 0.41074375731775065 0.38293007753959213
Ni 3.8781214973554947 3.98539511898016 1.46897792643447 0.6362878686042848 1.3707314570454006 0.2836268743618793
P 4.870558685424729 2.7406131817208714 8.104650739189085 -0.5395264580118192 0.5128913719227941 0.03219586800625423
Ni 1.0455778721628515 6.661686390372642 8.540034091224069 0.06714924415298758 0.20186270850919433 -1.5300400942424681
P -0.4545154683137781 4.117061637608379 11.625245866727115 0.41915332153768453 0.9555281212943995 0.20415458986716453
Ni 8.632604905664257 8.133685177272184 6.746152882987281 -1.714168618696693 -0.9590307351310193 -0.9469925730195626
P 7.5436618832728675 7.698793358190002 1.0161685827811664 -1.5028118546541345 -2.0524383772144326 -0.7645072405957155
P 1.9957340387592606 6.27785887319093 11.73220251850371 0.6392011855963379 -0.04156702480850906 0.4164410648128441
P 6.661061638208332 2.1348148955727404 4.399376115621631 0.05584538910439414 0.2378419548172807 -0.22046386855014935
Ni 2.768561653541892 4.189762576963979 12.018890261667128 0.9608474766247839 0.1519470546256738 0.1575417751046319
Ni 8.824036318834139 5.84459324724232 1.9656513032945773 -0.18407993060447653 0.7415416329384777 -0.5913110467832784
Ni 2.270330990036925 1.440696865961273 8.157254871423943 0.5220550406999331 0.24887430137204233 1.5834820161116923
Ni 0.77752887481906 2.5909482882414436 12.363937207002515 0.8364395079596435 -0.5629530644658757 -1.566522248328902
Ni 4.988085592569533 0.7336685166249874 3.7570583092100636 0.13988318148260426 -0.3573316602451975 0.5216516346139274
Ni 5.231398997972583 0.9366504948091312 11.604726433142279 0.5529296187916025 0.32241247977050924 -1.263888750957533
Ni 5.5730557440634065 6.396359658709511 1.7486454765280517 0.3818774679053617 1.0093590510719261 -1.779473353441774
Ni 3.2122183779880618 8.0751238494 9.214596459339468 0.48335839546068377 -0.23830346783473155 -1.2263401032797978
Ni 2.064401651642333 3.2381639678705607 2.91742171923318 0.8040824317851766 1.632040641746686 0.8770490539508896
Ni -0.273971280360172 8.403449486808277 2.3505555992065394 1.0060688103564286 -0.9968609186049154 1.784995568811584
Ni 0.4365308747603109 9.206090642373029 8.579998017169853 0.12716419125403905 -1.4116760177785623 -0.4426426629088763
Ni 2.8692937525049644 5.5029273136196695 9.610095816955573 -0.8858406841005906 -0.38319027317951426 0.0760894840654109
Ni 4.605222766229771 0.9092753249741832 9.122606296910813 -0.3458611977117527 -1.7168384522193723 -0.07941134934979226
Ni 3.7187545702656135 1.852895481428096 6.436255596919767 0.36642668056793026 -1.0488553093943356 1.4055855886101083
Ni 1.5159427516332509 3.9811780418710714 7.909859445629675 -2.2865409195939397 0.3472483078672665 1.2608746467215575
Ni 3.962959166255988 1.9738309628811173 13.388024523466301 0.4879915233573209 0.43046874655050377 -1.4648112070406452
Ni 7.851278823940652 5.286570126600206 6.707990632032984 0.8913847538472713 -0.28301957979518355 2.056017867035575
Ni 7.010132722484416 7.26146684317338 11.231225701735331 0.6766457035960411 -0.16257290977063615 -0.08004615472031375
Ni 1.9425382294746758 3.1290069022211386 0.7019053815889481 -0.685450960592497 -0.3004840551285341 -0.3126957667033776
Ni 2.9978824479707766 1.8875784140790992 4.357852146771439 -0.44514974560144627 -3.6793985191144176 -2.0817751785053376
Ni 7.140173047979065 0.15874033741920596 8.161382829474299 -0.5637840450076032 0.02575782569039435 0.9076564944241013
Ni 0.3969114812580802 0.822306148689575 10.68204098671183 -0.7317570427478881 0.9315605547352085 1.2118653067023901
Ni 3.318674309280029 6.792314717904287 6.459626840384037 -0.8295636067754164 -0.8232726315603821 0.8315040183312389
Ni 4.689766434111766 8.597278845785288 7.3085419187540985 0.4941225759557231 -1.4868244780869426 0.3882062383368669
Ni 6.436499985266393 2.339329354065808 9.542686895932945 1.105610869017825 0.0921917889439122 -0.7058128120783006
P 6.5241122887789675 7.899798179524744 5.835515965796176 -0.6489911751035661 0.8890877302829785 0.2719980318736993
Ni 6.926434307530604 5.187133469624892 3.114566858446945 0.10710598705158328 -2.1170183179783475 -0.08496698906069883
P 0.6756272030542729 5.436409583184368 3.8268881448693874 -0.4668202885963444 -0.7190125985980261 0.9042865495106039
Ni 7.014064986106834 4.994250426426175 10.798101563776871 1.5939345789035837 -1.3096721278402348 0.07477770723252282
P 1.5261133493669359 8.092414784300448 6.82488359948165 1.6021381977602989 -1.7141760748958605 0.7249158514563386
P 3.7791534045034134 8.687968972460268 13.41751374437489 0.21073147175373383 1.1054144367363028 -0.3951716139111065
P 7.380261629710459 0.058743241002379876 10.491498926622908 -0.228489052847471 0.6872041958381778 -0.6995092384577759
Ni 1.663623138237814 8.0246383620047 1.0497940305187574 0.41610219341618665 -1.4437554148116103 1.1691646825100703
Ni 5.459948039727909 0.25500086464155175 1.55650386714786 1.567765890928016 0.8511670439778051 -1.7046485950213999
Ni 2.8592242176213887 0.7830294501245316 10.985914008159673 0.45102985853130706 0.7830405235132126 -0.009617982705738274
Ni 5.627105993808002 2.731609400529353 2.4280900990568917 0.01621466208664949 -0.3061366254286212 1.169593542517373
Ni 4.988315280865235 5.409085863527657 10.527482813780766 -2.2338980965872435 0.013581852449492737 -0.20278264922030237
Ni 1.246417317924687 0.8323104520971716 6.171446123298557 0.04989637060981084 0.7041197406465939 -0.3194225439042499
Ni 6.618982742435725 1.9359599566857701 0.2618327133089123 -1.0854271949810985 -0.8208000016501735 -0.6558038271500254
Ni 1.9303004370796728 3.276880226994091 5.624574828789367 -2.6821390795195033 0.8126472906360521 -0.27433002244098564
Ni 7.767800909750714 2.1777941694645 11.326442525342006 -0.47120659058949815 -0.1217982989564354 1.2846298401596263
Ni 6.665453278422155 7.928049839896091 3.2272115111783064 -0.1772222842526948 0.7013753451322373 -0.7906666725999028
Ni 0.9636894009791716 1.2235219886091109 1.9556341373424213 -1.9270497898035783 2.8657091603670968 -1.7119060479147614
Ni 3.921642835625111 8.056546660043622 2.2110172033080215 -2.115407521847802 -0.20589831203114864 1.1935109725649187
Ni 2.1196003428654393 5.765157847056737 2.315149607800666 0.4227973460481751 0.01590484415571454 -0.3404145727748847
Ni 8.363887974756565 3.326924712861645 0.35807854048033316 1.13921595866678 0.6355126810011572 0.5986304632628271
Ni 1.5797225975837845 0.5401304024069273 13.135451923486912 1.461218347483064 0.8271809654758528 -1.666953137353155
Ni 3.345841840895662 8.776656217196729 5.357614553967203 -0.8863235372742801 1.1493440482397173 -0.9844136939804982
Ni 3.067340188591064 5.462658361617193 4.491715404259752 -1.3691967655684292 -1.243272360258762 0.5739807830349469
Ni 0.12774711755035983 6.251279343612294 10.615021617038716 -1.0931052803516466 -1.4867959388418523 0.13318494352682222
Ni 8.395777897731833 4.516507958897827 8.973776550074557 1.3810307820888796 -0.37291203118195776 -0.05749835132678484
Ni 1.114162797259471 5.632342886950008 6.001625622494685 -0.41396149292409995 -0.41655342202099227 0.5935854446397519
Ni 7.76361139523711 5.689470959857012 13.1223275342705 0.8884521535815086 0.602795136163478 0.0517845887714592
Ni 8.035525587220974 1.3670312357637253 6.160460591491721 0.7025678227784415 1.1399083567481143 1.3850694709346276
Ni 6.165421858678884 4.612490103905782 8.382597464571267 -1.0462286704047659 0.07543410986959911 0.2431579677135554
Ni 3.387874799009129 4.111852307061858 6.985116910822919 4.058890003286106 2.329583757617027 0.7086109436487281
Ni 1.5525366909044946 8.15046161039026 10.65974652197781 0.15006912087667057 -1.6519620632609615 0.43793574435151034
P 5.206712099950532 3.822536929795609 12.268477832555575 -0.795073800528663 -0.3970585465211742 -0.5167503406575682
Ni 4.424366202194009 3.491124281693096 4.875462989914559 1.1990262459561931 1.3741232563357688 -1.4797092071984
P 4.810977541519629 5.241679846088205 3.2659112327445463 -1.1604933799883173 -3.1501970971776907 0.03788057709585734
Ni 4.638720507274951 7.075456073782067 4.170173840353328 1.179279659456885 1.7223820077454206 1.5493218252902154
P 1.7378400203450464 9.084714159392261 3.1322629635010104 2.345146130831658 -2.387301424043469 2.449281208180375
P 8.905704289253945 3.2996928685232145 6.782216701672044 0.6519661985714901 0.3465759643905902 1.0912777402246046
P 4.459719824668462 5.957416138091146 8.088272126199167 0.007400149118813062 1.0428111600827847 1.3296825095238907
Ni 6.175436268371492 3.1256075154447487 6.401522132843709 1.1880764318129087 1.2590710178539153 0.05550806036963343
