# total energy = -381170.9952657056 ev
CRYSTAL
PRIMVEC
9.22855454990342 0.00000000000000 0.00000000000000
0.00000000000000 9.22855454990342 0.00000000000000
0.00000000000000 0.00000000000000 13.50692242036988
PRIMCOORD
 96 1
Ni 8.207378211451227 9.227779505031187 11.465270278589491 -0.799538778278552 -0.5522845290084359 -0.44016977588835166
Ni 3.852995417201605 6.100388429956902 5.529950238049942 -0.1175760333449717 -0.6930377718008194 0.19747486385414378
Ni 3.970447232914657 2.1871490076500235 2.132877723148938 -0.23847110376084737 0.15953258028241554 0.9227491270911657
Ni 1.5267074902850082 0.38719324114534465 2.107336775151182 1.5014471130961238 0.8432354478355543 1.850436057803581
Ni 1.1052578540798026 0.5108604884512887 6.946880378713434 -1.5988520708098592 0.8130239572491805 -1.3898208695766838
Ni 2.163902278351589 3.21818159624856 7.43874850158466 -0.3567040539635276 -1.6982411488331592 -1.298457747181654
Ni 3.2432186651594983 6.272251804202534 9.464908140996334 0.750947756743726 1.5382331715762219 1.357831718264597
Ni 2.6802768282382945 6.6249025650922055 1.210775302850125 0.043792828815234254 -1.2983510464004608 -0.6300285179581343
Ni 4.732153681042564 3.3862428059562983 9.328164031675351 0.17362531093005582 0.7612892478790503 0.9684893094407577
Ni 7.693052400708726 7.246602609811397 10.331269168029774 -0.4203648253472825 -1.7248330403890744 0.2897656402697655
Ni 0.622454940493949 2.201859323847604 10.376342352057755 0.14805851820454502 -1.2302306965834553 3.1197572926305948
Ni 5.415454328408462 0.09210097594219037 2.834751759711354 1.2544450890461298 1.193216067032319 0.6897822409779991
Ni 7.659045176625864 2.6881210997363767 11.406258285537152 1.3893017638484202 0.8864004132588025 -0.5543596663699097
Ni 6.991488443584352 7.528285785030183 2.4377965534005135 0.8308010787269433 -0.4306872903192131 -1.8279756719175357
Ni 7.4260241703593 0.9915897457952377 5.0220761099007465 -1.0276372805558238 0.01763416814199544 1.6297446466236578
Ni 0.1278902339383235 2.1454636260537434 1.2966027073047903 0.8135191517180441 -1.9491401939447137 -0.6467265474391056
Ni 0.6940832906816147 3.351294269293666 12.724277699742649 1.1897216807258155 -0.21924156610727405 -0.554384091849942
Ni 3.73049558206567 4.807375630431822 7.80625815840264 0.7815510834518798 1.0357791929366678 -1.6077156918480764
Ni 0.7147109561551602 3.5997454190246927 5.212253550955726 0.0017295810965970214 0.7358263277212553 0.15507223051821684
Ni 9.204320518974567 4.343123957511198 9.850503919322481 -1.2348383705587958 1.470649668099293 -0.030242343824309206
Ni 6.442813952234954 5.255837246254542 1.4710925282190748 1.1953595957378833 -1.297792088573197 0.27962598073260225
Ni 1.2476452246020528 6.474606323188947 3.0683135592835504 0.7894875646901371 -0.5041069408619447 -1.5653595954793686
Ni 0.12457902851066238 6.154919959700629 0.819443054920204 0.14480015916824737 0.4691589640318501 1.2649228486490023
Ni 1.870378867448051 3.8918291753944647 1.2633088505005177 0.331213623001907 0.9644794169504164 0.5121948600764018
P 6.279828447614211 6.897135700294476 6.45287861399473 -1.0726290147751656 0.5877346422859296 0.2172006244178453
Ni 2.858701704878205 4.559238251560718 3.6621996629814837 -0.42373708425362505 -0.06494812273661073 0.17638153351895428
P 7.4299463061083415 4.079205750096893 4.739389790785677 -0.8439116479669725 1.0880664323761582 -1.836288305548289
Ni 8.952565546659642 7.758713567425027 4.301198633492623 -1.6781986283599872 -0.04041259948909169 -0.462204644201204
P 8.71916616965023 4.112686946561649 1.2774811419588765 0.20332000978101114 1.9864448439324436 0.6816375003836778
P 9.128627913295425 8.372864654396654 2.1637278586676905 -0.2616467705463623 -2.783561385922748 -1.035693832311713
P 5.702056323284279 8.617439811152158 0.039110614833968216 0.572589302004059 -0.5412460118060872 -1.1960113703892692
Ni 2.5554144830982306 1.7748171834920008 9.279836859258872 0.446940776063598 0.6724452923614483 0.7155158982986773
Ni 1.035683780169164 5.269809278075831 7.455727196528391 0.17321110621077268 -0.39991684190557575 0.10431582590095584
Ni 5.323362581020975 2.1583928311935243 7.301599258712188 1.0643089249452444 0.6470525633199566 -0.004794078954533679
Ni 7.832025205990635 0.5618399474895908 2.8972890606604778 -0.7921813094722163 -0.09091780732749503 -0.999960897686478
Ni 5.96603913058151 5.870043704554389 8.67066088612797 0.0497575310391014 -0.5144350622608301 0.5627653739351017
Ni 5.02793808784849 6.516448590215189 0.25453645870259817 -0.7556132805401954 0.3070786776269163 -0.700841069895322
Ni 5.915918849986115 4.747703795718174 6.270480844554908 -0.3837618294122681 -0.4214133212164549 0.28624785692449417
Ni 5.8329356860911075 9.207190599487395 6.601981603774809 0.820017100737562 0.6051014156991513 0.5232608880825762
Ni 5.413996216765288 2.6500994543574365 11.69130896036729 -0.6383470651261587 0.6756694557257009 -1.2324199909252904
Ni 0.020932207778765154 2.5575739648988796 8.376223848308774 0.010143259081588984 -0.4330272513062994 -2.4597679666443124
Ni 1.8085106367149406 8.856256349772599 8.876628384280854 0.09949757857670606 0.09130038747789436 0.3433877964705957
Ni 3.9311705040960234 0.9711023543531874 11.968659329152723 -1.8205906923073742 -0.9027300036567615 -0.7599270774242008
Ni 6.390128133431952 8.01496284588062 4.562625131136949 0.5042802332150154 0.1483256558230026 0.7792823420223611
Ni 0.11998228541278612 1.2781271407881305 12.747333397958718 1.3281089943891837 -0.6844302326374664 -0.454384891046469
Ni 3.747134666196308 7.420182495231905 3.3539853158452435 0.5751889444104352 -1.683131032664598 -0.4071125883230666
Ni 8.03497035247808 5.766471635115591 7.037119955171903 -0.4088339418895475 -1.5433159854157679 0.22624370845672004
Ni 7.225321562664836 1.4373566236444983 9.575732931576711 -1.6099252979048857 0.14991922556236761 -0.2382181072097768
Ni 8.352441862837528 5.42748836374199 3.314572004416996 0.2944967271968476 -0.19102448024310972 -0.3749028363597414
Ni 3.381277843525748 7.768726549278462 12.296094910025678 0.4494483729768002 -0.4237265427306638 -0.30769497105467647
Ni 4.057380218222817 8.505589728144207 1.3894438133342115 -1.9440964608732196 1.0230463187510317 -2.6145578900354196
Ni 1.9898517366411972 7.897206487862348 4.730354112875356 -0.2517901894672567 1.0615907546831331 1.7447277224304727
Ni 4.435870932282642 7.360178432548927 7.756498714296158 0.29553365310179425 0.9611102433678675 -0.7448321307642914
Ni 1.5696110411021669 5.428263562337095 12.670006415241563 1.516804826499117 1.5950409245938852 -0.568602549442169
Ni 7.3539953008974965 3.0391660921076173 0.09774977427628004 -0.02292344156539278 -0.5998825905023734 0.6563581569915986
Ni 0.30797348185847584 0.9117793590073368 4.336532923741868 1.5638213044579712 -0.9089721279117313 1.950195888902738
P 7.011735892604109 4.916300261598723 10.380272793506029 -0.08312633630753426 0.07236678379818505 0.447872543849248
Ni 4.184318988171196 8.421129995496619 5.355264771775941 -1.3263421322967481 -0.3732079651558218 0.6770056580386211
P 0.1875371515542713 7.3874303545887345 12.190065276469303 0.4148917180478532 -0.09009119766114161 -0.1146280064602413
Ni 5.771778054070177 9.045783177720972 11.121802852485397 0.48072635715447537 -0.7767752593297912 0.393690915600522
P 3.0218994662571323 2.9090711564505973 11.427666686738624 -0.5446349828829781 0.4185480838535179 -0.5541076982601038
P 3.2708674150515624 0.4707781068070287 3.430920084987494 0.6306000741908881 -0.6827003944305533 -0.3832023573643723
P 3.9458900488483075 3.2417697820710285 6.151795171077981 -0.17478282157326674 0.472090021635716 -1.1483464602131384
Ni 2.527535019338576 1.6999366906267772 0.25195154053011243 -0.16352833170536996 0.8796342981795625 -0.45023795875763106
Ni 4.770212240640319 1.0909443657344784 9.335511806930379 0.2929520084175471 -1.7809270551691652 0.5443480477701786
Ni 5.3096766343954975 6.519429413384461 11.249943180256189 0.8754009768245052 0.7340941755214969 -1.089891144289723
Ni 1.537403385186511 9.104984356144735 11.230411867081434 -0.06618302358497635 0.0812075220182666 0.5102688466982825
Ni 6.613422243040894 8.345529675364512 8.505471602644 -0.3736000583879179 -0.23036518682426135 1.0338405811530584
Ni 7.0927626029019475 3.643396482772845 8.55924269948015 -0.3017963461820544 0.5026429547219086 0.2575263206200855
Ni 8.289401605657057 8.031777272550626 6.454701253548696 -0.483417016612761 1.9329648697364321 0.5329084384746693
Ni 2.2177232093831374 4.327195472092739 9.602260412072287 0.19141168837919936 -1.6723462833442684 1.1054355197822252
Ni 2.1393450942852392 7.301964709478452 7.318631479273201 -0.04821589758359438 -0.15249084294428578 -1.7081334682462066
Ni 7.710162141129249 0.1782126198817273 0.44770210577061115 -0.3260058535487224 0.09640659835620816 0.6537659707843902
Ni 4.60635002332273 3.7966920049547817 0.3264665826290726 -0.7751765473841037 0.4877500967704762 1.0444160426760594
Ni 4.944604238874745 1.2681787588176214 4.824983712806341 1.0072499751487236 1.4250961478392101 -0.007090331187878111
Ni 2.6815134545685804 1.4253041312015624 5.189021587344817 -1.3267303688741021 0.566104979831296 1.8975055004875578
Ni 6.278684106830961 4.693126123200928 12.49613213892601 -0.012021707051224458 1.338580840454785 -1.060298775344587
Ni 1.6150616730175262 2.358071069315886 3.3957482173010334 1.570082711986651 1.9722099312799841 -1.971719621907127
Ni 0.91545232377938 6.941137449121367 10.047462502373685 0.6951237077955706 -1.233268969189147 1.255191480293851
Ni 7.809175304544456 2.9310997165281534 6.335935291645848 0.30284227094806554 -0.337299938405303 1.8063534656620697
Ni 5.992017512072217 5.797295007825704 3.7965258909701163 -0.6827088790709855 -0.08208863907163927 0.5618652307183356
Ni 1.6740598232378092 8.741416215040672 0.17877094744129668 -1.0404061501857178 -1.8245854152890641 -2.102829428072475
Ni 8.522201126610733 2.875737616861099 3.1426421845774977 -1.214732086727224 1.2574792478867634 2.8993967824275293
Ni 6.491393064194844 2.1975403602463066 2.114332942472001 -0.9349448978264091 0.9290637564552838 0.6033530655494771
Ni 8.760731580035364 9.092442750302506 9.1247768374176 1.2216175009931478 -0.03753862037540632 -0.11885387161613077
Ni 5.388922233635536 1.5537840697854475 0.20164207456329372 -0.13728071086275068 -1.3622434741790477 0.585723782503488
Ni 8.623466057373625 5.071930608120677 12.08933098760187 -1.3393035775534223 1.3547057710411057 -0.509002321281033
Ni 3.3881531167799492 0.611389903404301 7.365973042047334 1.1187291515673379 -0.5244891040627225 -0.41884221805516897
P 0.8951993376268017 5.9667128150748745 5.136548025299997 0.09617159952726663 -0.6338982853261858 0.734347943403516
Ni 7.4944077607131705 7.037502017336633 13.201611771811134 -1.515863288521454 0.5022002107575352 -0.5325981063231021
P 7.887248877337135 1.005284920975419 7.46468166315732 -0.39496746832010043 -0.1932770237227123 -0.7797505399080312
Ni 5.167058550005657 3.5603671761043194 4.213444306815841 -0.2312177646325437 -0.2978293911145064 -0.32729808999758475
P 3.458557760613914 8.404878510663533 10.016477629956258 1.891997169074819 0.2775395305172188 1.641795921361237
P 4.329908667175605 5.3555886940460375 2.337143475814473 0.27682502094869743 -0.09125462184162347 -0.8700214576801468
P 9.18060313338625 7.186718518339567 8.219934582980981 0.25526503538973455 -0.697919782483469 -0.18202099119291879
Ni 3.739585708448742 4.990599355517618 11.897491483844767 -0.4300008057751497 -0.8894371432025973 -0.1196516849270778
