# total energy = -340888.00536258164 ev
CRYSTAL
PRIMVEC
9.08085153360907 0.00000000000000 0.00000000000000

0.00000000000000 9.08085153360907 0.00000000000000

0.00000000000000 0.00000000000000 13.29074412597462

PRIMCOORD
 96 1
Ni 6.121937625090071 1.8351946415349762 11.438785136475163 1.4789322198230594 0.1677534255303111 -0.48265622718733653
Ni 4.919959824886526 9.342561424597413 5.935845555766001 -1.6125506513428742 0.5043501672210025 0.05164754897296266
Ni 2.4101941452436018 1.6644383138701468 4.70824613364657 1.3455804117010697 -3.0083223391863547 2.157150924333175
Ni 3.792808239315941 4.289194813403506 5.134612987689186 -0.042210829040095044 0.029526291593891085 -1.1869508028488978
Ni 5.030028823377559 4.479347839424646 2.7812740523748287 1.5943112455167123 0.17779589736797766 -0.8289275158533144
Ni 7.509755046951813 6.197635601446911 2.56761251853308 -1.8129259766732646 -0.9415942848221267 0.032749683627195214
Ni 4.640759971111645 4.726937249857616 11.45449500920757 1.4330639965360352 -0.053902663555726524 -0.469570597647972
Ni 5.891066061882742 7.964042794457048 12.572246097522322 -1.563061029253179 0.05013368343159753 -0.2843110449130975
Ni 1.8748143957150256 6.509862511365005 0.15762269244351249 2.2760299927602863 0.8020985685859283 1.5285128589646644
Ni 2.686769632995554 1.9458084911034343 0.35078420449716513 0.1677426268970337 -0.2542970150495104 -0.020262092683145747
Ni 0.5077648807544458 0.01921326516024495 4.819224125351774 0.2792647407384416 -0.17905625213764 -0.9475695285689553
Ni 8.84957108889246 2.4629357295382905 1.1886525590200012 -0.9326507024755939 1.37193421910425 0.11540499383558189
Ni 6.995778863914729 0.5624052710539589 4.862577925582438 0.7953640780755721 0.3671594449688967 -0.7709830781280465
Ni 0.6748062321563694 7.143460748450632 2.2903804852328316 -0.009914430900234538 0.9916845166102985 0.7845700727838617
Ni 7.840243548814918 3.644808524984873 3.577642008415372 -0.4449016341463822 1.0821531522155168 0.037965680610495905
Ni 7.411327699815083 3.7134506798890667 12.636440451464475 0.999823086557033 -0.41723322169683624 -0.12249712479567293
Ni 8.048739894442681 9.079670779740106 7.167166310744242 -0.31608319511837174 -1.4681099323965747 -1.151598648601849
Ni 7.110061377404513 0.8020507527780804 0.5865258282515403 -1.430410103852956 -1.0046372201162246 -0.39876241658615835
Ni 1.8790369915650653 6.573010751238502 9.015643513461699 0.30178580465909316 -0.12478257839573992 0.021011312144344457
Ni -0.10129507997424157 5.13045395779818 1.2045930853751832 0.9944913899314743 -2.263375280110753 -0.5188298488944162
Ni 6.687829034954419 2.0222056930096355 6.975155342549084 -1.5958119984319548 0.10639996212349417 0.35455743993417
Ni 3.481271474095918 4.4583892346463845 13.507249594043264 -0.43643344877437096 0.41398026197717736 0.7162430062726891
Ni 6.175678103026706 5.4557118893180085 5.011673698664258 0.05059622489031286 0.3286872570356275 -1.8789300514782157
Ni 4.976569851830928 2.802995448661484 9.452496934574478 1.4273435491124902 -0.43600947386307487 -0.21933798247582223
P 0.27002546971618097 5.8007025106918935 12.382188420439734 -0.5038189773078806 -2.157670801392387 -1.4596196355373767
P 4.059685377889737 6.521985447837699 12.570996572384763 -0.8912888516993553 -0.8092817165979287 0.7663260389720092
P 2.178668760743363 8.497570050322382 1.543586712556883 0.32838206709038287 0.02714030786021777 -0.9743905054165413
P 6.353599222359667 7.7386288228752536 5.806419814664334 2.0849687457419703 -0.06320465768294276 0.6082186211718944
P 4.819144213860417 0.9874880927241121 12.780219386115762 -0.9919141161226014 -0.4306613221772841 0.7068929325163568
P 4.046354688195419 6.139590799998625 8.14423594278287 0.043731122339363396 1.6518373647576392 1.176985978326702
P 4.584231671828857 0.8057511996789216 3.633756220879318 1.0476381491577826 2.3586901880646796 1.329783553878129
P 0.41781178404192365 5.363305146586818 3.7182054136247236 -0.6933157080525544 0.9752163437519461 0.22702429537648644
Ni 1.44698824887004 1.4634064280030976 2.4282060137781256 1.0286880904178413 -1.03822302649147 0.6016527950289187
Ni 2.3137101002830183 6.2905054675939125 4.9827929592202445 -0.9594832492874055 0.7702641976841509 -0.4546877669988685
Ni 5.8574033461492006 5.4705500003265355 9.241812103785724 0.31932715597696615 1.9317747060830732 2.0941041323843357
Ni 8.412019350315449 2.298735776505136 10.346817309229264 -0.27952827881247344 -0.24703159173634875 -0.04419057847428518
Ni 2.7019255737992447 5.024135350890084 7.022124229678461 -1.7763895723101277 -0.23061047006584798 0.07298641966005494
Ni 0.5718212057569828 0.07501328016954316 9.1603922830308 0.16895644469947677 0.06121719493926876 0.8235235712289236
Ni 1.4595652279072553 1.2419335458813403 11.41961999982676 -0.5171504043094641 0.08280314864016063 0.010013932592576302
Ni 4.261770642506474 6.699261826729042 1.6259364124839464 -0.174819331238157 1.0324580989832348 0.12543640992965494
Ni 5.676685324618793 8.05872883086213 8.142946461899632 -1.631348757885984 -1.981995549911838 -1.9273125565466613
Ni 5.525661686808021 2.7068292334960646 4.735598565818407 0.08393906201681674 -0.2922902064638321 0.4722892821307157
Ni 0.5990873698415615 7.460382458485867 6.568710968152494 0.9608767872008227 0.20821281909693817 0.6583656743399307
Ni 5.12802028965235 4.410460501535612 7.386038437056427 0.08263397005214801 -1.3019194804780094 -1.6103415595066977
Ni 8.436619376461163 7.25738910874009 9.707360106891064 -0.27531501206207426 -1.009658841700532 -0.7746726111644916
Ni 4.498935235658056 0.32633764473825816 10.011863752786667 0.7618512910301072 -1.0714360229083288 1.9514295041995233
Ni 8.120914500498845 7.1265522033478925 4.6063326476994515 0.45739745262054776 0.013937436016698578 1.063782620128129
Ni 7.061506065554702 6.1401265702247585 7.209829966276836 1.1068120884147776 0.25138241250587673 -0.09074554341568888
Ni 2.3074897171490893 5.5441957042917425 2.5876149096704615 0.8501159770054715 -1.8239768351707877 0.004383216669360194
Ni 2.216653961691139 5.303507740839483 11.211340686544833 -0.1518796917228481 0.6230006645770755 0.37741043327294355
Ni 1.0918997208612218 3.2550493067492776 4.115252923106001 -0.3684105437671784 2.4241376190352124 -0.8021641317165411
Ni 3.4974807936492964 2.882253118724164 3.1552761774513085 -0.2876948737836658 -0.5249914976204377 -1.6644226576218173
Ni 1.3042917516925712 3.442941200799107 8.33712412121268 -1.4862542074057694 0.2518364693241598 0.5152917538341707
Ni 3.814275371766465 2.4380451161512826 6.638102293288145 -0.5058354935172772 -0.22389474860856926 0.7990510400088561
Ni 4.478512401105928 6.748906840733702 6.054053721268628 -0.9372568337890375 0.7962133134497449 0.8355257378961224
Ni 0.7051925767443322 7.817314399306638 11.755237366498683 0.40260210204722274 -0.07375003729895685 -1.0098442182384608
P 0.09607994707816034 5.913795432662633 8.079801854366652 -0.721523537945338 -0.7821938592422014 0.7416555328085227
P 8.539460017325032 1.8415966416947138 8.125043563580592 0.6371448172879414 0.04579983194293403 0.754490736899978
P 1.8712637828604761 3.152108776521214 10.409323532916527 -0.07906964973965737 0.17493323110820194 0.5133397723141223
P 4.245697535722452 6.1111041695006145 3.9179114952033736 -0.8458235202777045 0.19627415867782325 -0.7983334451165413
P 6.622119995017027 3.8879301565829634 10.578222826492468 0.4247590977602362 0.30262321295872396 -0.24565373755221565
P 6.346525239204439 7.703267987950405 10.180124662516892 -0.7675208306110588 -1.4863624508488595 0.9960690188312393
P 2.599357358474088 8.489933054387148 5.8178498821835705 -1.148317920968048 -0.3710659791121545 -0.05403636092011339
P 6.906441448919696 4.029900185657199 1.460227221966326 0.4575175231381798 -0.0992399540399452 1.6323851695702987
Ni 5.280778370059592 2.8838967528077277 0.5147653090142212 -0.4759623601069286 -0.20361003021760415 -0.09403372724865741
Ni 1.3424131654097031 0.8484702484043872 7.094705657872433 0.6643123788416687 1.0012832160423273 -0.8480680933375073
Ni 6.922033270585327 0.41238143497025975 9.199666964861812 1.3160132395669142 2.977016329984221 0.9583740753836268
Ni 2.721458484924912 1.4085853287629055 9.143553660482997 -0.8709995053227 1.5829150878646288 0.22716673449162167
Ni 6.421187998514172 1.9809695472998936 2.60114447000804 -0.3342174428252373 -0.5200210409890399 -0.07345795997983477
Ni 3.9604498349881605 6.958465645962444 10.417816853128445 1.3617336244221645 0.06345714001338104 -0.602443409251014
Ni 8.252396146332659 7.234977567755363 0.26663649601460077 -1.252367637691811 0.9982115190955388 0.4639617361016268
Ni 7.602161789683005 3.9440861409628454 8.503152049610595 0.1699190657230622 -0.40517937585609576 -0.794713846086083
Ni 3.0378716672878836 8.714021221680543 12.505340201384856 0.6591974262126067 -0.5772594537862188 0.3524069692500705
Ni 9.143781589850386 4.566024564991589 10.18536158945607 0.40538969209468895 1.271346492787159 0.73068103607489
Ni 8.762313188842931 2.145360198210147 5.774615949189939 -0.26890062389529823 0.858567193096618 -0.2608962655335829
Ni 3.728869965380179 2.547778123144571 11.53162049538726 -0.41574095342202594 -0.367036032017155 -0.08209352416764572
Ni 1.2339878010022336 3.649467001696853 12.643178443121958 -1.205616240468885 -0.19621193798132014 -0.6074408624656055
Ni 3.1975675180809957 8.51713020400192 7.9294974199780786 0.3815383393983881 -0.835619068940877 -0.2875989716357499
Ni 5.717104193712399 7.924205099846029 3.5580119321808974 -0.8761278276882007 -0.5863398188209321 0.16507279337435443
Ni 2.956770584413251 8.431325240158856 3.5989738361816688 0.1808521676957982 -0.48174811355077035 -0.0036759061896904435
Ni 3.4438038816716956 4.375798892160125 9.3326142600939 -1.0220682711084785 0.6573729714093581 -0.07404262883871118
Ni 7.406950729493107 5.897840376945386 11.543781571435376 -1.120780891890044 0.4554549841821962 -0.9002522315402303
Ni 0.5779825633575245 0.21191346996834493 0.30687556425265605 0.11955141190378765 0.10147604245931556 0.6117492600329723
Ni 4.14970385673155 0.48429269633899963 1.5815183364820455 0.41516451209326566 -0.6090588576850027 -0.3973441960823931
Ni 5.901218453625418 5.548672563977913 0.21766891351620543 0.3978532745083277 0.49719195890966633 0.5491187296859446
Ni 7.703059128370726 8.864309310536793 11.439197407123748 0.8842453145890126 0.8982069189754271 0.575830434649176
Ni 0.1924268711842587 5.170037388573068 6.033771639911501 -0.3267419603837986 -1.7076192476139496 -0.6040331223356371
Ni 8.005233535910339 -0.41687373210362455 2.6544136517627015 -0.5285501615059736 0.5572477865509823 -0.3413172870948122
P 8.586144673809018 1.5366434936602371 3.3759681063620905 -0.5577483803364846 0.5354679716717294 0.9217373979971997
P 1.79564753416525 3.6211801499272323 1.483898277025032 0.43309101466469935 -0.3253113985848591 0.6235871332081647
P 4.883018921837146 1.1739179697161854 8.097332437782784 -0.08964922502771656 -0.6867164575684819 -0.935478401732376
P 8.426040184707839 1.6938421103484875 12.455154876728418 0.8596933362812613 -0.09487499220303015 -0.7196702867866831
P 6.292285314446833 7.702904753898789 1.4094834249555266 0.9011158650921062 0.007708167277535113 0.032171185415905884
P 1.6066114528528295 3.107430988172408 6.324613145040685 1.4788782266566725 -0.30744223161392215 -1.954600445728337
P 7.012360498371014 4.0423863561815105 6.265376027817967 0.7026030468917512 -0.9622757244308782 -0.4234293232052191
P 2.2795206951746327 8.253186180394925 10.376230186558896 -0.1864381464240079 2.0007687167542834 -0.6738971943166265
