# total energy = -340875.16309745196 ev
CRYSTAL
PRIMVEC
9.22871199073102 0.00000000000000 0.00000000000000

0.00000000000000 9.22871199073102 0.00000000000000

0.00000000000000 0.00000000000000 13.50715285093850

PRIMCOORD
 96 1
Ni 9.004943292563294 7.951568891094411 2.028422879561006 -0.11996253129927728 -0.059719527347819726 -0.1296368211642477
Ni 9.038332772106266 0.7571410563064099 13.744473783501736 -0.7817071494137698 -0.6000695097021989 -3.118503622729152
Ni 5.600683744367315 5.211573565823826 0.38435185470370115 0.9391656207759761 1.2560594847211013 0.9299816402838629
Ni 5.669409961657673 2.9797572596338866 8.63202950335035 -1.0740852876057179 1.4745775423987895 1.1543751829057216
Ni 2.330840384547068 4.581095657051783 0.5937540956307071 -0.30728590854171595 0.9377689975387656 -1.2930502030128377
Ni 2.6240181032096297 3.4910555833263417 11.792257915072307 -0.6601955284598178 0.5999849204081925 -0.3032114813620262
Ni 7.946391583735757 5.564987086857029 0.2525215513937363 2.4977447029984017 3.001576535822089 -1.780500766265024
Ni 7.72409960094096 1.8597700158927053 3.5907413603244964 -0.8946503119724205 1.4173093048049399 1.2620864076414717
Ni 1.7261474967377308 7.546899104339353 7.332938802620121 -1.7270308193713417 -2.196820732118971 -1.755294185092409
Ni 3.622315552242786 6.764645800165507 8.174569638960767 0.8306203301747049 0.6387586987422806 1.6888897895252462
Ni 7.650260677275033 4.522853256444901 2.080074134150865 -1.5194317225990026 -3.2597039803612833 0.7657400845615523
Ni 9.132788638088112 7.36566566065088 5.38603128925789 -0.43060630056963256 0.8293044395767589 0.5913766099138912
Ni 7.337176627110484 4.433906931449 7.476451732285377 -0.05423716407700981 1.0938652984461226 -0.4162587735987089
Ni 3.6067374866074804 6.910376389292947 13.515662638642494 -0.12828287823951456 -1.0124322906806111 0.38248939045774766
Ni 1.7271072827721334 -0.07967146956729716 8.704427825093486 -0.46260522207373234 1.78254453616793 1.5131150363523553
Ni 5.80598566861081 1.1485316495527935 7.24271060954558 0.7197805871123024 -0.8738745128776498 -1.1505270128042249
Ni 7.269317908735835 3.5555550505805797 12.98226431863673 -1.0263175333031358 -1.5317948721500456 0.918712752238263
Ni 3.736733121997837 1.591878967751908 7.919689228813248 -1.7263481914820202 -0.01328797535815776 0.17723462554786892
Ni 4.304594220736969 3.321090396830232 0.4397222801768703 -0.07927482377192799 -0.9760352401088158 0.20665987278752151
Ni 1.610853199355101 2.5073579564703503 9.320746121244525 -0.3620169815360088 -0.274095023612044 0.7848258975484097
Ni 1.9409457654946913 7.047025925941038 4.055131064456704 0.3439806928595882 0.2791665245976805 1.0544235475107324
Ni 4.437349240976234 7.382683405337791 2.3726796726775325 -0.17536029134329154 -0.07051070442605276 0.38250867373145736
Ni 6.9672252544075715 8.165056682765936 7.239374430204844 -0.9150556151016498 0.6130921472141119 -1.4395966554482302
Ni 2.594919974685862 8.296999576360706 11.740309495960258 0.4415314321225687 1.9842200683669826 0.39050120501863067
P 0.2257333694508435 9.026104728879499 4.078660588238562 0.8357617651663284 0.38592309872964503 -1.3712078824611869
P 4.933374046525068 9.618348084377208 11.771118627664586 -0.6581358177173117 -0.2631994597454629 1.9775999919473037
P 1.3517017413544903 1.019255853688239 11.779479840618134 0.744125334505254 -1.0813980192170471 -0.987644285102654
P 5.215624970334429 4.911132850920158 2.542802670146606 0.9372753457317987 -0.7442212366531699 -0.09539769747571958
P 5.064089521441226 8.708452466339667 8.36208875830339 -0.9516136167313416 -1.312809902138268 -0.22956943039584335
P 6.948454054465501 2.7026190422000935 5.861374551507718 -0.686438778427063 -0.9128956313358537 -0.31243479973250704
P 2.7648943898938407 2.1617334682547997 5.949738544784668 -0.4142304303147705 0.3599714118608897 1.4708800389425445
P 7.010692487311773 5.857361907586965 9.184364217240644 -1.1896100948486157 -0.4236126428606188 2.0697827820301518
Ni 7.496694911770594 8.196231271460286 9.655884947034226 0.3213832671750465 -1.3857289588954973 -1.5984892881538018
Ni 5.319734068931519 5.762223116926793 6.9092191088245425 1.1926535096606297 -0.12088170067943696 -0.46423555858830373
Ni 2.7536538188370856 4.239891721821607 4.989879603558156 -0.8890576483759914 0.07114550979657426 -0.9419454975139584
Ni 6.847510404039568 6.636182130945447 11.76716135601505 0.12269612818035643 -0.1737952608490168 -0.12052945954634083
Ni -0.051787839525523544 8.046338533279812 11.320115170098736 1.555069012186638 -0.1548572862939333 -0.4079800785296845
Ni 4.752851213650528 2.6137465468991468 11.61675919293939 1.3552855548039755 0.4353127049063664 -0.25960608596724966
Ni 0.9423068541223728 1.960529092081255 7.051827624726613 0.1149229119928408 -0.4639650785357365 0.4915126491367019
Ni 3.401463248499593 2.0031841983409615 3.9917962606403665 -0.0027621361261694365 -0.7349863483184632 0.10466138216583266
Ni 5.826261148587568 0.960616618470979 4.8556996702062785 -0.1672345769123636 0.5605701660559959 -0.1665365224040745
Ni 3.538075870300207 1.0678173355442704 10.327068858119187 -1.7789218518136782 -0.12356104728381302 -0.6827646720095855
Ni 2.3668877331083866 -0.004892140161893227 2.7049695951131936 -0.25821871870141977 0.0020527687639706584 0.9690958326765052
Ni 6.139991208582965 7.959302551640848 4.193011711268154 0.3350430240503262 -0.6257689713508319 0.6316537122663831
Ni 0.15888058066994454 1.1416101156508507 2.2675406498358335 1.4868558455455103 0.21281637930722058 1.306353862100279
Ni 1.0162657510425996 6.962666270744158 13.543216803670536 -0.531164202090053 -0.35506009060220145 -0.37915929764325024
Ni 3.5632887111270173 9.148431304706504 0.4358702158426424 -0.39867525618899086 1.0705327943677692 0.05560704784134294
Ni 5.915465877515809 1.3275132875451672 -0.018840415281088516 0.5051441238772075 1.831109589560827 0.2780046430790954
Ni 8.352907112864667 0.6729382892113075 5.661009988114276 -0.6262394832293473 0.38196025742715506 1.1884001337009145
Ni 5.2160494910804145 0.5458792299377486 2.2042999788805617 1.07352530133719 -2.0543970436027004 0.25002615558829844
Ni 0.1916535822600506 3.20930300995792 0.6736692031913526 -1.5031607533531208 0.5403749220550436 1.4854062575831775
Ni 8.896450555828306 3.5745661970312494 5.718617453344552 -0.16946243780161782 -0.33833480742772054 -0.9462168711958027
Ni 4.697220538502646 5.832139838048285 4.485765832055917 0.2736124275486707 0.5176029184658506 0.6374667194037344
Ni 7.754951184719887 2.2181301264878304 7.824450768064888 1.8719919295974856 -1.4043715136973491 0.4255103741039639
Ni 5.219307226370263 2.622043158869609 2.879616507140577 1.7674380195437946 2.9964448710224785 -0.0911324944414624
Ni 0.994495219743022 2.033906580153719 4.389365476483218 -0.18027495503608953 -0.3134796960572537 0.501100292825137
P 8.779476632885471 9.418915620882562 7.867929998294519 0.31426413963176203 -0.6454307114458174 0.9578541983244149
P 3.142487136024498 6.15236691119964 6.104624938957599 -0.9804655079660276 -0.29645179404068944 -0.1421848330325874
P 3.598745422128703 3.337914338567888 9.519989396145853 0.9950752874594022 -0.18277149620569813 0.4538513871405022
P 2.219800523336166 7.266586210022536 1.8359460962022178 0.14664415435552164 -0.5131076016986583 -0.776098802088057
P 4.365799037853883 5.3351737038887865 12.246408363385573 -0.6311513187086679 -1.1628153432532748 -0.9355005132195632
P 8.159381024966343 7.997490961355834 13.218383680425235 -0.4172370783515782 -1.2625188671932 1.2957136087776138
P 0.028117116452065823 4.065072232882268 3.5268657539926203 -0.11850574424809268 -0.9798407298978351 1.223077887588758
P 7.363635344039643 2.157857409269712 1.5147998433486853 0.11651828150441867 0.1325043725200299 -1.3269124029779211
Ni 3.114847143976073 5.281868664131957 2.772153694650198 0.04424945673667863 -0.27035766805679895 -0.5543604377008582
Ni 3.1731080020066935 4.24755155267309 7.3240506302188395 -0.1081763372976266 -0.372222718424417 0.8084993299059495
Ni 8.894263351115292 1.1465105616534261 10.169792227572119 -0.20172901114480743 -0.9866394979872234 -0.566279043515315
Ni 4.34657563103022 8.03890942022506 6.128100936210615 0.16767423555294347 0.6772000334376144 0.10481513413487754
Ni 2.293307213374799 5.99396530067571 11.55419406369295 0.5420985896143696 -1.265670268337988 1.7903614611091876
Ni 0.805345387013101 5.619445715597515 2.3448145000594973 -0.7142578575218602 0.05898547739527261 -1.0050236569213657
Ni 6.613811733374368 4.356321150764155 4.431494546166377 0.2378800071440677 0.008526292303456284 0.32507151465991113
Ni 9.222353286779253 5.487844284341907 10.741198074540234 -0.2576399633798143 1.7838632549793534 0.42686020326363905
Ni 4.4872027424939605 5.693875276823074 10.166590787424676 0.3366846734188072 -0.9272891810533642 -0.8211319310682955
Ni 1.7459153975616795 3.1550289554548185 2.349569132414539 0.469350768327682 0.12584778643546068 1.2117807174083841
Ni 5.737785487897 8.30439177456798 0.09908406498427962 1.0544220048488355 -2.1824138126650223 0.19616720078631375
Ni 8.432061774567284 6.574202102031516 7.829623461067607 1.8178781784722178 -0.0789313243895802 -0.354441483181596
Ni 6.304133077889574 4.3191571280666565 10.924747002036703 0.19737536216180201 1.8691655158922842 -0.8089433594219037
Ni 6.022352818385545 0.7987653154503206 9.836840606495434 -0.016725540284797002 1.7035036827836791 -0.5163736740444397
Ni 7.204883042464682 -0.03983388904127473 11.687509266742678 -0.5679564312177381 1.4233776224862067 1.3433080707271252
Ni 7.91802252344966 6.256162233593175 3.451456103566546 -0.21523218783756481 1.4183048359489896 1.082908799434619
Ni 1.9235773297567493 -0.060289328899483255 5.77032315733444 0.195071910839606 1.033444117045588 -1.3457380203248566
Ni 0.7873226356036286 5.457075758969805 6.267143477846404 1.6260823672807223 -0.21844169591379797 0.9688271523961508
Ni 2.0623402414229 1.8826295351928553 0.13199180576767686 0.2418765298979705 0.10082375358729734 0.09495881016608808
Ni 2.13377970000282 4.982683054042509 9.413445763357652 -0.7703433876615184 0.5952569188049038 -0.7477711587879573
Ni 4.784182690446657 3.0584597144549117 5.858605937946941 0.459611429552731 0.3552760632677494 0.16067877807171682
Ni 5.099269371086835 7.921151056773338 10.548627158320379 -0.5266899683687832 -0.402096623165714 -0.6910433670786099
Ni 8.487083354731796 3.619519252546401 9.79329308379797 -1.300577107517502 -0.5616672557749165 -0.18279129370004002
Ni 0.08257666806373933 2.735657830692034 11.901084731176962 -0.06203480574455768 -0.2710420957183332 -0.6194353158233203
P 7.233953484852842 6.37152113195889 5.643990397684992 -1.0596364591702396 -0.5869679393232342 0.40745480215383373
P 1.6674990328086015 7.34790039030256 10.102499229235057 -0.5148284410445069 -0.3262979308678445 -2.612758374932836
P 4.129608614983984 9.03094980261086 4.133039850056973 -0.39797694457038557 -0.6195931815574233 0.37408085467907837
P 0.657837347979642 4.6253104156173945 12.67246476702645 0.08623094337478697 1.988573203129356 -0.16530213577634112
P 6.631890779926242 7.628831608314617 2.131158745831951 0.8399169249852825 0.24540279788367414 -0.748592112027356
P 3.4039273145686844 1.787887579143061 1.8499257489417686 0.23855286484137628 0.19010916751769194 -1.631892803314912
P 0.37578668721784353 3.9679031256108597 8.102116867817601 0.9482323589639348 0.592967865660411 -2.046629226731824
P 7.128441622051625 2.4122653093695243 11.109565800286381 0.3695217745534862 -1.608942365166326 -0.23161859961538822
