# total energy = -340890.7631504845 ev
CRYSTAL
PRIMVEC
9.10798786338958 0.00000000000000 0.00000000000000

0.00000000000000 9.10798786338958 0.00000000000000

0.00000000000000 0.00000000000000 13.33046088759272

PRIMCOORD
 96 1
Ni 6.203951584415004 2.1204124765501073 11.435789390750452 1.688465300393318 -0.4689926136573148 1.269362886698227
Ni 4.565761533945381 0.2139976434831737 6.2497337970306654 0.3990812333781579 0.26738521569203627 -1.4126666638266059
Ni 2.4660059742401237 1.2761110944510456 4.768785873453832 1.2722432935698154 0.9885053475513685 0.6570469555285071
Ni 3.645444883774402 4.241253028537476 4.610700346869758 -0.619140924511353 1.1845877019333597 0.7560349414586464
Ni 5.237093115426926 4.652360284104477 2.446459321135745 -0.9034879648687084 0.7942135094108966 0.993772766597895
Ni 7.5519064884216816 5.804948844935661 2.4286231481828047 -0.6018690248047828 1.2330573673989733 1.489616439009783
Ni 5.294200200355147 4.476403063414159 11.833770213973184 -0.17135656950053715 0.32493344642015004 -0.02581438995994264
Ni 5.629100920101665 7.916353521327235 12.581128903911083 -0.2413134583056489 0.6765567434266606 0.43857543481803823
Ni 2.21379667778919 6.439101619291687 0.18625289035584588 -1.5101204725004056 0.12851067797960447 0.8675868800967251
Ni 2.8379944212318913 1.6878103692397899 0.23885152121078587 -1.8112007664520418 0.04243425790481079 0.8690444384788583
Ni 0.41434059131652473 -0.15672934716687828 4.779556980094361 0.49434163394506475 0.038856310745565344 0.14819530089272542
Ni 8.740690193671487 2.433253649295645 1.3808092384170554 -0.22369857343736313 0.22074000502967145 -0.08474124620313793
Ni 6.472573475290285 0.6035116810361667 4.817948971225052 1.4380611926403104 -0.5983669251887953 0.7985486464511408
Ni 0.7750005228005222 7.378608800235198 2.572218776614995 0.38424468258595756 -0.8493914401346211 -0.3146310360528775
Ni 7.53240628605624 3.8718239261812473 3.989540117434004 0.4452729014428719 -0.14502075981948576 -0.2678546991292871
Ni 7.681822829636377 4.0277617891885935 12.693131654274609 0.43996820140050674 -0.813898903654966 0.3172499617329633
Ni 7.948349883265486 9.121012449707804 6.990920003482781 0.4491555243267297 -0.49739687583162084 0.11497150584258908
Ni 6.879636784173374 0.6943429132313287 0.4300163495095009 0.27879140064644886 0.34747302228356286 -0.5430169876635809
Ni 1.843839312127405 6.6568189650850185 9.34722572673256 1.0410229578341104 0.6036058049902313 -0.8397863129446892
Ni 9.407094353630516 5.224314608225285 1.2744652810145976 1.0636430092264713 -1.5374644117309972 -0.7872100815098699
Ni 6.225801647691369 1.9727810986232295 6.86957336820253 1.5093504271036005 -0.011792364649237755 1.817041027282903
Ni 3.2772817917539023 4.202626051315693 0.3316008956843981 -0.21826968911230796 -0.4050757603986959 0.35244450735622523
Ni 6.21918924838389 5.80581410379821 4.95611897118966 -1.0863797887023547 -1.6256771614225034 0.18672919530186552
Ni 5.408168454534863 3.016957277971063 9.386963878493617 -0.947055307936698 -0.24047964955044387 -1.192705703054804
P 0.5880709089342828 5.529814742621197 12.314947043028189 -0.5875068425458397 -0.06869422004260427 0.9017699537363372
P 4.143615396889865 6.0171012100446 12.876318795860623 1.3277523823807134 1.0067318978617243 -0.38378496934071965
P 2.307882194106338 8.498208228433207 1.5200193706143272 -0.3048251057060492 0.6738696835128009 -1.816669502876097
P 6.409619062048841 7.911498963708934 6.189546390551771 -1.0060217591685772 -0.3472663055893954 -1.6858052370626517
P 4.607630954904717 1.0284557920135264 12.712341311821994 1.7939862023459683 -0.19831124371251008 -0.7038430899464394
P 3.850957525611781 6.444593736071866 8.172465590647665 -0.22062122006362003 -0.5756527714207311 0.6237043755123194
P 4.46137488316989 1.0482656659718803 3.7350756831476275 0.9501977102204215 0.8382554781224595 0.185860419543667
P 9.342063319118955 5.439345097550701 3.748005382950515 -0.5680621035576668 -0.36971666417311166 -0.4915838686942695
Ni 1.4960781132870031 1.2712929687848529 2.6375913606775634 -0.17284241001744427 -0.46264301729020324 -0.7270742925602381
Ni 1.7658385026656376 6.566941339236266 4.709465547435092 0.7474536275475385 -0.11097729708153146 0.816922263862322
Ni 5.6511422511265925 5.660386858973824 9.466267130243223 0.8023315105323408 -0.5929511534898627 -0.2724479749269243
Ni 8.539795301763709 2.374416046642327 10.26550856317715 0.16086903970565197 0.8264767403199766 -0.16836971895807132
Ni 2.185434403073643 5.27184008974928 7.096630955717375 -0.28347929304042147 0.0429757322305776 -0.5502477010840653
Ni 0.4312650546679792 9.260364666518292 9.301342415449803 0.251508910781412 -0.014950964882877475 -0.8554073073113979
Ni 1.3562249571350373 1.0035636607362015 11.401423130327618 0.47490152294258214 0.3765712252010998 0.6143357898132259
Ni 4.196569239277851 7.294332587022946 1.5752738907778907 1.3594569125728457 -1.2207872917823686 -1.3629646686157881
Ni 5.731301653750718 7.804525644333823 8.352000429034922 -1.2329408964257669 1.0829774478890253 -0.256521533504655
Ni 5.4717786429142405 2.7081873758735187 4.882068296135128 -1.0052964509667783 1.111723666783782 -0.9560017184967086
Ni 0.7959998999951801 7.604924086725855 7.124731831176551 0.047360234451518435 -0.2350242828628275 -0.5583675019777222
Ni 4.862900535332665 4.719559019766424 7.127211025517455 0.7322584078643388 0.010827429632807159 -0.6375880754729472
Ni 8.070069035256035 7.394657075138471 9.491048144066617 0.8950061526499425 -0.1980909001715879 -1.5652269265562462
Ni 4.618669836393234 0.5210616194232933 10.516734196921186 -0.011608273662889685 -1.6196530667156108 -0.1817273712118999
Ni 8.200176644219294 7.125916780418842 4.708238701447877 -0.1837821968583996 -0.3059353080510925 0.16667973285015814
Ni 7.013852095736732 6.125203919935038 7.223070777902229 0.7496904872978573 -0.5053629247562329 0.5001734101354934
Ni 2.5319113756022618 5.519213044557969 2.505779647154485 -0.25179687433547604 -1.0437516696191833 0.18567838543984794
Ni 2.7685277965512634 4.835002768006487 11.31642829686005 -0.45696036508312915 0.9967776148624897 0.7845633879156423
Ni 0.9890819597735427 3.3168833236945567 4.05391355521003 0.6530555749809269 0.35623328497469614 -0.2263090144770167
Ni 3.7214692598343473 2.909847338775549 2.627740160827745 -0.725610563530518 -1.4147094052882474 0.3003112769960957
Ni 1.1745479199638704 3.2698405655359823 8.298225046126914 -0.8133725988378508 0.15420165498780541 0.1671916394895701
Ni 3.8365577965413635 2.618874445282429 6.995092372797872 -0.2001819783726617 -0.291898113231736 0.07797435979294957
Ni 4.139680746062274 6.869171705930547 5.975259113049345 -0.03869304569482369 0.15015422439130915 -0.4488583048012851
Ni 0.9021607868382987 7.536796336285172 11.55718976316006 -0.12799337202355374 0.1172700720687787 -0.33549939486145447
P -0.06386247964771996 5.946924162297879 8.108066650505165 0.7479588493187312 -1.567801886372274 0.4751293226826721
P 8.478935725768435 1.8473367795297075 7.940582591076206 0.11278298283170254 -0.9459127096918225 1.4650768019972058
P 1.7769320320823159 3.047614765669371 10.405411813263264 0.5720735387099051 -0.017508698307724686 0.42409652447557283
P 4.214129440193578 6.313037957012341 3.6403753776386685 0.25112967306512235 -1.214529740908431 1.0336577757182908
P 6.934448656118834 4.0699135577767604 10.41326289894239 1.1237026935225294 0.5337283632728034 0.7686058361451215
P 6.275330886581268 7.679381888845186 10.53704956421503 -0.5001998924980546 1.1457547882265624 -0.40317237272839596
P 2.4146278137807786 8.382664292324847 5.708929702760417 0.19087458492880677 0.45337084795965793 0.6596805364966124
P 6.941543778791734 3.80594584878319 1.6078668259318998 1.0274002248443532 -0.44809545849333154 -0.864319265089047
Ni 5.155467326730482 2.825853473192128 0.5800713630503186 1.2828110417833325 0.28650882389536464 -0.17447763162802207
Ni 1.2869678161790263 0.8428231556423076 6.921069021707421 -0.09509610707490074 1.5620282171132904 0.7142899963113764
Ni 6.823741061652721 0.7276071071029152 9.294357499432028 0.07287380534159063 0.2939048592491196 -0.443675732159081
Ni 2.6340665693111807 1.4288702696370288 9.26169807596542 0.6213027080493623 0.32629587398531545 -0.1098059024812496
Ni 6.568954204590195 1.7979897004003456 2.8335096479274804 0.18173277052853862 0.7865778472425099 -1.5552420474293924
Ni 4.171968563617384 6.953229327430156 10.78402267834934 -0.7345649445103284 -0.006677926240807854 -0.16886877008167692
Ni 8.319063211933498 7.071460120006429 0.05285183292208586 0.3378956630077729 0.7776921147171058 0.8691621950036451
Ni 7.7110139312623645 3.8944117364877844 8.251262438262977 0.21469097062211415 0.2582004638689747 0.24636824712073702
Ni 3.078973568445745 8.411891825902943 12.591140404350172 0.38282131987586976 0.8550987749320434 0.10227334154963032
Ni 0.5426548374373005 4.928796828706777 10.248805423934748 -1.4307201788942068 -0.6770246842020147 -0.6644969840486492
Ni 8.59474379352957 2.287890160387447 5.738989706444165 -0.08019245049019093 0.16647481592820362 0.7518946940380277
Ni 3.8284607951855127 2.664268657608147 11.39686458232019 -1.1722597764956264 -0.11738731437293332 -0.2821577460155205
Ni 1.0648968521088709 3.2545118216868287 12.604044601786585 -0.20020666096301004 0.5991318283792778 -0.031113690685668997
Ni 3.154633624984617 8.713876276920502 7.8854073104084765 -0.38388369970211306 -1.8003903061000992 1.4021655071849657
Ni 5.980131886643698 7.69881833529444 3.752404541167473 -0.6149921924503021 0.45663332076101354 -1.9988902687846477
Ni 3.271589299237134 8.345549241115519 3.411171948144703 -0.5249624441547153 0.2510749085677869 2.1358447066562314
Ni 3.4578749783498766 4.419933537647816 9.094013640799872 -0.6813932455833556 -0.2757698402113057 0.0034421929123295563
Ni 7.480390566435017 6.127799696522684 11.42781807962937 -0.026023934867587438 -1.259168205553412 -0.1934719133423378
Ni 0.4687098150438804 9.133763632945366 0.4201779008429197 0.5309698266910597 0.37692937987146696 -0.3564618560457345
Ni 4.638625438160017 0.59193998224808 1.5578912956286866 -0.016087392480165844 -0.6594445092264062 0.5674892617733324
Ni 6.257825333593701 5.8566093530238374 0.4341021929383366 -1.0086622821152176 -0.6805051865514473 -0.1537671385535481
Ni 8.048883855105629 9.03294731347639 11.3358638325105 -0.6241496905798541 -0.36626007308307884 0.5796086707446857
Ni -0.20882703868034266 4.850194892035239 5.982564630245665 0.656734823604727 0.18134093440675866 0.3046021910619658
Ni 8.215742195757144 -0.23851816884900393 2.500688281847488 -1.0239760296541527 0.4448216728380662 0.25204215757706266
P 8.622204377430462 1.456321745549893 3.763442511857188 -0.6757766707275265 1.3349823244702492 -0.8520936695571325
P 1.7570492942197473 3.299204718934481 1.6700397738006427 -0.18210378071471217 0.22914622681549565 -0.16601741667581085
P 4.789763391477225 1.1573429305811895 8.303238082736883 0.055122137785124425 -0.8405190773456557 0.6686377456899001
P 8.55622611216411 1.7092778970190268 12.421004098807801 -0.6657236573668986 -0.004082140489173615 1.3441426508132786
P 6.620969924211417 7.841558723650911 1.4284522129865975 -0.5964074874695793 -0.3993856519924541 0.020054090437397722
P 1.922923972164365 3.086496766555906 6.307814525878954 -0.7753914916083872 0.5090496295792007 -2.374081068698453
P 6.838468678292104 3.9836062632345253 6.191866195102206 -0.5357885882359418 0.7445966177147176 -0.6769994873910341
P 2.5941917977297213 8.482278357374282 10.330147954203559 -1.138296532176304 0.8811486779415598 -0.06781207454796709
