# total energy = -340852.9256853004 ev
CRYSTAL
PRIMVEC
9.35459123072653 0.00000000000000 0.00000000000000

0.00000000000000 9.35459123072653 0.00000000000000

0.00000000000000 0.00000000000000 13.69138984273664

PRIMCOORD
 96 1
Ni 2.357356920924269 3.5371298685282615 8.899498525168779 0.42078777181731397 0.595689121246316 0.8982169462777563
Ni 0.5419095831657093 5.994085119361581 4.628744215503356 -1.249606530006906 0.3442324038590781 -1.6506505435383896
Ni 2.0230519039279575 7.598706169825481 4.967358892553119 1.1943015867870141 0.04313256952341604 1.7579804736753208
Ni 0.716842304962011 8.590442484621938 1.7542776674969576 -1.0674395001544261 0.42832778894810103 -0.5979414076156024
Ni 8.095799778638952 5.246325891289829 11.667801691333171 -1.3007529709737342 0.8991140041707291 0.2341467653538806
Ni -0.29462939037442265 5.96214854583763 0.30560232556586775 2.7395898654378046 0.4231159057298584 -0.9257717159675733
Ni 3.25166517091348 1.554368187848006 9.852131714309857 -1.4248169260358945 0.36400521561063115 0.7196314631289478
Ni 5.584176298258483 5.608563716880902 12.289035399428887 -0.4043717923531359 -0.456188262803795 -2.438509828596484
Ni 8.687281210198954 5.594251192718149 6.550741279710405 -0.3540733012088999 -0.6052554247785125 0.9682741081061582
Ni 8.20264791653894 3.029615245389752 4.792848998268031 -1.1860861408557573 0.47700494243883007 1.3618171852749064
Ni 8.048895859585324 2.829586026976563 9.926038595617214 -1.1096009640138245 0.3341912175729922 -0.6718567668478299
Ni 5.9857408242287855 2.6835889259255112 0.40038397659164865 1.6646386302873655 -1.0152314506923032 -0.7480550085769633
Ni 7.340304303846548 8.286212477549324 10.018509662676854 -2.046345376942818 1.3859547017530582 -1.5585975941651868
Ni 0.7330229409386884 1.9872705935210708 8.318258499787458 -1.5265801607183258 -1.0021730748464481 2.3241057652215904
Ni 9.111530619237675 8.045621752750707 11.164301123173901 0.5480905455317464 -3.16320739339443 4.378750406058724
Ni 1.7800757584355489 7.443017712543962 13.261890407839656 -1.2790842277510488 0.27374972445748336 -0.12734776801975486
Ni 0.4830514323293465 4.409810304227087 10.586469910736966 1.1735615260261854 -0.40237430230713284 -2.053955842300224
Ni 6.427146553080899 1.6528533214332866 6.432557248489878 0.1112770877101374 -0.6402813060343941 -1.4082489943748846
Ni 4.605021908297911 5.776010894994174 4.089111539776348 -0.8546629729462055 -0.702118651056165 -0.4369816079683571
Ni 8.549759368554083 2.917528536554377 12.301973734180198 -0.3709420519397805 0.005161746706597562 1.4490868543268527
Ni 6.8742398732342895 6.367698127555209 0.13963691466003436 0.7553392009432024 -0.8375967614925381 1.1573939151273873
Ni 7.299116039867066 2.93776251679231 2.4150242323319273 -1.5532044481740734 -0.48330285963239994 -1.2247922991767035
Ni 3.171421489692494 6.139483526591445 11.846337801565744 1.7337627387785366 -1.190340288146421 1.373487422523983
Ni 4.239350947825968 1.5372305772165247 7.464586592911324 2.637248903875032 1.5316665741022977 3.9729028004910094
P 2.1801061314890586 2.01544662148069 2.852313005704283 -0.7346184234560833 -0.5871409745659888 -0.34216729379993327
P 1.201372698121509 6.283011015630101 11.339414388575655 -2.359251974105421 0.9823874075790887 -0.07213461318272094
P 3.676139090135145 9.012605819877459 9.045613494065877 0.6638071570704761 -0.9061207745058653 -0.5269370513825828
P 2.811279092475576 5.70729206983104 0.6510505313090249 -0.3827228466247925 0.18914243272904846 -0.7986574041148632
P 1.3958078711429809 2.2824921295030114 13.491440844391944 -0.4930745943071831 -0.4805882889147142 -1.2654589236581302
P 7.729988499302668 4.860954162264448 1.4352954704866534 -0.04225248091130787 -0.5949082772162334 1.7114077681221043
P 6.4474834338193485 0.8445839217623338 8.519467332120206 -1.924700572845111 0.6874859887446547 1.0781180629141949
P 6.956635110375166 6.618775348815556 5.566343641518968 0.1377036573327822 2.3433903244828156 0.05367357826405595
Ni 4.38691026556668 6.660496824479534 8.450818666389242 1.3207006177402545 3.6534692008431655 -1.0349006469864563
Ni 5.15636279006551 0.7936304002838321 10.866938321322124 -0.42600659701409216 -0.23256013759305108 -0.7170318207225715
Ni 9.102363120100748 1.7510484626989296 3.1537020235035467 1.7594498591319958 -4.006143821932326 -0.5320769437123095
Ni 2.371164297175397 0.5242022779450047 0.5270928465504237 -0.06931154191162901 -0.23882154512173068 0.42230472268247266
Ni 0.6819721317142439 2.034296122257128 10.815909963115972 2.2721702526945644 -0.7927371819756863 -0.2901927005048551
Ni 7.447751135567723 5.3767943713538395 3.7916795139514936 -0.2641104015955064 -0.8450470471229963 0.9302564912118044
Ni 8.265071101988653 7.054175430273886 2.4063572038111483 0.3610592456084298 0.5130883184249486 -0.2505794569886071
Ni 6.188997376521812 4.739933819066046 5.945855654769481 1.0398363937251769 -3.0924676036767065 0.9057932159631173
Ni 1.285788526908892 4.350670580202948 12.797752087505248 0.5131909054410839 0.5951144796897686 0.07667980935124213
Ni 9.302046218648561 3.8750644668155205 3.104166658013982 2.4091228907939346 3.6777419573476022 0.231846142245162
Ni 4.148714316052812 1.8133313292843016 1.757605095500024 -0.08666725958125719 1.0470429387759452 -0.147718618366623
Ni 1.7358472523953505 -0.04224252638022906 11.37676446388587 3.1208605529971027 0.07908739035147025 1.8243974676479742
Ni 0.11738327823469015 0.5000917552148848 12.924287897531336 0.9282137497501627 -0.33221198235943433 -1.560127657656468
Ni 1.4910376070755564 7.465590340520907 7.62039478895708 -2.8526178744007775 3.122030404935488 0.13469752351660674
Ni 1.2611578889216157 4.056786750727722 5.6248884135583035 -0.8413503149976993 0.6266372328883982 1.0750615354760582
Ni 4.591036794818619 4.378360169432852 0.32716559317865557 -0.857913104452387 1.6752845400369856 0.3017420959053513
Ni 3.7167473694753523 2.4948226350234046 12.85694045540236 -0.42003752391485083 -0.9586813222114005 -0.9876707674652152
Ni 4.790298936773412 6.376641116509192 6.220819824036098 -1.104269267388266 1.8681522441364213 1.0271194603791407
Ni 3.899386403301247 5.178261887493619 9.76052314053637 -0.1422434541846647 -1.1893337012587775 2.062734359823802
Ni 3.53497831260837 0.35550064918452706 3.5501084280206836 0.6855684600069677 -0.5812171528823862 -0.6398321343121174
Ni 3.663023953614765 7.680119174915972 1.0130039773350343 1.747775765228177 0.3250807706312917 -2.1679624131263826
Ni 1.4357052015705283 0.5435859258650332 4.571020776549961 1.980209404545693 0.49715724901698893 -0.6392536361008282
Ni 4.959083821393398 8.809742160404587 6.906100674571497 1.2055074828051626 -1.3340289594180446 0.9595470126458056
Ni 5.037381747695526 3.194097018169956 9.360884724843917 -1.9077588027844499 -2.702749299570687 1.405289140415612
P 3.9388440679538603 1.0119141674886547 5.5329505581831615 1.8280096104792647 1.1731712325663022 -3.161414820270381
P 2.9285856630644265 3.671948233386835 10.996225316548385 -0.16883663129216084 -0.6792823698879398 1.0853842575583048
P 0.558543916803755 3.9790688090648696 7.856023838712608 -0.912408664397106 2.9728364875749187 -0.5155882020286668
P 7.127159948912979 1.1333367580981666 4.088577392632758 -0.39149545061109997 -0.019125922196173515 -0.0490281090722446
P 4.0736624328124345 9.429895413244878 13.03143725326011 1.2285466240128133 -0.1957691940169467 -0.9704824286113868
P 6.467623868147722 6.294012014594414 10.266652348754288 0.302291283540602 -0.8765533452613936 -0.6029720280609744
P 5.078579366265964 3.7434266628820034 2.4078361646412993 -0.5303797585155446 -0.3533518496618431 -0.8727799942618905
P 5.22612932941572 7.991075132885987 2.426278740711149 0.020656757018403134 -0.046042801191675545 1.9974566216619147
Ni 2.7324198907160855 9.245029986771446 6.651345228147231 -2.226186072654966 -1.7608912195642128 1.0104898222422598
Ni 5.739817982585222 0.2026475684217871 1.0681941930575303 -0.11639949653836729 1.4803416985760764 1.039794484743648
Ni 8.128596974530858 0.9422879470027843 0.829505256600279 -2.4595643352739387 0.10194552589656637 2.0977502137773545
Ni 2.378077339891917 2.3736526183697064 6.796528479785107 1.5652791199504204 0.8097488860423345 0.15044655882074737
Ni 2.424373210533402 5.705467924594611 7.638973942054888 1.2778755521549283 -3.6321820093296155 -0.7668397453836341
Ni 2.5074793965869384 7.387994008540484 9.927858999017264 -0.10636216690702328 -0.1332715897033576 -0.6185945650895798
Ni 9.10450532142968 3.0085767703295985 1.0408825293022506 1.2033004478515148 1.0670384080612656 -1.511666476831287
Ni 1.3811960000696326 5.573044335020786 2.284846680046649 0.1473388664297011 0.26181389225184587 0.08526446569645961
Ni 0.6498194671392088 9.048611640467291 9.591611968938475 -0.2925182633142382 1.5739774190553666 -4.893415839162804
Ni 8.55374442430136 6.257332663455747 9.044476911264717 0.11671394245499254 -0.2956681217971295 0.6635832139851281
Ni 6.0031777817708605 8.151525076964134 13.157849582685579 -0.9228252317447396 0.6416085094862499 -2.527400063970989
Ni 0.5923027646459436 1.98133042826398 5.844375181160074 -4.285588282781742 -1.12242485525137 0.6289625385874652
Ni 2.4876383091691596 7.645937499562571 2.8145251355373246 0.023906117193636247 -0.38980983537856095 0.7157596388783674
Ni 5.736936768570759 5.819509742939801 2.1233293771404167 0.33385620283107664 0.7908579626751024 -1.1277933186521352
Ni 7.862935945970032 9.152251153669354 7.4557829873625865 2.589927750191565 1.0805084175232424 -0.19687553970724805
Ni 3.7921266633991926 3.7459991753949167 5.491232824355566 1.000103079691297 -0.07697394355289325 -0.56169425235811
Ni 2.489471808996545 3.5654649245341328 1.1164283349451085 -0.5491606386674736 -0.15088544613037885 1.4978611955170784
Ni 8.067801487907497 8.740246904192102 5.166939090600418 -1.6883439443241053 -0.09055373911985695 0.802162074834012
Ni 4.9468854347867115 7.7592683689951 10.947265258402616 -0.5953515354012392 -0.5260855020155649 -0.4932458297777247
Ni 5.989520078975029 3.124704662457987 4.180077453151157 -2.2778210232224385 -0.2972940874363267 1.9074759814367086
Ni 6.7906846668148635 0.9974051969158231 12.360148064417674 0.29483379882129224 0.6430408710574023 1.6777949651636652
Ni 6.644247899988876 4.234944935485669 8.687145568630092 2.5961156241698324 2.886896078857357 -1.911663794265811
Ni 5.580546716967537 8.773801821951448 4.590531646906992 0.35324874842507553 -0.05315138721199879 -0.8215911300929012
Ni 6.717475637992826 7.428564869516866 7.835185551898912 -0.9846967724385556 -3.0086532401632122 -0.28321241253227997
P 2.500416680415122 5.010187951786293 4.314868689695959 0.48079809093267517 2.114290634634539 -2.157674915157445
P 0.24527456849030976 8.458907581188937 3.903496810567335 0.3038547713729799 -3.05226583464684 -2.6725982299086035
P 8.34827083395175 8.198924789338433 0.20720793151286085 -0.18240665666711164 -0.7175280436326997 0.4902057573998203
P 8.185931262500482 0.8783698979182948 10.833900712442645 1.2810657769574518 -0.8686068367208074 -0.26900552490427865
P 0.7041415768209837 0.2052603056758115 7.2816425994202625 -0.7565077673300068 -1.444728320247841 -0.38582513969920007
P 6.521019873324847 3.3236206845474063 11.72772907191581 -0.8483226325504746 0.42694402122669695 0.00299122141784001
P 4.046412509357465 4.046496700676069 7.573898730069135 1.066121552673951 0.4041190529123814 0.4452795863110912
P 7.8012330640239345 3.1964917934547046 6.805894296250302 -0.20596876025776786 1.7471481589465074 2.0916474433137267
