# total energy = -381165.2258272806 ev
CRYSTAL
PRIMVEC
9.30199299428621 0.00000000000000 0.00000000000000
0.00000000000000 9.30199299428621 0.00000000000000
0.00000000000000 0.00000000000000 13.61440700700753
PRIMCOORD
 96 1
Ni 6.853708337956522 2.7900769458740915 5.312341145565675 -0.3054367711481192 -0.12194870849137063 0.9898981141338372
Ni 3.950156381204672 0.5141044016881767 11.459586380920468 -1.6464776431076225 -2.6808784676395248 0.41317550668769487
Ni 4.696092490500371 2.4632328228138607 1.0417636673693913 0.9563241348331337 -0.38894208806162694 0.05722041507504984
Ni 6.774455358804255 7.15328831994923 5.628618204738936 1.3484777878535228 0.17984249548436126 0.28894185881688944
Ni 8.01336918360848 5.277941445776591 3.4560856815353023 -2.786058441312989 -1.6576130908991518 2.4144885259812225
Ni 5.905416676022512 5.172912644414122 5.09786044523664 -0.49447970218482584 -1.9115794620821205 0.04881290773764497
Ni 1.1642188221525003 7.904842832931311 10.321803822471106 -0.47267546182554077 -2.5730584852400527 1.1751892914375954
Ni 9.041881231952013 6.595103634504392 2.2241585835669064 0.7246361154323908 3.305765036385403 -2.21589317536939
Ni 2.0969203440560866 3.287584731904584 4.140209118088664 0.8039631325984928 -1.0023797915406156 1.2916075570290402
Ni 3.1218790311277687 4.559353195484138 12.56651981025474 0.3422058603473526 1.65101512596666 0.6145155099241998
Ni 7.240522408973871 5.267272059968181 8.53662767646846 -0.16692861563617056 1.8442178448080109 -0.5658458126326383
Ni 1.632276498793782 6.22511686856761 12.488046338103995 0.2434384750684517 1.8123485069032401 -1.5290373640095667
Ni 5.871222550275596 6.403463977638784 11.61295298817082 0.03419515782447014 1.759594869350292 2.185198574499011
Ni 8.355710426770552 4.910912713568732 5.776007351378578 -0.3647572632853073 0.3361257155915437 1.0786590230193296
Ni 7.920963186554653 7.381559224690616 10.03355924897546 -0.24207450484138957 -1.292547038124174 0.5709311975753458
Ni 3.3732188781576076 9.137375490634778 7.302482053203371 -1.946462647112551 1.2722592344094152 -0.09911756952946801
Ni 7.887931809915018 1.6384809280302326 7.243354865799208 -0.03779418802963814 0.032451949881118304 0.9701504991932646
Ni 7.441575682612026 7.909484527367575 7.85627526781983 0.09164131575708087 0.33013350256385077 -0.8224568205273061
Ni 7.368387602803337 8.934508328389265 3.4084752914889354 -0.501892192598813 -0.23909176806398177 0.5580525418404648
Ni 9.157607325101466 7.31774755368304 4.566231089003526 -1.6942132586206886 -0.42260297064918184 -1.3912740570834425
Ni 8.851357814229395 2.9647032578019656 10.395443979132706 -0.002503997368776333 -0.40451808812301304 0.11424002699320326
Ni 3.075099309043644 4.981979939005741 10.011381437602825 -1.2535999674370153 -0.20596156116891623 -0.9601329670562625
Ni 8.204329794995436 9.137003410920448 5.891620890414446 0.3032593038808261 0.034408302276540736 -0.78384296480985
Ni 0.9356502536396506 4.859454089076909 3.1708772785085855 0.5015867455432523 0.48751124128679263 0.31861907416634805
P 6.907232004862876 5.86085082823865 1.4548493568162895 -0.5261418091747971 0.6064319615851168 0.5473796355076508
Ni 2.796988326567769 1.8055726257429268 2.2909096843176884 0.3371420726712 -0.06287375670608526 0.4108813113368795
P 9.11009274558154 6.988094228779618 11.947145685589064 -1.0180277824905177 0.09611117860297641 -0.2234939136257248
Ni 3.607294226442539 6.896823074854496 11.029235262529378 -0.3971462211389741 1.2856359128266373 1.1239911712972255
P 4.220639729536783 3.606419839113864 4.020960360243792 0.7469100963392427 0.1161012485716581 -1.0230884848428765
P 0.44622124840654626 6.698904572809571 8.080939789930074 -0.1645349185930134 -0.6060974610638337 -0.6282904522211051
P 7.195091475854192 3.2018110557586863 12.115841977069806 -0.9721798709184678 0.9242079710248794 -0.6118212509214882
Ni 4.47204469051663 6.455815593444998 1.8375231108124341 0.39720792761484497 -1.405375015261199 -1.4021976459744818
Ni 8.547312875664726 1.6342206153011556 12.52013542286709 0.5117264050804153 -0.7806679095159781 0.4748637277261113
Ni 0.5568238038896769 8.850967130529348 2.794438650325324 -0.8161969556605233 -0.8101450930394886 -1.1385297312330327
Ni 7.371699112260874 3.021073334522944 0.714601416153408 -1.684002636636274 -2.233301857764141 -0.8306398705587308
Ni -0.00656348616077921 8.366156564750364 0.4743365218205983 2.7421468275317036 -1.5451867200759193 -2.0378278263901097
Ni 8.764002799297595 4.417190838631546 1.4166609553360414 1.6591624376641423 0.6800845540742609 -0.5381858848235247
Ni 4.080495905134431 2.652556283457766 5.876972112061279 1.0044004215150704 1.300594848129315 1.437826193811369
Ni 6.797803360878456 3.0017437933635063 9.127983268445806 1.0788089183336325 -1.002698094111983 -0.3931052183003811
Ni 3.3892555138452254 0.7097150793049709 5.200553516192403 -1.247421606540445 -1.5016165487944524 -1.7096465624566235
Ni 7.6679303768246125 5.579121370540918 13.095180900566787 0.11531834765904657 1.0413795698425807 -0.03071414125440517
Ni 9.059080616746911 3.6766498851936302 8.041431435663242 0.17535694890918185 -0.543844882881515 -0.7926199396715317
Ni 7.736700010025635 8.628975070967279 12.134738975561335 -0.5452350783608223 -0.05304237243796026 -0.0235926997182755
Ni 0.18139630233010656 5.287243438634838 9.7128721149881 1.6786030628872572 0.644345963022071 0.18999938141270503
Ni 7.073505127204044 8.084445711038347 0.6875428491280527 -1.8756626935808534 -1.0915590189104492 1.552535447131507
Ni 4.70936643430909 3.6826031606229086 8.60459082688867 1.15653568089215 2.1748146601615255 -2.4696415170042822
Ni 5.526658130820404 1.9025365992972953 10.913880318894968 3.13075750039584 0.18510940031025538 -0.9005533077204168
Ni 8.790941370615078 0.17536954115724823 10.230423835229542 -0.5100880981460441 2.4409937713606027 1.2517755126337666
Ni 1.0485485409601967 1.6919115750080045 8.983479599990794 0.9182682085016767 0.7127059396537081 -1.235334593468924
Ni 7.606909303674512 2.471232536671953 3.1840554117908644 -0.38182321762865856 -0.1367405220885645 -0.5834455279922727
Ni 2.649514531793119 7.653103000208567 0.9834643573296129 -0.23931622536996205 0.37373401286262087 -1.2069537283333858
Ni 5.8327309038281685 0.5087231988196808 13.10691629475675 -0.3772615663999051 0.26087492537734425 0.6168271887765119
Ni 1.2560946056134077 5.989618315375366 5.704517815465804 0.912936511876118 -0.35268979059781197 1.0842061780898036
Ni 5.130495556980515 4.356765093024372 11.081691060655606 0.26183728929061356 -1.1999628988378495 -0.36647373175578174
Ni 2.077469876989492 7.053366312665939 3.1873232018819664 -0.5291399725711726 0.12069169615581796 0.08060562676820957
Ni 5.885966208955917 -0.07457965794028258 5.565147916869259 -0.9713666309885529 0.8832721520424659 0.2950436008392532
P 1.1648048477025699 1.0186147279423574 0.8948405505719487 1.1995654062891148 -0.9580737705343888 -2.119156704477589
Ni 0.4408670213173392 2.28752747971443 2.3457756287934877 0.5489467228844546 2.6476729274218336 0.7170793861310554
P 3.277808337410566 2.195195898603468 7.953073665901322 -1.6460351562535651 -1.152090500636603 -1.8983328814848595
Ni 1.6598476056256264 5.583484005191435 0.9288970068245633 -0.15327014431247155 -0.9998243721086136 1.577793193257031
P 7.027153296791398 0.4328477732742443 9.138861018894241 -0.5696852409833866 0.4684292849546771 0.09545760417937754
P 1.6165468288704858 3.559751740944038 11.05201212224208 0.9833130047171517 -0.01643577695852008 -0.5117852833428089
P -0.0731620342286857 3.2991936189916764 4.710734757458538 -0.0605700482735731 -1.0525242736054907 -0.30593273694793116
Ni 3.8141705476099568 2.6031068894233234 12.083125937988065 -0.4459334178450062 -0.663126843174 3.488858948927527
Ni 1.2891817942101929 2.0564752791084278 6.54376500572044 0.11737677284997206 0.18324920717306506 0.013708093614711874
Ni 5.228612977649306 1.3150320323632618 3.5895339314782877 -0.8715024131010475 1.2294146284400633 1.7296924253639048
Ni 5.8157826728404425 4.465189121780102 2.8011639911618365 0.1710416093632796 -0.5508403403627418 -0.8018247460992513
Ni 5.241989243379465 0.807381353320137 7.989015636106304 1.0816245334055565 0.941952953713126 0.35006880803519713
Ni 0.9946434923466543 1.1252248680907282 4.273371796850901 -0.049678855282366055 0.24666803774934293 2.0551848296113184
Ni 4.580784987029539 8.692312340339084 2.004490161820828 0.5090007786191363 0.9626950713564838 0.9429238022668277
Ni 8.363021793157133 0.7698933919021151 1.4419967932840492 -2.578333360485747 1.1266707750119176 -0.2725701023270854
Ni 3.41125472695498 0.533027445759709 13.955311994987472 -0.6121614078697264 1.029761011767046 -1.1529497633131045
Ni 5.577270273962127 6.902953088148082 3.716733102619103 0.003149858482891349 1.2869173506422222 -0.3277470046095452
Ni 5.430280182816104 8.318167583594665 10.367643113077262 1.0450606182385938 1.48259681315884 -1.3837026724940877
Ni 7.447166180319832 5.032908349904644 10.777763327200953 0.3401980858887044 -1.4353635912034894 0.9090410334764538
Ni 9.502171744556657 4.272861117442983 12.4439353577709 -1.1470393113659407 0.43101819129607066 -0.22223998661396566
Ni 4.284190944744329 5.521402504855494 6.764617571157373 0.46292686707920916 -1.1023561095259533 -0.48573589455392463
Ni 1.9958355876655147 8.684824236088195 12.397973280859016 -0.03940061328480956 -0.3623108586273438 0.4965959771968802
Ni 0.4953720484702385 8.823535553590377 8.364297096378 0.09605487144374426 0.04974416130266271 -2.468151048501685
Ni 5.040052280419777 7.504503664298069 7.373861825600416 1.6359731440318726 0.4092309202176501 1.7612028372673603
Ni 1.0623061883975442 8.40209946515463 6.055810366355367 1.9972874430739018 0.7547468187748421 0.6628041697272584
Ni 1.3477471412457172 1.3215899373283262 11.195439550123394 0.995292288566215 0.4381846271375227 0.8819470054731391
Ni 2.936267065634304 8.828381891869522 9.50368610899398 1.191560276596451 1.0719620706151278 0.20944052085645223
Ni 1.6254767420144034 3.2572416312009813 0.17515187452436523 0.8646241979239754 -1.9736163247092076 1.397177052831439
Ni 2.682824968218502 6.918859495935685 7.834491860944388 -1.0731062115219003 -0.2887461978663156 0.5941991669643508
Ni 2.4017187440422716 4.454780191771723 7.368511319308352 -0.8564982263827313 -1.10821256830673 0.4740993387562609
Ni 5.569354278039759 4.44826879677095 13.663009892207056 -0.6091868986224347 0.582074615786675 -0.27090582725078505
Ni 3.2346191845697243 5.590107024106508 4.284017927677165 1.4529224260228593 -1.2763084647781244 0.8962191991214371
P 4.4995878913699 7.829366462879492 13.077808498704725 -0.31658815977924837 0.700005204257588 -0.18814638736436629
Ni 3.484600940642259 4.335156563614665 2.0109838830351703 -0.9198414665260674 -0.6412038178486634 -0.06396030490204468
P 5.280536701784042 6.262975979500675 9.484830039271028 -0.2096544366394712 -0.1816687500598226 -0.39136638123240336
Ni 3.584299700096952 7.626238844833949 5.6175218574583345 -0.28914394752536654 -0.5469602885820452 -1.7637466867351366
P 6.230112038732489 0.8847767244986111 1.8803950656968096 0.9570818389347644 0.07954684648639203 -2.1092476728939933
P 6.439555709928782 4.130438304790361 6.9760630312167615 -0.5346161651943955 -0.8396096781575089 -0.17339134054237879
P 2.629654777040761 9.115097217739276 3.232849945528086 1.6103819258263297 0.20077256076880906 0.985831143153315
Ni 3.4398955629655235 2.622455034568478 9.953479322658094 -2.2870836794712868 -1.839881679326502 1.0296900493197942
