# total energy = -340865.9379954563 ev
CRYSTAL
PRIMVEC
9.30967838658867 0.00000000000000 0.00000000000000

0.00000000000000 9.30967838658867 0.00000000000000

0.00000000000000 0.00000000000000 13.62565535548567

PRIMCOORD
 96 1
Ni 1.7882308982602708 5.162095479993766 0.1269402537811689 0.12829367687279195 -1.6330878520642778 2.1597220274944613
Ni 4.762607883094268 4.364088492717048 1.988282847055092 -0.8700985907749854 -0.5371304469758169 0.589480678442759
Ni 9.189806683643381 6.397452524997983 2.4424936627874065 1.469144030088044 -1.4145474257890864 0.25159967072300543
Ni 7.772761960862123 7.167744600574443 7.021136720841656 -0.11017691266742316 -0.032722429933685585 -0.6567458793483205
Ni 7.633396079722426 7.743436474850764 1.6058785094669719 -1.8177125994286305 1.5164451291668528 -0.7331865761055631
Ni 2.639005141001238 0.11971780551208566 5.932392210409276 0.8693509139756834 -0.29898484487518834 1.7484712486333047
Ni 0.1011086899603062 3.5846543132475244 2.21550416041358 0.7237657970122955 0.974558141342657 -3.1768933755219546
Ni 1.0415295469862822 6.328039565093001 9.66959583995227 1.4337360829023953 0.270893743065927 1.8880073311891357
Ni 4.539780737798434 3.0627537590263243 11.103219237491949 1.253993860441324 0.6336756277924184 0.1827226452456337
Ni 4.979737505393609 6.026880788273494 11.905920164466103 -0.681412271746749 -1.5860392353159074 -1.0541594952160684
Ni 5.713600810569291 7.393885991273465 5.29649650980335 -0.4964206279612805 1.5108061857135207 -1.3320764636773639
Ni 8.22598501974815 1.8970982739481537 3.1111184677176293 -3.1116590890034925 -2.0549745133727253 1.8989859416878263
Ni 1.440030318007304 6.744815234222054 12.350648142086937 1.737370510734453 0.4882069818022366 -3.4949969435044643
Ni 6.929146860579168 6.475979659761733 13.037435198020194 2.011991067832664 -0.1595626621894026 1.1090952280219997
Ni 1.8303199529451448 3.0371242152202065 3.649332370871434 1.5121159056638798 0.8738061215335596 0.8638055586774219
Ni 0.6721634135755933 0.9498292177126679 7.966960915036201 -1.0945803222352763 0.5244883327317742 0.1178457420665906
Ni 0.7354403646456267 1.1353711022226307 5.011516091584013 -0.5438435973299344 1.822859176626577 0.30114277175845555
Ni 3.516060605015241 7.024496583667529 3.7985329959547487 0.22899221773613468 -0.2779012847320117 0.37876180509451546
Ni 6.966311095549753 5.025736624879998 1.643676733516089 1.564588778751615 -0.21203810638029932 0.3053578382810676
Ni 0.598551788848033 6.597582675088835 7.494260147631772 0.4924981529784228 -0.5105794359601658 1.7548265014273714
Ni 6.33675342379352 4.646404481064495 7.795196423144717 -0.6177617847756394 -0.20530284453899483 0.49826822269298054
Ni 9.079170469116717 4.496937599187554 4.155920366555655 -0.9052967359426731 0.5275813698348011 1.7799734330066441
Ni 2.4666085219668425 1.551644048734346 1.3068190650587534 -0.4654619747962371 0.12685874419847828 -0.3377079724769991
Ni 6.818510646052505 7.244884593301465 10.867590353842395 1.8340761283883185 -0.2932284020073853 -1.2421978962476607
P 8.316614736040396 1.855642277374001 12.142325475269102 0.30261395698734334 -0.14357451429126242 0.6659465720109821
P 0.7896757563460627 1.4460909184496513 2.8285222580594067 3.0833635844929095 -1.890255246683048 -1.8854380278000622
P 3.074372237293682 3.4405777349898132 13.205085743159797 0.16531601973341203 -0.14717585848927559 0.4596039733535633
P 5.788999893491829 7.385758642293173 7.335602751535651 -3.479512217605304 -0.7561766092428331 2.5438736361459804
P 2.277510340423121 8.845236877848963 0.2896036043632224 -1.4181042899024094 1.12408450234198 0.27035612539490217
P 2.596916086316363 5.309700426250941 7.897021027350825 -0.09957239767869949 0.7947344149113733 -0.9896507740097215
P 6.412180435750354 2.113250380047116 6.81750147694659 -0.49230814845480375 1.7313507869029343 1.6280839710917834
P 5.181282726555485 5.87734873864986 0.5153493337430435 -0.3469400325982283 -0.760095227570949 -1.336253220762873
Ni 4.211251507368325 2.868944880364588 7.2976006455361695 -0.11725207434664968 0.8840295990337809 -1.3546057551281316
Ni 4.391012081778905 5.561927534982924 6.297886448698656 -0.2970935413897464 -0.03300782238458832 0.7185374587338206
Ni 8.3785985728225 4.791374788419696 6.596138744015704 0.015481640575366887 1.952842582496966 0.4036878789122338
Ni 8.047546419627604 2.878878306896054 8.780290701495806 -1.3793392533190698 0.6146108978514835 -0.1630249097063902
Ni -0.18825937954701547 8.756534264923177 3.27790972956871 0.4181256516041186 -0.20037481110975813 -0.5020868251081225
Ni 0.08397888225843307 7.6234719628690595 0.15883986578685821 -0.35074603660787984 0.8872604472662526 1.7196373551207482
Ni 8.266314545272342 3.507346746314723 0.11217882818764172 -1.4148094212012214 -2.1602041093372026 -0.09945104160948678
Ni 6.365902025921001 8.978476990799619 8.805061892981211 0.9122091467917901 -1.8548359866434896 -0.862357770487302
Ni 5.349108293643346 1.6396111970903235 8.93216227322568 0.7603240557523034 1.2549276851095033 0.31532703367863757
Ni 2.1020415276161075 6.728765349179647 5.875423497219019 2.732071445573572 1.858957722121347 -1.142913205012709
Ni 5.750225084210144 2.016038721338986 4.764809621964645 0.0846664271011445 -1.2699282722833936 -0.3590489000466204
Ni 2.302674400324297 9.064610132570126 3.8051410054693084 -0.10969663059689495 0.21022727842380565 -2.4086377236274
Ni 3.1164240532661607 0.9068082642500994 8.128357218429 0.6938281289125986 -1.4212585192606748 0.2172366198621033
Ni 8.828172237893781 5.021435553598332 11.74528725467741 0.9367176734561159 1.7511523950098937 0.05780611237519077
Ni 1.8013761637358385 4.482181759400886 5.857342240415444 0.3327346876321237 -1.668289596776391 0.0012536699014430023
Ni 5.476436761001238 6.911430543157068 2.2762339835557697 -1.4745430896164282 0.3476203464947046 0.11910969638067877
Ni 3.620077638413626 7.279861053918822 13.526637369854823 0.4264675958109107 -1.1375473127151055 -0.31713271942880866
Ni 2.8931407337434836 8.7386317539391 11.674093353352118 -0.10764694715671784 -0.04900291226126399 0.6016738780748413
Ni 4.388582255795107 0.8843877664846532 13.415642732721356 -0.15910654848859052 0.45931703824076375 -0.7638572657165426
Ni 8.02454220504536 5.829711115818075 9.260553720419926 -0.26028742830499046 -0.9188698466414176 -0.22611515329865575
Ni 4.168780755881398 4.424433826153756 9.186484990497712 -0.51654233841182 0.7296127427113757 -0.5132667529843419
Ni 4.771349670829083 7.652965023086197 9.836278178569595 -0.3552799199224913 -0.03491532381994632 -0.21403199688187655
Ni 0.8425603137543566 3.045344660981486 12.489984232256717 0.4457812085378581 0.021919940001542893 -0.03137388632559113
Ni 9.130652989003325 0.9392068750018868 0.6062629952173054 0.08123863236651815 0.5053588109911747 0.3949458710535456
P 0.5127249354869794 4.21564567543098 9.990344041427365 -0.29638186003470246 -1.2287916501440836 1.32540625074604
P 6.94031847429778 3.51324908222939 3.4580007975517995 0.2173057825371419 0.21277524165664002 -2.678159526046465
P 0.1617966195510511 6.2538786693576105 5.351816479002301 -1.155159883590546 0.09246663987185366 -0.6976534161959598
P 6.111999175131226 9.19810160682945 0.6844075022111931 1.0300782858971487 -0.2742410622716051 0.1210951022418237
P 1.9829800544099905 2.187932617756043 6.8147346406156135 0.21386230407323167 1.0485573185379424 -1.5365275017390247
P 4.413327380181835 0.11726191242961059 4.485701748690059 -1.5188347124449517 0.11065745184826749 0.6436422520868269
P 3.16620290206068 6.718208174215557 10.861309114029105 -1.2997414989900842 -0.8082293640740144 -0.05341492528603058
P 7.5741120495889875 8.871797389464964 4.7046663085426825 -0.1976011050193629 -1.3130760113154614 -2.028516319181197
Ni 5.1616486154450225 0.15221044401267136 6.598822724211601 -0.9700918780411872 0.3705479018251554 0.2943625156118285
Ni 2.4774636066300944 4.5070572192809975 11.245403158192165 -0.0624639228621763 0.7916737737081785 -0.14125075125409223
Ni 6.214089105163151 1.3919737596610706 11.62261548830456 -1.2582114980670975 0.24401234529405075 0.3852633536584591
Ni 0.23836592901061415 1.8349841016726658 10.306854477431866 3.6845661793582867 2.011285300014891 0.5469209507036774
Ni 0.7227010011351684 3.841405925535546 7.9553247483804554 1.3091375954930033 -0.4447761643121115 -0.20976293719287745
Ni 4.165773729855472 8.95077138877746 1.6646188543994385 -1.7993631503871657 -0.9449290056223145 1.157215223457678
Ni 0.3428745134126182 8.56288365078912 6.180583573685411 0.1578387375197604 -1.2274073682020474 -0.5630641361224431
Ni 7.56740908135782 0.3133479383543243 6.539837534745134 0.5397707128121414 0.7846091535519133 2.201579329849879
Ni 3.4185510366079477 7.686172644864774 7.971444456008604 -0.34653894050506767 -0.727113887548922 -1.2191009052188813
Ni 5.255918415873918 8.397245858054486 12.008467199692682 0.39213102731256977 1.307445038281929 1.0138240288218152
Ni 6.82748517573979 3.992585788182675 11.922829332797036 -1.1169967422572633 -0.965348449818931 0.8634188647619645
Ni 6.5002406808873205 4.174589995015077 5.294166297375209 -0.873779124950366 1.3376742694801156 1.7561333931642529
Ni 8.528624035385374 2.639777844283442 6.34980000668124 -0.006340083285414887 -1.595714296511826 -0.6593617197046129
Ni 2.5199529774732192 2.516573564323339 9.656310929305219 -0.7141539849541443 1.5429465178914912 -0.740218800361996
Ni 6.635770974650294 2.2201068652656484 1.4772252749156156 -1.0817119509130404 0.08952041275933614 -0.4178009212748482
Ni 7.695137864873961 9.026207710412393 12.487422208843913 -0.40418487315331036 0.33682299876888444 0.9384724513636935
Ni 7.742654461890462 0.8841373361437943 10.109991093385899 -1.2544348046334848 -2.240421499528058 -0.8503409485320839
Ni 1.7179521382920966 8.830015554157352 9.641404272733348 -0.5838036826626397 -0.08235474824883236 -0.3896334577016967
Ni 7.218277533294969 6.683576171687858 3.713276825861154 1.6624272244583433 -0.6627290935149489 0.9925849169373808
Ni 5.914038180037404 9.108570432552867 3.1129850581764473 2.6633466294033488 0.5982445406783181 0.17464552466445404
Ni 2.7536352074323047 1.8322563659897044 11.843650520566365 -1.22998798444503 -0.9414826989449269 0.9905401185932101
Ni 3.956250114562886 3.9244296348210375 4.3082276312205545 -0.09265998682958236 -0.4030541019829768 0.6503970543121573
Ni 2.055213846778922 7.200682241688153 1.8702845390878626 0.18646154346277566 0.2027656799394379 -0.13100156272225827
Ni 4.454243415426255 1.9268240761177626 2.811477168428233 -0.793880294441194 -0.36177015563252535 -0.344116189996188
P 5.422570963521326 2.745805768151177 13.276265679967942 0.2966284288278698 1.29584602059042 0.12329545232725218
P 8.795271835492466 8.48693529685875 8.54065586336032 0.4200604067329863 -0.30355318097216105 -0.03253653917512461
P 5.188953901308932 5.602908737974034 4.077477018894795 0.21059905994092765 0.4421083876719612 0.1424789672342385
P 3.8861854771909856 0.8243152066162418 10.26575876540014 0.025390415048646593 -0.48679493194605833 -0.02555933652634308
P 2.047151665545323 5.041609626038527 2.6325041927848143 -0.08764376456191357 0.046395042324771714 -0.03002868515160635
P 8.909482966409087 5.3797092055542475 0.47936556595539126 0.17892975386210475 1.768836185442902 0.21331851575461974
P -0.4421761948539388 7.5153028130385895 11.625327397534752 -0.05503420605700845 -1.0448474737865232 -0.8645828031630787
P 6.129557228025646 4.455193002592337 10.064944353969022 0.4528139470149234 0.6848686057264656 -1.6698975646934593
