# total energy = -340886.5744912815 ev
CRYSTAL
PRIMVEC
9.10043564008857 0.00000000000000 0.00000000000000
0.00000000000000 9.10043564008857 0.00000000000000
0.00000000000000 0.00000000000000 13.31940744540233
PRIMCOORD
 96 1
Ni 5.440731831008647 3.1501066858661346 9.64092049105177 0.04304129536119038 0.34620932507979085 -0.7023716476072355
Ni 4.838292094081335 0.44543265148363737 6.300572838938853 -0.646041605556939 0.028300903827222227 -0.8251186836301854
Ni 2.57174670156212 1.6130158100789802 5.1239756988720915 0.4614322848115537 0.7840507099452819 0.18800471958017945
Ni 3.553583599058318 2.9288841966296504 3.3812650307013024 -0.0801248304770491 1.222913851207068 -1.018648189683336
Ni 5.243033967823268 3.379110047548923 0.49902602683279124 0.12997466411964068 -1.4780446750117837 0.23225829008191615
Ni 5.175053713818721 4.824049912352136 2.838139202947409 -1.4005251433680654 -0.35996806942678006 -0.12808721728894068
Ni 5.378038930093342 4.956916272253928 11.66309916649188 -0.46334287157070525 -0.8965750397989591 1.087033877346586
Ni 5.6100090337848965 7.951542015728137 12.500530351733172 0.4935996135727177 0.5698821874855411 1.4259646664870924
Ni 2.0151640596721454 5.653527316870539 11.85668363278167 1.0985773592098111 0.22308819354687387 -0.9289534561296647
Ni 8.161024943028094 7.053501929326165 9.475599247635062 0.1800643816871802 1.549926291643434 0.02133372848076971
Ni 8.14599102340085 0.3447427017671029 7.292895258344561 0.3845899817405183 -0.9876681963620538 -0.044442803694407326
Ni 8.811942700448341 2.006518645842919 1.468012199204515 0.27424466181603085 2.6954162562443837 -0.7317297890543785
Ni 1.6442394046559015 1.4135524623853166 2.745276537898788 0.4855407478239831 -0.3309027766297076 -0.016493369669332885
Ni 1.9018545358956236 6.971525205353881 0.5864611920837804 -0.23285555734628283 0.8934544918921064 -0.29632452443420576
Ni 7.226947131611662 3.9389415449515646 4.033662518951689 0.36589677620638916 -0.2903626504238161 -0.16348128051751845
Ni 7.61954902425024 4.2474190108139664 12.963152816039994 0.8627622050145722 -1.4591470667763322 0.13561592156581806
Ni 4.722106832652144 0.3686750273335231 10.390682629846903 -0.3960167355202212 -0.40080850048190975 0.5419162984002345
Ni 0.4565069715770957 0.051624951126773184 0.23539095743724484 1.6873584404823843 -0.23727476945990109 0.4371201904287504
Ni 1.9902470669727543 6.752596025891044 9.255256770522038 -1.8253726870770497 -0.10997919483432027 1.3021400811292478
Ni 8.881570133298245 4.927995087886264 1.7667258077012566 0.692245357806511 -0.5040938282358222 0.29904243758600113
Ni 6.635791934840393 2.0684380097313984 6.926278749545955 0.35880541657724657 1.4379251812830784 1.7063352386952033
Ni 3.2114800236180314 4.595374166351298 0.3474437110560654 1.1774575186464817 0.016717312754680885 -0.8073166224517581
Ni 5.701650420374695 5.799516504921535 4.967792202851095 2.3691887736031583 0.5098829241137736 0.9700898211586584
Ni 7.051809248302758 0.7530637768343356 0.44410125775393655 -1.5508439183616969 -0.12567500830302225 -0.15751040764606422
P 0.2494247391909814 5.690520587624017 13.15492629564345 -0.15010485921061245 0.7728404430517593 -1.567485897793752
P 3.944329002832514 6.592828778326943 13.124104940320478 0.4246133162109913 -1.3809965864168345 -0.40296205648980277
P 2.4335201850862074 8.963474053785651 1.4824636909527376 0.22932980358121152 -0.20325933174640476 -0.5545213887587547
P 6.51906064727462 7.901435017261064 6.108040383005546 0.3302779985615151 -0.07968517183646921 0.9765263208126215
P 4.964242122919746 1.1956243308395478 12.936314721383393 -0.5973613667424164 0.010138631095898666 -0.22579402251381112
P 3.8485378176046874 6.354342762738836 8.451337029369949 2.232386287928407 0.008503409485320839 -0.946661414932389
P 4.669934035301666 1.222143000206248 4.00060427655585 1.1558836491304478 0.36721189547338695 1.6319753357263893
P 0.5579085753583095 5.996513634564967 3.597279340638349 -2.05810354592001 -1.3433342959793704 -0.67215630036612
Ni 0.5174089067644091 0.3547613713298347 4.705613203153102 0.3577525498327 0.0790375109501413 0.829874710257932
Ni 1.8017861459312323 6.931883707837976 4.982044395059464 1.0543021914415196 0.3402999015738914 0.0059356487581446165
Ni 6.733093792379432 1.235820954927645 9.32900579065958 1.1339968763596857 -0.27650106195037544 -0.8067363244682557
Ni 8.791448519455269 2.4724973508026027 10.43767363916121 0.264471384479351 0.8941690014606277 0.6646941876611198
Ni 3.818870397517027 4.688726434835721 5.052504517767658 -3.1663958184247405 -0.308535721788417 0.40920598051698553
Ni 1.4157001651892087 1.5375640984388597 7.417138045462591 -0.38870683212236923 -0.9937984776295077 -0.6959382332770659
Ni 1.7023365855883017 1.2759265746596449 11.526828333628496 -0.46596668234679745 0.03506496202393316 0.08015439816340389
Ni 4.4916929034498505 7.457806982158832 1.8599224587367544 -0.7426091549710436 -0.852062559208881 -0.38480621151638245
Ni 5.633378952430636 8.22835906610435 8.163358294718423 0.3510537976562857 -0.9029002106860385 0.937503916802837
Ni 7.055067204251035 0.6744096219031573 5.015316497692131 0.48739811274769607 0.8616669150678645 -0.2667403830191858
Ni 0.427224499915726 7.5962155073469395 6.737129835572339 0.2492568815224417 -0.05023087113109413 1.6256231682561162
Ni 5.084586283422575 4.819545196725329 7.273901739183532 0.05691342535759231 -0.2603015693723775 0.36706714236540655
Ni 0.5101076272747374 0.012708758328962549 9.684315008213119 0.36012310694740557 0.0996544158695445 -0.5321041974058192
Ni 6.440159870538418 2.2825348578854783 11.765525479322749 0.561814065765426 1.127897191219851 -0.331801377184577
Ni 8.320255264891221 7.526733681466789 4.742907698325262 -1.0627840036602858 -0.8808967098317539 -0.4970040112685763
Ni 7.238177069154047 6.214778482228295 7.359052695096484 0.15936443013566748 0.4594011133141378 -1.5703938154691663
Ni 2.47226983991236 5.645464330920333 2.3599195020491015 -0.09778933763634771 -0.9209485835473172 2.1055252297370837
Ni 3.7136147592551 4.694505211447888 9.932201773786058 -1.3689987906250098 -0.2860920480729202 -0.5568212405365249
Ni 0.9916835688259061 3.6093419680390224 3.5390201719520964 0.028609179096260408 0.9003522474532043 0.8263517847063381
Ni 0.25937333539951835 7.536571252360887 11.74270886716208 1.4096641295548562 0.5348642766494596 -0.6445117991759739
Ni 2.280150543755734 5.572697247785078 7.105157821934012 -0.671322748721231 -0.9262198592485856 -0.6413118041814374
Ni 4.936494894745735 2.8512665813144182 5.640782156799137 1.0024137301023446 -0.5232128084534603 -2.0782129150753756
Ni 3.887842599003033 7.164008518934896 6.200517189584316 0.7934455208966207 0.5899146806563841 0.4793001662309101
Ni 1.0366761224803214 7.897585532998155 2.8053066513546905 0.5011578855359498 0.3051081841641068 -0.13529221967781216
P 0.24964041951493157 5.800745063728847 8.104446624798953 0.15151665195647454 -0.05334139173561781 0.04828686003084587
P 8.635312345699443 2.1819659439625534 8.32722710861182 -0.9061380008970459 -1.3757137407513405 -0.8333570123795777
P 1.9664039256753094 3.389812159825944 10.69633623053961 -0.12735265311576133 1.1571316626049362 0.20708204792660462
P 3.7579702824168355 6.52317404417021 3.9726468283192546 1.3081682896011986 -0.830468377977873 -0.7033327259689243
P 7.29743000540888 4.31140417358585 10.65430040841479 -0.7686834834605923 -1.4645037031025552 1.9144565265195994
P 6.338708214361351 7.8472146218984005 10.49513378960093 -0.2501598529526853 -0.8134024236345218 -1.6879500513197965
P 2.2852467876971727 8.911838182136147 6.248853243281739 -0.6708422095403866 -0.8174611670849277 -0.8917609062397676
P 6.91501150021757 3.915944744165823 1.8030611169601531 -0.3322708606218278 -0.05564741416097513 -0.06235593652940228
Ni 2.799667111407352 1.9196276866413906 0.32751102694011364 0.33293934744376213 -1.09306851357644 -0.34259846780008096
Ni 1.1375089490359283 3.6565641284178168 8.388202757327573 0.1359391092331917 1.1144302670816677 0.6808237462331307
Ni 7.561069625022232 0.32982162754141947 11.288530697057508 0.9189937738137913 -1.5951815639368074 0.09802690756845053
Ni 2.974914199943573 1.92881002617159 9.471696980845618 -0.9165057172846152 -0.5814758058604115 -0.19004154750455013
Ni 6.404986686906882 1.8753631678357525 2.8324386900814855 0.5819915691545654 0.7165160574284176 -0.3876737628721646
Ni 4.085476759139144 6.931419585621881 10.803824205656598 0.7058380088892812 -0.05841983469978971 -0.5312066252922141
Ni 7.450080712326187 6.257068206506625 11.771145908355306 -0.8726270136237938 0.26380032655425534 -0.44740434596357787
Ni 7.586514442986986 4.202981583731743 8.54201558987224 2.005817849142417 -2.2140646068010836 -1.6457258525432625
Ni 3.1769074687367365 8.579453871927033 12.438954984310739 0.06913542134508094 0.9406013247812381 1.7056184151338367
Ni 0.20001028387380723 5.187284699278172 10.424234115852787 0.34327415371086684 -0.9931960681588184 -0.5234838027266598
Ni 8.732140980586777 2.602597178279043 5.603101803157125 0.8164334971513616 0.17953319177405855 1.9060199657164725
Ni 4.001543441510773 2.6292250528730596 11.508567399534048 -0.24595275684987317 0.5842718805483099 1.0362880142522861
Ni 1.1141481308257979 3.6069121517312293 12.794929443707348 -1.066484849550641 -0.9365580079497999 -0.02878349989059559
Ni 3.115361222708255 8.782648398220678 8.207991381166254 0.6736773649963366 -0.07092156671122625 0.7262044883607751
Ni 5.828929112812125 7.996279757185479 4.108797535432592 -0.8931742416475262 0.1643048048600783 -1.6247549067185503
Ni 3.459448693111459 8.579462972362641 3.827651407836838 -1.970576252331303 1.1324390449542625 0.2568208099126286
Ni 3.4269146358067393 2.8859665422942498 7.327991998316976 -0.7002458595134844 1.0051702098015591 -0.08441728720481591
Ni 6.171123692608507 5.597532336563981 9.48083381819777 -2.7790655549349235 3.1010072657166012 0.025123020319872867
Ni 8.206427016284945 0.03306825287500982 2.498827641152182 -0.05128913719227941 -0.19111755417754828 1.3616238383171775
Ni 4.388685072783523 0.9313840824759557 1.8309521320167979 0.13952168437812745 -0.6361199755678528 -0.5314645069392911
Ni 6.01691681120194 5.650924592286161 0.6305846541374681 -0.6365537206711618 1.8105021977231206 0.1900924553471436
Ni 8.03766853833845 7.420340488753648 0.48462913769822713 -0.36084147317066884 -0.5947324137600015 0.6485844265834506
Ni 9.046024105201347 5.048275545339825 5.637865467186224 0.22052891746012987 1.5030715360734241 -0.017766837065117787
Ni 7.149247612375944 6.160376078153438 2.8951861936104484 0.6107850963474901 1.092770522720047 -0.27558472078369317
P 8.516315049666852 2.0255294558316073 3.6556449844212358 -0.3490110561946441 -1.5171143873197355 -1.1636170132189636
P 1.9918032414620153 3.3838422740659735 1.5944400009124364 -0.5243633771181356 0.2847789856884515 1.2914139529609951
P 4.756142461832466 1.4039879045595096 8.339840312366881 0.8248091228095665 -0.31400625798468507 -0.6043755932767204
P 8.727736369751677 1.6667629827899384 12.507589559635626 0.17593236179667768 1.3410562985784709 0.3928288247105428
P 6.496091147795706 8.148766656261811 1.825544653177507 -0.5237586536546012 -0.6424330622700742 -0.03537760816834552
P 1.6888133382722699 3.803062940862958 5.802732598866007 1.6976166278752827 -1.439080120823128 0.5258960117125782
P 7.092597400705487 4.185690756073291 6.176608525150481 -1.8016388337952196 0.03873701155888167 0.7856000567102728
P 2.576333321109415 8.476154827321194 10.455481371562293 -1.8091238293183554 1.563488603708901 -1.1426164997078967
