# total energy = -340857.92818733404 ev
CRYSTAL
PRIMVEC
9.32340913408021 0.00000000000000 0.00000000000000
0.00000000000000 9.32340913408021 0.00000000000000
0.00000000000000 0.00000000000000 13.64575169236751
PRIMCOORD
 96 1
Ni 6.797846814280795 1.0593164286502692 8.050966152721015 0.5108146918994235 0.9997906906572007 -0.1958309004928176
Ni 8.84894089541588 5.527066141813763 12.316382969027499 -0.9224904741131403 0.8903449997288473 -3.630223342941348
Ni 4.733457551642129 6.066835593404418 3.0801327384439263 -0.5778952875980048 -0.738990841492166 0.8221084360489519
Ni 2.1722144899099884 5.43020524374876 4.106661533999076 -0.3855700862656005 0.5445079703868106 -0.0028276992567822265
Ni 4.194322091876328 4.464896749951646 13.079725908289651 1.663470321010877 0.6193324716968689 -2.601104592743991
Ni 2.6106011899789525 6.514927962439181 1.9123020825832646 -0.5326883520440632 -0.539468093970058 0.598990160595091
Ni 1.8438440182717721 4.82653314557638 13.759830382652915 -1.2789104211773459 1.5849801979237734 0.08056011824225481
Ni 3.8988166376295013 8.510296026851336 6.518384150225559 -0.7250233235684803 0.809161903190613 1.4211600460095977
Ni 1.3828760211469373 5.866699291752347 6.982763582772667 -0.6548566327454076 -1.435031147564735 0.11401891212133267
Ni 5.937081707720459 0.7397108939906756 2.3353480451725717 1.903161670332071 -0.07615453297539143 -3.0263074629098656
Ni 7.210976398856632 2.331318467721066 3.895384690707013 0.26898495607898837 -1.3436860228918344 0.39444039217203686
Ni 6.879007091271444 6.7213762121122365 4.7030632376858374 1.0779645680554661 -0.10118807890525154 0.4591206059592416
Ni 1.7110786714197506 0.47526544511623753 -0.19343836449066024 0.580601116564942 -1.8163424585539814 0.8906213933186856
Ni 0.24923430678250874 6.924682472888583 3.1562350659495184 3.015367161848278 0.9575420664006347 -1.2395064654584267
Ni 0.08565322787885087 2.5139267600977298 3.0030617087235933 0.6074542322020442 0.2539907966630013 -0.22606990188301712
Ni 1.3593996768089183 7.425060520655517 5.4254148761074275 1.2851718287060252 0.34925711076717914 -2.4424487586395744
Ni 7.1737759961923375 4.738081962599896 3.4243875023175208 0.5170753280971546 -1.0717203869179672 0.46571471423699157
Ni 5.620878285073949 3.3460969706752604 2.2675556722771772 -0.07565548185178583 -0.6315984335484155 -1.4700752836530617
Ni 6.630100036151471 4.356241739262498 8.296780633012983 -0.021190260924369958 0.7593226110709825 0.23966820939274205
Ni 2.3191514187293603 7.594196486754009 8.293110006815255 -0.4960907554256876 2.7152384331766335 0.6625995099156201
Ni 9.092095407066212 5.433487083783304 4.914258034977037 0.3312928129792746 0.23041943710096446 0.311742915871805
Ni 6.6056354104394135 2.6713525242547793 12.79218264549027 1.672192017154591 0.4691977876895855 0.9807496148653497
Ni 7.0791620397418935 9.296744238765783 5.162802409479555 -0.8104723944719202 1.6748363967559736 0.5206463332778647
Ni 8.688718108502117 -0.38566841515042005 0.6342435569032632 1.4071236225211896 0.6864297795659985 -0.09358764085017432
P 7.565722795090661 2.0511686684085984 1.6062956725668143 -0.2309737669425377 -0.2963772320490121 0.1339128228317823
P 5.391858061754212 0.6651320115465741 6.444097090489075 0.5768966711301613 -2.012605304377895 -0.7227566390214907
P 5.698076113159253 5.467293765502786 11.839804787897444 2.1675500081793118 0.17205822355325207 -0.08120906468016337
P 1.2544553829770115 -0.38442001066000675 2.4443228487969035 0.3281028452870672 -0.7156315979409352 -0.5955937333190323
P 2.867451789727993 1.7758856886928125 2.312968133755185 -0.3351492106108873 -2.696670954587091 -0.9474741406416716
P 8.509391656159998 1.859675167074773 6.689570334004722 -0.04884864607158684 0.5264670537246998 -0.911924782782152
P 8.53666262803796 7.904162548653047 4.683726487027755 2.1131349237635413 0.13739178251931822 1.3713017277265735
P 5.461998069083409 0.04333240888793121 11.625293653957701 2.671705028670373 0.05617603297093551 -0.6030445331701227
Ni 5.898865053454557 5.515542408056102 0.9932078634544164 -0.15063784889594703 -0.7875713215040308 -0.26402092720549364
Ni 7.2809672316388045 6.452675559283917 10.386982686332443 -0.5461329075847433 -3.6541400016579453 -1.6729785176116283
Ni 3.3594201224064077 4.183786639492706 5.814031353243424 -0.04903350838888329 0.016918115911577315 -0.21698208064913602
Ni 1.4218292247387734 2.959445868196315 9.888107572126783 -0.9123197042277257 1.355168312499821 1.263146987695502
Ni 8.005778385404465 3.589838857104502 10.58741174303305 -0.383761572301952 0.10583611920022418 -0.3877796923224096
Ni 7.003064373940896 1.139572334949581 10.598641789401256 -0.6285791871061175 1.241646651729881 -1.01061066409084
Ni 1.6143296542650156 0.10240459716881063 6.4231371342911805 1.5088323498166014 1.5943467267403382 2.2590560839101097
Ni 3.7377454204795346 6.042641346558843 11.164258528286705 0.891108103147117 -0.19702389235965423 -0.41081291999278924
Ni 7.6094402607781 3.889968722309096 5.818916819658484 -0.5503929684126779 -0.9770600818289045 0.20227408501500002
Ni 3.6502545486495226 1.8834498605068415 6.061278841527747 -2.233665925971779 -1.8154952800623378 0.8992836969793738
Ni 2.5364334698800883 5.394151620414717 9.005050194195437 -1.2458205806019125 -1.0388208079764691 2.1826873780413827
Ni 5.088716735381555 7.153432317341838 13.104520582687002 -1.240942940794637 0.890672301161279 -0.9179344793113416
Ni 3.6069100193296455 8.74980508550875 2.1256533844198904 0.3536318427961071 0.26447472691346063 -1.438170207414349
Ni 5.484495455456577 5.4091902794366495 5.6425999638025885 -0.9867981350522746 -1.3098173951688474 1.4901160043540207
Ni 7.339863207486011 6.990067541531365 13.440683559725423 0.9029035531201483 1.14768620092132 -0.0158549647543856
Ni 1.6526022489860512 2.9967022113157444 7.699424212225263 1.5044910421287703 -0.8421036482239562 -1.2377054076939458
Ni 6.161449549854861 8.181533972027179 8.255420125168534 -0.4148927464891177 -1.684184670740093 0.3003806967814504
Ni 8.463082282718004 9.326019743619389 2.997234577980439 -0.549153439578622 0.022309462130477707 -0.9481608822960509
Ni 3.713588467270715 0.222568424160917 10.087103620835032 0.1721993771168067 -0.5088601392762139 -0.06266164069527919
Ni 2.1170385543292114 2.518625758329009 4.57116310320656 -2.2216840710195545 -1.2522928185898172 0.17103029650936996
Ni 6.609830944574484 0.16340300178814707 -0.107113851150198 -0.6095124002826535 0.9654785476388921 -0.28208472668574
Ni 3.2591468565782127 3.586883336391574 3.035101604401751 1.4437073351824943 1.9018997729005114 1.0067699501885112
Ni 0.1599831752976048 0.7531095653362543 4.912962081099758 -0.7647324692326443 0.9646203134036547 0.2860347124724235
Ni 8.968774673722695 1.9384952683589716 8.843320744356724 -0.24269131248978204 0.524090325962407 -0.5601654744184095
P 4.643234920919726 6.372848529807301 9.146037855611278 -0.06754262293666433 0.14706478683270802 -0.4096037301760365
P 3.603926528389151 8.990554157588308 12.27371252219199 -3.7515009935076233 -0.6751824887869533 1.15072524485796
P 5.810208755475915 8.009796774764943 1.306309387863731 0.009881777890086207 -0.3870258448755205 1.3684043515741207
P 8.93654364815616 3.4356296691176733 12.535997737157327 -0.43183605921167567 -1.2581559622388139 0.6243106416377505
P 7.298541857960157 6.375347203469966 7.4724001308129 0.16059778832213634 -0.2935747296032105 -0.6605364567390043
P 9.507639754622012 7.942677552012998 12.179720437134458 0.3020632266901959 0.6362053361928076 0.19869356675259328
P 2.9396522704879695 3.8653642454592023 11.358805446129942 -0.24515108688418422 1.4010154527409224 0.07244983043029458
P 8.349271426747315 9.235498763802935 9.07345604741547 0.15006989220761896 -1.8654772684074195 0.7959464329416034
Ni 5.5244089701948855 2.6680613608110457 6.814906788414912 2.7128236530875536 2.637280785554232 -0.3451680282994701
Ni 1.0194961480038518 0.4877038053153444 10.278403195257727 0.9077655091981398 -0.9829792755268167 -2.060198994996458
Ni 2.1990472615560637 1.9347099642282188 11.810835090865238 -0.7074940564354654 -1.0436526821474734 -0.706185364926371
Ni 0.24060922094172185 2.141242124583976 0.5469438149616267 -0.7462693774314503 0.5396295592485868 -0.2956154141823231
Ni 2.7608852226971923 7.24277854760047 13.377530515242498 0.05585618773767155 0.501480044762059 -0.6770807342509306
Ni 4.5244453644420854 2.025277561090616 12.164178314016317 -0.14714217703786273 -0.11117707179716337 -3.040135627042209
Ni 8.204087298855482 4.992694944143565 0.4951867735304731 -0.2278154238192141 -3.010220327540016 4.720722038908082
Ni 9.01956860698462 1.2004635203632434 11.836570497249763 -0.6700814201149622 1.0621250299200482 1.911118206174986
Ni 9.209523745802253 7.930557120067237 7.012128592354487 -2.011465277236181 -0.49849987908781235 1.5400216309352122
Ni 2.1804750304514835 7.780347674622511 10.959967715499994 1.2786697659214497 2.617553482328634 0.06223200935702831
Ni 7.43921345580449 8.256139892357929 11.393151953241471 0.6803246951095251 2.5405435433314825 1.0986519212014885
Ni 4.883322030946861 1.1728102887085314 4.088690662787189 -0.7172704190959389 1.3970546683209617 2.220152464866376
Ni 1.469136202963995 5.877850089142447 11.566098396675526 0.8292751290007202 -2.4764706241109735 -0.6219871357108965
Ni 2.918590689129913 -0.14046368581941718 4.2760464351229155 -1.1897612757144995 0.0849559333171053 0.5889212063948632
Ni 4.2505049556495225 4.054405690176308 7.999644514498991 -0.376185559726907 0.5295534059595073 0.9335287342051728
Ni 0.33303870261917173 7.268334012187647 9.711913785272182 -1.4045854294803681 0.6954314688439764 -0.7012694156819922
Ni 0.5613988285683243 6.9025300526554085 0.4770825775671827 -0.46966212892051373 -0.12766041416416726 0.38384641870627445
Ni 7.636795143338762 6.525314240275778 2.3009465299468284 -1.7261957250645559 2.1861640237360738 -1.6480953812167036
Ni 8.942911536632279 4.384156026374503 7.750745850447288 0.01938534650514726 0.16417213593695598 0.7441983538350344
Ni 4.533778097040321 1.7390955160328352 0.6083944049266318 1.6606264238041788 -1.53950509631011 3.1873356539012008
Ni 3.695929930266661 6.171686653144435 7.185948639229556 1.6671472556418319 0.6741062250036389 -1.8165142082451555
Ni 5.674991352007174 8.165348533674994 3.55264404848572 -1.2559137031718564 0.15386149803956728 -0.43835046329142574
Ni 3.7712071360590227 2.5997860353196587 9.829594788397246 -1.1250347820703916 -0.31044528010630407 -0.36048537538283076
Ni 2.7725767778202566 2.8547439830033228 0.11806792460640869 -1.964493793582649 -1.3375565129553286 1.8239400683955813
P 0.11470217388916291 5.107233026031001 9.813247122725173 0.12480546121387537 -0.29246864102322534 -0.02457280424335768
P 3.9121304659514595 4.648950170752612 1.3997131658014363 -0.6149433414902378 1.7384742853215929 1.3688568657305071
P 0.9490204979438496 3.9095665284244716 5.906768507424112 0.4168593832971853 0.5768496199423097 -0.8283328196921089
P 5.541032608778955 3.642329650838833 4.39614313356886 -0.8738649997959531 -0.3429316827697836 1.1505920617142056
P 9.549781564156504 4.716815266239681 2.7238964614214884 -0.287967153608446 0.11455781534393818 -0.01394926309124049
P 3.857998752199856 7.133797217589706 5.000499569975717 -0.04979455492462392 -2.032611829406809 -1.8469095327075613
P 5.737346312663517 2.64621661308111 9.322887078131869 1.8311070184576657 -0.0532028092752245 -0.4447465966257566
P 2.4175133856738005 0.795840614331492 8.428966996154363 -0.3936582625903737 0.35196165418253583 -0.3171381187454474
