# total energy = -340864.2865320796 ev
CRYSTAL
PRIMVEC
9.29175957273179 0.00000000000000 0.00000000000000

0.00000000000000 9.29175957273179 0.00000000000000

0.00000000000000 0.00000000000000 13.59942936014344

PRIMCOORD
 96 1
Ni 5.909512665495189 3.048078120585394 0.4144793801402165 0.49764652994858166 0.030971765791166013 0.45580362577086664
Ni 2.492217184276274 9.240116029371878 1.5971577751683086 -0.1720386831692263 -0.2792428863615707 -0.40730387839826626
Ni 5.013656952586985 6.357691399459284 9.140299301553133 -1.2668784297134763 -0.5809880675907155 -0.2931396989483209
Ni 6.389348424516624 2.554890102976523 2.7177644283441733 0.7353211059500626 0.8487730898243319 1.1128906905086897
Ni 0.8103928953649447 7.018781513571269 4.874783242342055 1.5907191572900796 0.525403645457192 -0.03516883459164911
Ni 5.818629964560106 2.9451347156513594 11.649216565411313 -0.5586019865860316 -1.3403975819485496 0.33649852554993015
Ni 6.1853478418533205 8.037241994789301 7.926550191500318 0.043401249803770414 0.780883882181526 -0.1470658152739725
Ni 4.06127017409356 4.53567954549143 13.082678623660733 1.926100538516431 1.9008412497290101 0.31987325828842333
Ni 8.440309235752698 8.328380699257043 7.774290772333284 1.2851165499880577 0.6391240525014993 -0.6562617406230504
Ni 1.4306150630989745 4.689644002550455 4.538320263578102 0.8730360761367545 0.5326708685425665 -0.5514468635984889
Ni 1.6793554683777994 0.4866196727268533 9.17291059032441 -1.3558319142257487 -1.0468213096834424 -1.445444372478259
Ni 4.392242652092504 8.277090186102798 2.8519634543195562 -0.4084415915471353 -1.244089713953735 -0.3108934233873162
Ni 6.738123913965484 0.7901749555873507 6.484316712160751 -1.3336201540154 1.186743314823782 -0.4573707131476704
Ni 1.1492419980017248 5.846077822505329 10.56817143720951 -0.4434402191095073 -1.7074348995172852 0.9034416850118054
Ni 9.116693586214662 8.67809465642847 1.7544077984322877 0.9598599159005341 0.5745819069540556 0.7524287121646268
Ni 7.571046538903815 3.8218586954826446 10.052072727882448 0.9931695857962572 -1.4252365300718164 -0.051390695767150205
Ni 5.85814781826391 7.425426081991983 12.21742810861982 0.915843658220584 -1.2727919669844339 1.4030602510850931
Ni 8.21609907589547 2.401994198274877 12.693027754426216 -0.7978068831891098 -0.7899627045543428 0.5509303289733867
Ni 5.901252291184659 0.4420554643683262 13.352776138447714 -1.216873044329627 0.1713514272942146 -1.017371894074074
Ni 7.065426146910817 5.986541352822849 6.695175542606507 -1.2437824671259612 2.0573743810634695 -0.9199160285177447
Ni 9.174720625100216 4.918565084539787 8.602917816794948 -0.16128195887335448 -0.20299167990731493 -0.10054170357050428
Ni 4.80664583980376 4.792262195897462 2.108754626954931 -0.9824118330591209 -1.2969233128149988 -0.7514678909132542
Ni 2.7803732339029796 5.266950320084213 7.852909279733533 -3.126484069831467 -1.4386612881181546 1.7697455846310488
Ni 7.646328375421149 8.197496973117426 5.466861599334619 0.08316078908989548 -0.35609058874924476 -0.1499621629851611
P 2.993962912503814 1.0893194401517756 4.1473639021156545 -0.5564898253390352 1.146886330727844 -0.30910110737358376
P 9.493390813349846 3.828000548597673 11.482787212809457 -0.16394587885876283 0.5317229028070005 -0.5943387778660086
P 8.100621087221384 -0.15699171234628198 13.04364765816151 -0.2811444742596578 0.0969439589169169 0.6661527744845173
P 5.54437438733897 7.378372611228742 5.381811335918905 -0.2866538341136612 0.37550036073442433 1.1643695751142722
P 2.4659122127654647 4.298563131508974 2.7041241252082253 1.2991516879248852 0.4733562899426493 -0.37170129870330826
P 0.8442539258063753 6.127404428804432 0.05541977113354587 -2.7001931088077367 1.0283893282304999 -0.048835533445464284
P 5.859058410707591 2.0991757519529903 9.665467697454444 -0.5681618623603247 0.12513533374946836 -0.21654216489823996
P 3.5859502102520104 1.5769045267041228 12.333186708434713 2.2200244239289444 -0.8635209375574676 0.8010117632796526
Ni 5.877911390995627 5.115894183789186 10.896406562821637 -0.7915691298095142 1.503930798749926 1.0628097146918987
Ni 0.2489996453724849 4.203573472817699 6.362969118928779 1.0337248815108004 -1.1413101221916473 1.7401269904336676
Ni 3.3868370931537686 6.087329069522865 3.9480909667517876 -0.16547568523972792 -0.19796568744763324 0.4549194233937004
Ni 4.574268223232294 5.422847463146152 6.804718884405299 3.4822702399664154 -0.7239061792449016 -2.261662925405337
Ni 1.5713573462053758 1.378599792693638 13.372496039909175 -0.3192736770312114 1.130548512799769 1.1612708815842903
Ni 4.155098362831161 3.7189989163852752 9.651474307452581 0.7636135251368527 1.3517567157151105 0.30300425044722656
Ni 3.0242726324148914 8.459310884194807 4.941474847082016 0.5610550761122144 -1.0567812491096316 -1.5654791517763684
Ni 3.1076104245309084 6.850870125308526 1.6538672425384142 0.5883301097780835 -2.2374778435187013 -1.7454291193728715
Ni 8.042510422499166 2.345714010199649 4.765321668028002 -1.58436544715791 -1.001060815618876 -0.5502975804853942
Ni 5.454532363482379 0.134326323082306 4.333226969982384 1.1992471037177475 1.2370605750210952 1.376190423277443
Ni 5.931729262769066 4.482112551227984 4.370979389356604 -0.43948123446175924 -2.440576481317526 0.5780654946272819
Ni 1.8781805409275303 2.901928033374686 9.486227795851548 -1.7582100731876236 1.1181617090996419 -0.25164903590370213
Ni 0.33932855743365664 5.524034725510231 2.6034070258813933 2.215934827240603 1.9165884852609376 -1.998508974185829
Ni 5.681632260584349 6.8032126901693735 1.3489562919479885 -0.15394043090661874 0.7783076368139177 -2.7836135793169223
Ni 1.0140468953940707 8.39277259348873 13.166586929817996 -1.4105431897256997 -0.411046376159834 -0.5938880634818352
Ni 8.342569216211125 5.01084154941928 4.647537464613903 -0.8269449382056467 0.39815975000515297 -0.2856595885211919
Ni 3.6500912269737036 1.7533457503066483 8.594784739591342 0.7716297105731097 -1.8814402194945792 0.0013297745550170646
Ni 0.9883830552976898 2.449856052125875 4.914929218996806 1.4186552773098728 -1.1001537025579957 0.33176512463000285
Ni 7.150473622798643 3.78524916254284 6.298236217118694 0.588912721754431 -0.3326840368998464 1.9226346914550179
Ni 8.189422433999484 7.155593382354438 3.5326963482880758 -0.9754423437198234 0.7273113482717087 -2.0747205856514013
Ni 3.95229641716005 0.9046020462473507 6.226770506281151 0.23265938217507673 1.0252440977332988 0.4692399537814306
Ni 2.748195870306395 7.489176844809242 10.507394966649622 -0.44084880423324724 1.5486263418850876 -0.5642185614418606
Ni 5.243572252856661 3.0150737903817935 7.467392314358132 0.12152241958722941 0.1819978512644672 0.38876776726729173
Ni 1.1068158235339207 7.075860792974624 8.389188761799673 0.7023806464683 -0.39991247103020156 0.2436487913070449
P 5.720388189998544 2.5547600183417116 5.362173201942185 -1.1959694614077403 -1.3642329938052504 -0.533977503169132
P 9.09378939872821 6.259672627128827 6.558270756227045 1.256162843068185 1.1778694093729198 1.4766624499522762
P 6.093842593023068 5.124888607110438 13.20085772685908 1.628309456839028 0.8173084435571474 -0.0875943993812169
P 1.6992862927828452 7.550437416045822 2.9304862565956222 -1.810906632250391 1.4973138076540409 0.882688511624854
P -0.46104317517098886 0.7792143959285198 6.056396801716619 1.6827533376102053 -0.5490559947688093 0.49632729691652583
P 7.524838618266848 5.106407297207577 2.6184884809358597 -1.2661901453972 -0.10638710660768774 -0.4601822144545365
P 2.840546669262922 6.651617631815843 6.114942320789492 -3.298684475389538 -2.8506430100625937 -2.4220617103427897
P 6.435835097942472 7.59510290458431 10.119430551787838 0.22986613570065573 0.9944592511419583 0.6059110560846404
Ni 5.781769554110308 6.375308575716612 3.510121089092505 0.8467979683758319 2.664709571189146 0.3522012809971676
Ni 9.00944809657222 3.3535633019209157 2.8376838781211067 -0.6759301655862553 -1.1085766365143683 0.818939551402667
Ni 1.8839507236573825 2.2051482705262067 2.5118962019953632 -0.04534166135959288 -0.669691126655079 0.007893286705147697
Ni 8.519261317323643 4.180065320955337 0.5985194047676587 -0.547115840323303 1.6931385374992713 -0.258305107767639
Ni 2.0126415945244625 0.6127924767343678 11.3658318343543 1.7931297678829443 -2.1167948891136317 -0.34990837119793283
Ni 1.7249687163984848 8.647849978834799 6.8529700629847685 -0.9185314894653922 0.9090004100465054 -0.09369125630757413
Ni 4.570021889081662 8.914003141659105 11.057111262315825 0.03231311031040887 1.730842736918264 0.4832470666938001
Ni 4.6739037617382655 1.0219634745983126 1.9483082383784407 1.026300564022271 -0.06907011532478427 -0.9714378505461203
Ni 8.464049681605795 6.973893022801677 9.730785980121183 -0.8848076148503858 0.09096305874313367 0.37022317149588496
Ni 8.03833842242557 5.756077838735038 12.015422466748948 0.41201671049290334 -0.8247546154225472 0.3624345286894016
Ni 7.472563178591888 1.1456832540636677 1.2910361082981732 0.7727406842491015 -0.028786070993756872 -0.10070985371725237
Ni 4.146131814788798 2.823579916179652 3.3602013350001534 0.040575350319201085 -0.04291325442375835 -0.469476752382585
Ni 3.53093370148638 2.6030957519338087 0.6586212935784552 -0.1250648855228491 -0.3546679973701053 0.1519632525755899
Ni 7.215878318829933 0.39308603276950427 11.030674347818277 -0.37184553759065636 -0.08596766241107129 0.2139245247697348
Ni 0.5696963663972846 0.18501565938852838 4.081242811416939 -0.309877323417976 -0.45633095902924636 0.2382600161913058
Ni 3.9521477490059804 7.577327768413284 7.389698337041007 1.270314709088535 3.117706323638837 1.8708686146263198
Ni 2.8713023936362103 3.382562883724248 11.70904063060919 -2.54320489221373 0.3797575933488815 -1.5056691215972715
Ni 7.913726634035793 7.154236785448546 0.5205253036145049 0.4486675289467176 -0.7910610798248441 -0.7657259434941651
Ni 2.733245429062703 6.83003800021943 12.925400725117866 1.2900921488257782 -0.6162463765723775 -1.4771897832106557
Ni 9.518757317138085 1.7250988010332964 10.92548233705393 -1.444138766292958 0.620584341826099 -1.5794332999636154
Ni 3.212523682506374 3.3134414838412005 5.346901265815316 0.6886478702632398 0.1042849726630204 1.60992632634615
Ni 8.92907437577798 2.3108606198298 7.649705930046433 1.3726443577973972 0.02764167297666852 -0.01511088749950946
Ni 1.9983322846951987 4.498475339935344 0.4753078845540315 -0.3489560345869926 -0.9412880664356177 1.3891364419151493
Ni 7.359603256777369 1.0723341035492469 8.624772035443279 -0.028762673954989177 -0.21257109606563387 1.6200510734849778
P 0.5286137803718907 8.124528784747811 10.86957474853984 1.0499773388139206 0.4854250481817252 -0.14176754298951066
P 0.1861706251104618 2.285559158358965 1.0602427367435192 -0.9851845107082516 -0.23938718781721352 0.0965598361046208
P 2.3504992664087867 2.946751481826873 7.29016500789096 -0.7573806568532634 0.8170019680603219 0.17706184741543055
P 3.4471963637062992 5.553099349630969 10.695175853703857 0.48375511667847015 -1.5471227607563678 0.6327538873090973
P 3.6668442695854973 8.886917662339426 9.113181301074752 0.08965359590309074 0.3657075430137186 -1.0346929018510245
P 7.430527258028519 0.05504066734066668 3.275490220810912 0.833735478764919 -0.04503004365644503 -0.1549770997012492
P 4.235304831952074 8.288082337744369 0.2308398303528011 0.4617284758957338 -0.09590677590165418 0.9805662952099499
P 6.628053729395705 4.972698876140625 8.436991148389042 -0.7645998003095219 -1.5521071013448366 0.8247209339711346
