# total energy = -340897.11284908495 ev
CRYSTAL
PRIMVEC
9.01574841091010 0.00000000000000 0.00000000000000
0.00000000000000 9.01574841091010 0.00000000000000
0.00000000000000 0.00000000000000 13.19545912518917
PRIMCOORD
 96 1
Ni 6.33879224867149 1.79749676707399 11.183349551099248 0.36119859939977145 0.3056537722549317 0.5105730082022626
Ni 4.598004537813213 0.33584293169708573 6.014608482554397 -0.24840173261099796 0.008961837178978114 -0.5568888605496668
Ni 2.7759488726260906 1.698224363577771 4.7462090131226535 -0.07605220306957225 -0.6445531939368705 -0.17410173634584208
Ni 3.3994058925671085 4.158703190727864 4.848764050540676 -0.6164811182910028 1.7344790481192711 -0.833567842838803
Ni 5.128067422088321 4.611311782165262 2.8060407354132426 -0.7271010320331155 -0.48281537847302014 0.10329072707055115
Ni 7.0583751759848345 6.109188189109396 2.7089483398332335 0.99361901462885 -0.27746676829775435 -0.9136967870809104
Ni 4.9890716319964845 4.45093965307701 11.480616800947338 -0.0994592691396029 0.09311507208912996 0.19946952568666937
Ni 5.695951370087581 7.771746252784248 12.384558255450989 -1.1504935884631284 -0.0012881226838042331 -0.07941469178390194
Ni 1.7613706640125653 6.49901111004024 0.5038658247129462 0.4884558645882491 0.2640564084291194 -1.2877120786293759
Ni 2.809965290607312 1.5280431004413952 0.39264935799342376 -0.15939579759423517 -1.0828427220833738 -0.005986299490421948
Ni 0.4953107812402767 0.06708528082599376 4.523020559983946 0.8491304731637505 -0.47288140718875976 1.5580895441805167
Ni 8.599382922346452 2.352686541599208 1.2089604446592555 -0.013746403051815036 -0.2886996608990963 0.6302702016552952
Ni 6.978144032699678 0.8744184854282949 4.945525568161525 -1.1269001174139044 -1.2374683519824752 -1.024501048919687
Ni 0.70935095467436 7.527996484286947 2.3765548333997613 0.4697860560928877 -0.17611491012112895 0.9554185922997288
Ni 7.499200184516996 3.906875311837991 3.8316046332157736 0.13107921003772907 -0.4363023225131454 0.09788626822552819
Ni 7.60177235185661 3.775317514016101 12.650988040135292 -0.21515582607367462 -0.15792255548281836 -0.7503103802700433
Ni 7.995580233494504 8.797053201762909 6.998765753571252 -0.3567930141329081 0.20657116972845713 -0.7135466903874486
Ni 6.718571626100855 0.6722177925383253 0.3143755336437893 0.7278805905116175 0.3127713571363194 -0.15713451236388423
Ni 1.967236258548272 6.548678866907071 9.122984219882323 -0.01953832714324377 -0.499930697997068 0.1795697014389488
Ni 0.021952445306779044 4.780077572833297 1.2818455563061664 -0.1623098859172366 -0.34142938719264426 1.0103918632118147
Ni 6.499272566738214 1.9447509825225187 7.014494627891432 -0.351482143442956 0.6077149420625986 0.08760005580817172
Ni 3.4376687279533544 4.272445870094707 0.4567729655337479 -0.44445734752011196 0.13042897804823989 -0.04746744945334405
Ni 5.904377437113791 5.754193103498313 4.856377849900639 0.37781898156527194 -0.7369468144789437 0.36348353877920625
Ni 5.277620653329378 2.9175952926904896 9.186124209293373 -0.4629608056409382 -0.06444547206857934 -0.20769165648614554
P 0.22293601218893924 5.422720104956674 12.400207791186954 -0.217741841633296 0.4074591730292079 -0.5516713209044692
P 3.9816699589549316 6.092545117921128 12.581434247450497 -0.2532878570587057 0.9038314642510563 0.10461073143355532
P 2.503871623265551 8.533613039183713 1.3859449913918755 -0.8568316984627502 -0.0889308588044533 0.01156199380598654
P 6.347618666165159 7.752948417774746 5.818814380339609 -0.2763647934828273 0.7468419621054686 -0.8709809933799387
P 4.724062729229446 0.9763063574790735 12.400221314809265 -0.2605843907201189 -1.1592235121369585 -0.08262265719823836
P 4.007797597255908 6.019715903913094 8.270082719122456 -0.44653171355063737 1.2090481489685694 -1.1018490879825475
P 4.776606509773989 0.9662988769704182 3.7147461112689393 -0.3148164125908062 0.8367668093920749 1.393591906583342
P 0.09259263565039692 5.669075424685508 3.371307411708302 0.8575755186073103 -0.5766009942666134 0.5806905909549548
Ni 1.3488551048472297 1.106628997796742 2.5998487707924784 0.7076208118213168 0.8994695877379348 -0.9721778140359386
Ni 1.8241743660155316 6.504465637704867 4.761409564597962 0.5794124955734795 -0.04203496558386308 -0.3488670744176121
Ni 5.927746256463731 5.581496446612466 9.228415280978057 0.7424569456638955 0.21173625886916436 -0.16255336938661039
Ni 8.571343945425804 2.4740114652072926 10.163326732144121 0.5825471845477194 0.09468961566510145 0.10662930452548088
Ni 2.4054286686042836 5.135550493099298 6.948992512450412 -0.14583939906603915 0.24792170765078592 0.43629332365208084
Ni 0.7129653681301437 0.19730063374001094 8.956193779646222 -0.12553282629820317 -0.4671177652321052 1.2820921613394372
Ni 1.4000645546572856 0.9679036801510854 11.363176763241219 -0.5131525960039808 0.19936076802294697 -0.12059373712537295
Ni 4.005796101154177 6.793835092124507 1.5925336489337032 0.4736784491687584 1.1719142202307495 -0.06291695123919487
Ni 5.605541447077856 7.982967201754316 7.8923093456689255 -0.5881874135526323 -0.5727746785419878 0.6688362348539514
Ni 5.130168091420318 2.793800054073962 5.036363739211035 1.6487031900040316 -0.6450581585977472 -0.35120240741900804
Ni 0.7931496295246286 7.38057998537071 6.980965060313335 0.2985395298076536 -0.0035915740060002664 -0.1637011098378084
Ni 5.187706596470983 4.5745726082258305 7.097824483834989 -0.4085176962007093 -0.6816030476013165 -0.4465401981910696
Ni 8.408113824156251 7.2638891563405075 9.189502410146158 -0.4498929167133865 -0.5126350329376139 -0.4011676835935414
Ni 4.629009695893632 0.129294845022185 10.137213519040275 0.5967422451011788 0.12050040608061828 0.4963686916774226
Ni 8.303459018981053 7.124884350500465 4.747000595815139 -0.9959479198723428 0.2015158666927368 0.2535071721583634
Ni 7.353658961227607 6.218531183351713 6.93780306735195 -0.3406349163158069 -1.1029047829405716 0.5867967038526927
Ni 2.337891698793169 5.274347936730601 2.4337705746646514 -0.5932296039622299 -0.6908793306969199 1.1187900867122602
Ni 2.227764334456931 5.253566637115782 11.516759132355535 0.3083529163536496 -0.04536865794278638 -0.3590735826369687
Ni 0.99180442864518 3.575726880231767 3.6193035976106267 -0.09196707452761582 -0.621578073197936 0.1680064220813816
Ni 3.7577458207626155 2.6615480436402104 2.4446435670010827 -0.3478165216659107 -0.0466485530964745 0.7991808807185011
Ni 1.3151812852978357 3.272770693265692 8.295167235355999 -1.4493267382518007 0.20001639932907486 -0.8489075585196669
Ni 3.580117549608087 2.5365086317712553 7.071221715603558 -0.24431110748139218 1.0802047702398945 -0.2858274815576239
Ni 4.129681497252764 6.866988873067956 6.051635258861602 -0.555157993901489 0.23869710372872438 0.1862658825122018
Ni 0.7732356448872252 7.3264945118829425 11.221114717184523 0.3336116909204383 -0.11932695459780739 0.4693245430754369
P 0.1778040782445451 5.587582076651512 7.911456090133999 0.8932130653052617 -1.0714810172136515 0.8542593097498836
P 8.38891028047748 1.7156518048599605 8.035163875992929 1.1656700390932504 0.4880342036697982 -0.2007810454092413
P 1.7729919634500937 3.3277757730704725 10.401887937548873 -0.8826936538311766 -0.6980804764310493 0.35110933348456946
P 3.8612826731602703 6.184388544895606 3.784326049623532 -0.06395541980603824 -0.14649245926900578 0.4964725642451386
P 6.736900642203644 3.851067830442877 10.435787150803415 1.4804437713715795 0.8538029389387554 0.22902589918754748
P 6.483125361701275 7.5590827841012205 10.112564463445082 -1.60998674727044 -0.10513420803719313 -0.036798142664955985
P 2.304695713898693 8.421294848033417 5.889185901386687 0.8450874134426285 0.5418965009058925 -0.8866683222082086
P 6.772233359422942 3.816122790396438 1.6184755628216354 0.5109442754987523 0.5914910240045684 -0.7868948642622964
Ni 5.179078525437845 2.7431856436455018 0.3352686285363638 0.8558251115751067 0.3439051024266464 0.2881946962382198
Ni 1.3427514433117707 1.1050873048535168 6.943872469044226 0.6752171986796307 0.374835987677548 -0.8253603673273462
Ni 7.0345645849728 0.44629305981909845 9.137854794973292 -0.466213508250281 0.7183793358894015 0.6185475139017282
Ni 2.8390591100680607 1.6438864491402345 9.34400799187677 0.14844315523747337 -0.0652949645530682 -0.24567790592193173
Ni 6.438704770290334 1.8775566111432322 2.5240668992469812 -0.011658924395167018 0.5942847846996216 0.7038014380752265
Ni 4.178357521816935 6.718201980424409 10.418026126837605 -0.32900041740067204 0.5222177915300424 0.46839328951041914
Ni 8.255837836956983 7.0031176552302865 0.3852293972198893 -0.6644195938434945 0.35463174481553117 -0.07422492005284637
Ni 7.518466838433209 3.8680895630557974 8.327311082434836 0.7953813044667527 0.303984869192941 -0.7102515645759444
Ni 2.9668934038808743 8.256261577122665 12.345117061774218 1.1930448315617777 -0.24014617747042513 0.22899401750834755
Ni 9.232306477903764 4.984545726397075 10.030554513038885 -0.46551905328641763 -0.43718266823556967 0.42549880413973823
Ni 8.709888948107341 2.405608983568403 5.810171884109341 -0.41252321781567663 0.9608310215645516 -0.2484773230439398
Ni 3.4856415241574576 2.6465999331146697 11.558377629224053 0.44722693984544915 -0.20101038781122801 -0.3734326795721181
Ni 1.2561551817931815 3.108016910549326 12.559252802139286 -1.4145674803937442 0.7357563937152682 0.01950541702277931
Ni 2.9893696641584215 8.492510243112578 8.07663721931533 1.1905480332818528 -0.008328831580669526 -1.012057938060328
Ni 5.522885067525286 7.758195583230636 3.4912547289905107 -0.3826014905555798 1.2893791819191536 0.703280275464434
Ni 2.928396159041273 8.446908588686652 3.67626779950057 0.9078218163573719 -0.1852343559238939 -0.23845233470776997
Ni 3.3461138049214676 4.296085161890828 9.392830973136698 0.8517015763250365 0.22252229374107482 -0.24696757126763272
Ni 7.192700808505965 5.945759721379312 11.457616725699024 0.425784453700957 -0.43393459361191716 -0.21700393502600696
Ni 0.4045555550742617 9.128986003463053 0.4101083543943345 0.40078973142883234 -0.05961334078725863 -0.4589431998411128
Ni 4.637520562200092 0.4564997883631063 1.651016102821536 -0.24118644580948143 -1.459970591118892 -0.6865079411021017
Ni 5.79965952170115 5.561950304501866 0.5136884823833785 1.0360522440923965 -0.2703910923978956 -0.3499304826851199
Ni 7.8132186945318285 8.595262725416312 11.425459354997878 0.7868452419712836 0.8217237990160234 0.6705956407472192
Ni 9.26097655719883 4.994436002179052 5.713501425545372 -0.8479333675318558 -0.9936874059729403 0.023558246935914268
Ni 7.821693497845464 8.890907140587323 2.5301768718061846 0.332431297459092 -0.07421669252273025 0.3164354362514679
P 8.514265243533647 1.7112881827282589 3.6300837277405362 -0.60665821866331 0.9969966728518312 -0.609683378642879
P 1.7825306250520372 3.1251648636371296 1.5145221828568634 -0.04616724258468178 0.573578919610838 0.7845834425203004
P 4.7784006436669815 1.1613275421625182 8.116263235830322 0.06492961079384947 -1.932682305499007 0.572847183651136
P 8.416534532980652 1.6357993229994563 12.204413688972167 -0.16233842516232688 -0.807966340220615 0.9407316797115153
P 6.393445714296236 7.738460110407711 1.3859323693443872 -0.9738829696525034 -0.3462201237130682 -0.5757458453551697
P 1.7643007821795138 3.228178802638837 5.947972185989062 -0.2387654950728146 0.09757542185332874 -0.0067206065532852
P 7.0163167106038635 4.033744920592763 6.032699482904549 -0.4418566766724713 0.18865598001093317 -0.43791568974685224
P 2.4901045757549958 8.480185715314981 10.199918047812977 -0.5672833164101133 -0.19375910556545342 0.05674501810052808
