# total energy = -340854.71256708127 ev
CRYSTAL
PRIMVEC
9.46236143610740 0.00000000000000 0.00000000000000

0.00000000000000 9.46236143610740 0.00000000000000

0.00000000000000 0.00000000000000 13.84912243189106

PRIMCOORD
 96 1
Ni 0.5573614852523696 0.8161826233550553 4.526683079221027 -0.8113877071973381 -0.8409818759146872 -0.17058446722120296
Ni 9.264191359807297 1.6899777815403836 2.3936273771097425 -1.0172536233286544 -1.6138539435353303 0.04997556058717845
Ni 3.616429441795637 4.790576043140653 4.984949982630275 -1.09217659788979 0.43881531874298624 -1.158710834166598
Ni 6.521223054832552 0.7616727968930189 8.086599512604169 0.3486431313322641 0.5350031162201689 1.0063068945091638
Ni -0.11523737073062465 2.1733625238135668 0.027327300297248756 0.02110747140257655 -0.714665120262608 -0.45584347786986656
Ni 3.8377824666756717 3.024823669917317 3.506293230202909 0.5722625147922596 0.6611028707654356 -0.9155775490433908
Ni 8.278411990809003 9.111781101535904 11.295953427239906 -1.925115806005659 0.11325195204832109 -0.2335070748873527
Ni 3.4163951175976317 7.408726336266019 4.500923692240694 0.259666764001856 -1.1586874371278302 2.857147643950331
Ni 4.463509514479157 1.841621588522277 12.02311604514605 -0.562745833551076 -0.7167011768560302 -1.4461395987730705
Ni 7.571952073844808 6.713214371671603 10.72194954040762 -0.15731140426138068 -0.5701683512673923 -0.6500571544742353
Ni 2.3577177148424093 4.75921777680233 10.51339530582608 3.3740949311100534 1.7356450434029143 -0.0017696903059130813
Ni 5.981281777283519 0.4241484661925609 10.569774894940034 -0.40859662906776084 -0.6288015875295687 -0.24186058905837055
Ni 2.98994540506425 0.5182128566097771 4.050314678073333 0.34709352745695704 -0.5387816094259947 0.6261032147617992
Ni 5.262530252602523 9.427577957533265 5.159088661840925 -1.7237976571460247 -0.9202854960420215 1.8953041219608648
Ni 7.187827504742726 8.6801176277616 6.640751606548219 1.025288063597357 -1.5676105962970743 -0.05283282753031546
Ni 0.9341139284328498 8.620798082898908 10.978517690213637 -1.3385659280564495 0.7433501469021262 -0.0070288818223233785
Ni 3.5081232509361113 6.58041958899446 13.1642144023712 0.162688609412894 -0.038145657831785924 -0.06541529218101637
Ni 9.014044368582205 4.345968058699231 0.7199040403237269 -0.7025338842167126 -0.09820765612068892 -1.3266666055157021
Ni 2.6402922192664877 7.446055352773168 10.607306405985396 2.150342128941458 -3.7812167754045016 -0.7100173370779513
Ni 1.5336879550134939 7.920091281786767 3.2225804036784984 0.5039927838815836 -1.551647902320231 0.26961616190508403
Ni 6.1098468843260125 0.7620276354529729 3.2838066144033418 0.1400179072882556 1.373893142602834 -2.2662446312387488
Ni 3.9519647840880334 8.19670449840362 2.534860693860669 0.8393245428169221 1.7732767377127587 -0.15963311041602185
Ni 0.012620897900439887 3.0116047507638353 5.4805137305172344 1.4961964062201458 -2.0285435728747063 -0.016996791668312666
Ni 5.350795161595853 5.817895179557551 11.398921899921566 -0.3496378911453656 0.1642952917783816 0.17434599114616425
P 5.463993393401942 6.899868916568947 3.8436160126013137 -2.2644803402494738 -0.5155596627835767 -0.0964590488606984
P 0.4130008579930496 3.591458269536482 8.060397287101013 0.7791237049573098 -0.7432398465765071 -1.3526882263904445
P 9.21406923041861 7.048248208799264 7.379740283980507 -0.17474939723217003 0.09846322377492074 0.223160441545706
P 1.3131203061461572 0.04729004456217455 1.9875293119029962 -0.9838459944024862 2.825475509658031 0.8182096152151779
P 1.3977327435623617 6.8998594542073475 12.473420371269931 0.5981581516120988 0.4179999246595317 -1.0911067618643788
P 7.682387296064056 1.7122237936590927 10.768787284085372 0.3317108743532997 1.4671254569961185 0.10256181932432659
P 7.406966337008648 9.332291976233648 4.64355554603592 1.5741113735300696 1.161500223986277 0.5275464028318075
P 1.5152836617038856 3.282020120533494 12.58339572271548 -1.6023390009171952 0.5394266992091613 -0.8648388850379428
Ni 3.477039393084151 5.917865029848561 2.4653653253346604 1.1516755245863715 -0.9069586970261283 -0.6362626717933042
Ni 2.0137135589191133 4.319520758030668 6.737057630428184 -1.5651348810630723 0.08306051606660535 -1.5201680865443947
Ni 1.4928767894379973 9.009436198483604 8.387291600781412 0.8276779597169294 -1.0474789978720993 0.007222743000684335
Ni 5.408960298343494 7.808738210492438 0.8728669005124889 -0.08252341261621272 0.34388427649104 0.24279827038129154
Ni 7.942403530436667 3.4353198407951724 3.313998171556539 0.5962599061481215 -0.6115260882785726 0.24487546462529441
Ni 8.707397616250853 7.198160403608584 12.754336123705745 0.22860038161435473 -1.1161439073386648 -0.622807831839979
Ni 1.467962391348435 2.970803047549938 1.8556022277844602 1.848988783834093 0.22028311999791095 -0.28912569269292143
Ni 5.011332939239966 5.577910764689538 6.454688459250799 -1.5473163648244128 0.39862023458133927 2.1498209663306653
Ni 9.316944025720442 7.711635455765856 4.7904388388974715 1.8714496839407702 0.22871968080103836 2.797441743449266
Ni 2.821042250526199 9.129589266064789 12.213915104423654 1.4061072654415332 1.2626697909487674 0.03797750768503782
Ni 6.343510441646047 3.4858583140942048 12.38277757080683 -2.266548792742729 -0.3407619288119744 0.027583566045223464
Ni 3.629307715931563 9.088229283516565 9.33120664335827 0.7291622854375184 1.6784092017088963 -0.07989497385443015
Ni 3.4342979057425054 3.918619421813967 8.36176782660489 1.7259311585492598 1.0185517733147877 1.08889381337346
Ni 5.7681420822712175 5.331387857956774 0.4546863457802725 -0.5293425755002819 0.04639169989066204 -1.3182421288974329
Ni 6.738791135073079 1.3635452311060043 13.12565811756469 1.4876017225725993 -1.4791487067092397 0.06862711425009471
Ni 6.346992590714394 4.582167528927737 9.353877515512762 -1.3014983337801909 -1.123969831140987 0.3953952998861384
Ni 0.3314457096094079 1.4427830471341072 11.574750556913754 0.6322604926124467 0.5537932523434785 0.6915958971479703
Ni 8.120475713363927 4.287850233759584 6.749743818623656 -0.9620319838511884 0.22081559546261326 -0.6448586409924314
Ni 2.2756033408882805 1.8494469615644602 7.603389824020563 -0.09804413395963114 -0.07208807621550166 0.17954784706207785
Ni 1.3201413784524447 6.45936759706139 0.6876004840616848 0.11708032465547577 -0.11177999548848493 1.0765165227550297
Ni 2.6176204008758344 8.673522361727256 0.6677011376194707 2.78593682813346 -0.4615276727388374 -0.41716071658768794
Ni 7.666395904962135 6.720964045820996 0.9277608988554353 -0.3546032055704409 -0.38361090565670064 -0.24301192905399438
Ni 5.877243111505039 3.999058957765113 2.4367255954836624 -0.9108104666720508 -0.04423737255182059 -0.3445167678687163
Ni 2.523403666436878 1.8572155604370506 13.836713903557408 -0.06164425517435834 -0.7528128349769229 -0.5315496104539297
P 2.6824943519970037 1.482581740018535 10.557213609917667 -0.18464788729280457 -0.9051278144649767 -0.1910327077732258
P 1.5169490373452692 5.839081407177198 4.8877015075350725 0.7547689302620292 1.0911311873444112 1.4257646346611446
P 4.816928720193229 0.44314415710209243 -0.17504706592413224 -1.671444340355289 -0.8513912441734692 0.8146764052509389
P 7.290380579750198 9.157020652339625 0.8311038213601561 0.44919151977098765 -1.0969459942539752 -0.2149408818493911
P 9.010827165638624 8.877123996247997 9.160862371148726 -1.2806562002238588 0.16450920756140056 -0.028309388467654472
P 4.448587370237896 0.775393221211236 7.216376395922376 0.041276490151283755 -2.040690749760201 0.25552368836775996
P 5.704801033729049 3.6893369379141627 7.075558476845636 0.7322792337999453 -0.7599203925559815 0.6753506389337014
P 2.087084710755979 2.5041382982217817 4.4778232288696165 -1.0816697848211951 0.42074432017388824 0.6333948633272058
Ni 5.015846485722579 2.6451274860434597 0.4031089051776951 1.5709214058378624 -0.4381262630957616 0.8464776089219357
Ni 7.479750822426389 5.9621867315772 8.142744435150473 -1.0348494820335468 2.9818302064330973 -1.1334785419623705
Ni 6.944417714975957 1.8135089122123305 5.86931365248527 0.8939196044539829 -1.0917279403881455 0.3795583328538818
Ni 6.818142499440367 6.319476043185169 5.704328861885269 1.7901902256386462 0.01817512824712999 0.17294396859231506
Ni 8.737459539050148 8.275696293030155 2.2863658309707215 1.147267625326663 1.2234491548852477 -0.29018421586442283
Ni 8.025861559737821 4.048660657265867 11.065490986848735 0.16453954657870373 -2.3138712319777763 -3.006752166485757
Ni 9.360470889074787 5.3665878431042 9.173118968127612 0.27270431391210453 -0.6134274190663436 0.2070565940053079
Ni 7.451174490398103 7.417422246575289 3.859708650972342 -1.7938013400286723 -1.1432780445512956 -2.166947855818939
Ni 9.173636559307065 0.9441269994766686 7.434929508005334 -0.5332943610591783 0.31182904782770815 -0.14323975665966296
Ni 0.36377765295624626 5.121134183232097 11.39757824457454 1.2658178496594459 1.9757498261124424 2.887850729461143
Ni 0.42369143412734034 8.728366209553728 14.047718889793027 -1.5379200112111773 1.102512175487843 -1.5590693915952827
Ni 4.714091774337794 1.9234804787132396 9.057575963117348 -0.7215556767348541 0.2844198025768198 0.7160830836560571
Ni 8.925154943723356 4.947831030550619 4.631949959535027 0.11531474811462075 3.038253579528148 -0.5938219861305902
Ni 1.4337086423608865 4.93804694865749 3.011283976705637 0.9332047752068509 -0.692171310035466 0.07413981653820781
Ni 3.7306590710159924 1.3852045768055894 1.979288541186627 -0.05186352163851068 -1.9262704884353925 -0.8176000066556371
Ni 1.7529687227033979 6.38711300389318 8.28911581424953 0.974579995719528 0.44259792571387 -0.21471385344024957
Ni 3.626998899701463 3.9058357712940275 12.702068876942619 -0.2911972305099695 1.3661718626991761 -1.1213802160369397
Ni 1.0113750571229696 3.162661891326605 10.115911774618853 -0.7866976606498257 -1.83830919263306 -0.8943170970027179
Ni 6.208179746060433 3.661489207728981 4.885845938425553 -0.7744931481638339 1.6867187500158562 -0.24461732586790128
Ni 4.102898913950019 7.85796141552924 7.083078215608178 -0.35667911426286314 0.5048836711269692 -0.1626389871218812
Ni 5.814242707980426 7.920034507617173 8.887868507843402 0.2383888284596862 -0.9751839478521142 0.6060085008944531
Ni 6.402943534847924 8.147878712553965 12.69774836263662 -0.010981181601852054 0.26194064763769725 -0.9648712530721963
Ni 7.926809558521893 2.8694990042735022 8.519813867444512 -0.925051292861781 -1.3322505273613832 1.665651387822596
Ni 4.199538012958261 2.2965246223831617 5.782091495740124 -0.4873443766916253 0.979146789154604 0.05553248584966565
P 4.635374388197623 3.66634339922915 10.386370671251868 -0.8585954752313922 0.7599543311177105 1.4251534834397066
P 3.9283656542607 6.459963725842114 8.861042712710887 -0.056279648428335334 -0.08543004474004642 -0.7292070226325248
P 3.815224196624203 4.237595631308515 0.9459683750437893 -0.713487812125055 1.6651150557031515 1.8389427124520006
P 9.253896310387836 5.770252188907743 2.1439137620458735 -1.6692249641064671 2.126505945753809 1.5171226148498518
P 1.5130883938129707 0.11560261788833717 6.326058061913274 0.16901917961661214 0.23188522301321354 -0.1788719040409758
P 4.764497774574443 8.051854667049643 11.056585958348133 0.525014123328257 -0.5152848118556351 0.4104066856933061
P 7.446102664581162 5.228503600293344 12.640163268654982 -0.01899531015558019 2.7729514716173855 1.4539516386183218
P 7.4245947166671575 2.7992788188490274 1.341593498433017 -0.3361879362880468 -0.4157491809521421 -1.0325930818992024
