# total energy = -340872.603708157 ev
CRYSTAL
PRIMVEC
9.24309898598765 0.00000000000000 0.00000000000000

0.00000000000000 9.24309898598765 0.00000000000000

0.00000000000000 0.00000000000000 13.52820967275598

PRIMCOORD
 96 1
Ni 7.763399127301116 3.577809571701579 11.664198631012914 -0.2960818122957804 0.9352120354448668 0.6870221617343587
Ni 0.23981405578631707 1.1139228496612943 1.4286873477475392 0.6216408081150714 0.8587872795272242 0.04944282801216001
Ni 0.5622188996210229 2.3987413593072184 8.722935416350301 -1.011487924489471 0.5253941323754951 0.96137172455937
Ni 6.528863076972429 8.935442584349685 10.702992113949271 2.7625873547742423 -0.0397921922962734 -2.409803461800727
Ni 0.7566530358735339 4.292079300782236 4.7298139898163685 1.2322006758256328 -0.7322373248184164 1.333760022027374
Ni 0.6472433956727626 7.689740870260848 10.267248388469723 1.2863884747219458 -1.3120907645840563 2.6945881039161335
Ni 3.8466358670660106 3.9640509554312415 9.623752145187991 0.800486486903802 0.34252776246314554 -1.826704775624912
Ni 0.1150248229278342 0.018526867914608246 8.825790774951468 -0.4761875887438573 0.46186114481885615 -0.8168770124466835
Ni 8.497245740358592 0.9706825423011446 6.843122901845673 -0.11319281667561151 0.3226585343430443 -0.29021455488172604
Ni 2.5625845346486402 8.29665200283972 3.182836232215117 1.4757792760163744 0.7187364621185042 0.7170693588287264
Ni 3.549904655400341 2.3392527732473405 2.1254709818766604 0.17439972720223512 -0.918760831867379 0.3925069225947498
Ni 1.5319327651323795 3.960390688172119 2.194329297533943 0.370505221512678 1.2447725989533722 -0.45891337504444185
Ni 5.40956998671126 5.869534329175164 4.943207571023203 0.21740939799454173 -0.33143936585946787 -0.37771716588008497
Ni 8.279450595341673 8.24479821666882 1.5718287539468994 0.7553183750075959 0.2379820799395708 -0.6037050495722571
Ni 0.5794286259082955 0.5908392317956352 3.967079919019157 -0.8556014256000748 0.6260589917874251 -0.3979206374111534
Ni 5.605264881686358 1.0809157426352187 5.757687283731386 -0.19636131907499085 -0.774303400750531 -0.2997170950555225
Ni 3.8224744059161475 9.344588367746281 6.968989880063787 0.08313404961701812 0.29773940250386144 0.361909509423867
Ni 0.7236893714134126 7.495395467760073 4.301998070468509 -1.638660461056049 -1.6848498151279176 0.009007602815249002
Ni 1.2546120616590253 6.185860911015934 6.2766974678064 1.8069592175668687 1.0914883135735136 0.12384258307997383
Ni 2.246220980411314 3.094358514324973 13.090626041020917 -0.33732333544407067 -1.4640360194375173 0.38129485592901424
Ni 6.080628227316166 1.6551432766578875 11.934140568443445 -1.086350478126316 1.9719047413347395 -0.7883951029569067
Ni 6.719483510520106 2.73808325800459 6.826821772203783 0.4442912542558929 0.020918495320222042 -0.0777946396819757
Ni 8.22636747698526 5.964146691963994 6.282175852666203 -1.3728744715303323 0.18444888390812106 -0.8056040106360255
Ni 7.602735578063578 4.375747834190254 8.055750958594635 1.4565620796579752 1.6041907094139534 0.5466131896552715
P 8.164873138412176 5.5453695992643555 12.693721818124278 0.9381333228567198 -1.4291656899228935 0.682299816558025
P 9.029065935530621 5.450230379824592 3.335569202391223 -0.9269521094289197 0.7915904699657529 -1.5454857393735772
P 2.669314600408958 5.006201140276664 0.49208503628253103 -0.3324981461412854 0.15189640389339648 -0.9750980730065271
P 4.095534040686331 8.804643488430896 4.720385104384473 0.4097942489202878 0.09384526538693515 1.7320326434613076
P 6.654051611713725 0.9820145818458013 8.586301151944937 1.1193115064333692 -0.10445543680261365 -0.9922056792210913
P 3.412635390084113 8.157524874596513 10.40450563775707 0.11061297176357725 -0.10907802317628956 -0.9590513039563097
P 7.827037864874494 7.015438301858083 9.901391735581647 -1.3791916719976118 0.5388289177241623 0.7575693758253017
P 5.48021499343215 3.608468931546299 11.223774200129272 0.011157302168400138 0.5753604369912929 1.0261609531206133
Ni 3.5493223401545713 4.507702317501443 11.80303829887289 0.969193534596634 0.9183635964289604 0.94009713145131
Ni 7.313787055873113 4.294390075567034 4.561076593480742 -0.7332950766589694 0.5488379652207322 0.32798020366627384
Ni 4.784745728000622 0.09067480255553127 9.100656511293451 -0.520809084107974 1.2915106264398597 0.07219554832764341
Ni 2.366861910376125 5.8010152352562905 10.033805600920056 0.025832644792387765 0.8513459927578304 -1.2547685338238197
Ni 1.5969764537749152 2.1065577524180337 6.283339558847828 -0.2197277617150732 0.18989885127909875 -0.058361984878660775
Ni 9.179377213732257 5.932563022205355 1.0767720612911162 -0.04650457131944249 -0.43820108219775494 0.9263957227048174
Ni 3.823814655291331 8.678863395344692 0.8371382459380134 0.6924865272830396 -0.16124210677435458 0.7739560447134413
Ni 8.595315022225483 3.1514069222121024 2.997080441744399 0.8913618710291358 -0.7066579336874153 -1.8216769833930175
Ni 5.165302605759678 4.76091701841977 7.408913334974081 1.1713159245251181 -0.2934351187015527 0.42161206749082225
Ni 7.94968454735251 1.7101674458335323 10.243168266592283 0.3931586972461358 -1.0985642465836887 -0.30147521539720984
Ni 7.4157938979733 7.0362630042186955 3.330496589583631 -0.1299607801625697 -1.409027781522438 0.42345014914082557
Ni -0.02005752513205942 4.966326410590165 9.967855164251963 -0.2601527024993391 -1.0805963492513582 0.7968620027773373
Ni 3.7590575027221105 6.951697890194175 6.521976968113726 0.5922315017150188 -0.3846439749069053 -0.42760016675345713
Ni 4.830951980597472 8.951507090653612 11.990065939785161 -2.756414136083995 0.047378232173647436 2.019741144091728
Ni 2.2343343549183055 7.807701301475291 8.220241150875799 0.10219903666826914 0.00837382588599203 0.6235413675718938
Ni 2.073467457499705 8.96547341345294 5.653046158376528 -0.8273244330322526 -0.4387577260321734 -0.24600777845752472
Ni 3.879125360540291 4.395139856184292 3.918026791887433 -1.7196905769561868 -0.6658334434718857 -1.269087521549653
Ni 7.524280152570066 1.8703780832132495 4.667583900551805 0.6476590865557039 -1.1861082523429445 -0.059851424939993694
Ni 4.7918998867343605 7.077903165840783 8.91377768427732 0.06511550155241043 -1.701712395211211 -0.8251924742909144
Ni 9.18211317107746 6.675356955229575 8.416143091271614 1.1611567246039292 -0.735953597327739 -2.6744262842562776
Ni 7.460003641156083 0.4155872991867015 13.14725573651704 1.9604229659473849 -2.39652474241395 -0.5323060290039799
Ni 4.339745963043079 6.429989645480428 13.60193857213281 -0.9226961623660432 0.8429875934908061 1.7003656513753296
Ni 4.394788618417002 3.640986154317997 0.517887147529602 1.3329856057551945 0.8414521306828863 0.12681812076852997
Ni 3.0964104823338747 4.14072355237787 6.162329829227364 -0.7375939611446394 0.2953886428834977 0.6204208196650411
P 3.2589596237958087 5.309467223033747 8.090099239305808 -2.180582672993554 1.5174946534772897 -0.6284249209164403
P 6.283828518792292 7.906953700031997 0.7417272793835572 -1.5542110350617169 0.2931209298952436 0.12087064493584343
P 7.675700602668406 2.1629776295636978 0.7926188589340668 0.12092180988875303 1.1223315242066156 0.796465538669867
P 8.831143453662978 3.1269311956915065 6.255782183074223 -0.11545667300912374 0.367843872630431 0.20073553688328655
P 5.559428353055075 4.801466494343431 2.7541810394654176 1.7459327984821673 1.0466305338288748 -1.0018861397336487
P 7.677983648155788 0.004533740127776564 3.4686328575991157 -0.08434632475756441 -0.10126444066914173 0.8018915947814448
P 6.156495585050702 6.611542598772553 6.856461618213449 -0.04539025520934119 0.24466463416606896 0.1295028666895447
P 1.4356289152010768 8.502209284596342 1.4383870559842133 -0.6720634835419974 -0.6823818347488699 -1.4000366337674213
Ni 4.7023065267781154 6.975101417214623 2.5653676317994525 0.4783971948006664 -0.5488119970788032 -0.05669025360319269
Ni 7.1307736929169945 4.276800457905141 1.172938189045245 -0.01921771057903142 -0.2516832315757472 1.7458016722209417
Ni 6.450805104741902 5.379446726616614 10.10202799135656 0.222436676005804 -0.5495079947045634 -0.10047511199862696
Ni 6.2090795760535995 8.112353849103252 5.130600314351472 -0.14251264868565133 0.4146490059094278 -0.028431258757499425
Ni 6.97260578044704 7.195059447430116 12.104001001324484 0.2512487151414899 0.11063816857455784 0.7286331524069257
Ni 3.780640139212138 1.8823571396976497 10.464909290631727 1.249692147742177 -0.15457060829144992 0.8217004019772558
Ni 1.296122819893163 5.296674773825097 12.06300970526197 -1.3595548716032908 -1.4950831185513092 1.4562118954074084
Ni 0.882719665033054 4.442307391091618 7.679843359702594 0.2541898000476848 -0.17763288942755215 -0.24106277574742357
Ni 4.833059407201209 6.594812589330606 11.388087849216879 -0.9551622533145485 0.11939148928715569 -1.347886691236743
Ni 0.5842646153779237 2.0542695405875913 11.794732449986407 -0.27259375647616924 0.18100823365768826 -0.2008530362977573
Ni 3.6729210618439256 1.9379821103173427 4.699632498197145 -0.8377021767221509 0.05061396550212574 -0.2663192363213671
Ni 2.5070335088220608 7.261896297305656 12.049089597958337 1.8116334831140863 0.3845629851573248 0.653309857083578
Ni 5.937850074912976 5.0662073398883365 13.013434147179733 0.8959263504713667 -0.43750302768946586 -2.78592088729386
Ni 0.41801361271074094 7.378571937739751 12.743302726216848 -2.2715542163771203 1.6004728942427338 0.943166257294937
Ni 1.9657761094289108 0.6062798289076653 10.400622611808691 -0.8068494530073523 -0.928472402728188 -0.46490764495466386
Ni 5.915093564832271 2.6407349378705582 2.9895584076649198 0.025863498030323197 0.3447270841073095 -0.06873792879634613
Ni 6.130790526344592 3.0292316377901845 9.27644269503263 -0.10267494786342318 -0.3956087014485251 0.07076524363902006
Ni 5.700237725341616 1.2890241197542591 0.8675193884986431 -0.45973767071795013 -0.17408013907928727 0.6407065664972708
Ni 0.019662844798815665 3.576524780921231 13.89374228764737 -0.1986693983828772 -0.46197375913732047 -0.9748515042133599
Ni 4.503774000367285 2.2557044001281312 7.6095911846951205 -1.2324775836361033 0.561368236477259 0.5235627355937112
Ni 2.137438946642094 6.3194606659739 2.0264173099514466 0.27721248619510325 0.7078367844868648 0.5590161913053147
Ni 4.809609664685064 0.30136755019389144 2.9449428924299252 0.8577626949174518 0.15984059844113763 -0.22721455701042156
Ni 7.440362055485289 8.126301685704304 7.619480376464149 -0.8193465570330987 0.8912338300917039 0.4467433153408113
Ni 2.103008402348582 0.36603966625103124 13.138705869813283 -1.268459658157667 0.19874241771265772 -1.0894214037421561
P 3.859973659123873 1.5867350999286838 13.41468077805197 -0.413667615832765 -0.6646849316897392 -0.7745409706826338
P 2.4196769788575017 1.6792215499154979 8.29229203297576 2.2572257155695903 -1.4902155060463624 -0.13750156862430513
P 2.719671004519308 6.127527712348456 4.641609867660745 -0.15516684711455211 0.20844961769809264 -0.43296708749232526
P 0.32742661959703206 8.209175312586352 6.718934470431238 -0.19876812874427058 -0.12177747302082899 0.17039960490390652
P 9.005745596402425 -0.023261183293705405 11.473261159164759 0.015195476793515765 1.116016123511549 0.2784481583744172
P 5.133598775712228 3.4898337540946938 5.510364134204385 0.16236285064235909 -0.687936446018512 -0.09405609584616059
P 1.7649605375306976 2.2059950129575245 3.2350283158145117 -0.591659945482265 -0.5138840748533666 1.3466875287223192
P 1.862835714315664 3.486496995305443 10.495198926510879 -1.0530338662520575 0.3611623468451974 0.7536011352061731
