# total energy = -340896.7733836698 ev
CRYSTAL
PRIMVEC
9.04017517989669 0.00000000000000 0.00000000000000

0.00000000000000 9.04017517989669 0.00000000000000

0.00000000000000 0.00000000000000 13.23121017069681

PRIMCOORD
 96 1
Ni 6.167080840241367 2.0032575848717 11.435800615403124 1.5129563992873039 -0.1465243409482057 0.4300008057751497
Ni 4.675831648313454 0.4454473922628449 5.920093314340339 -0.828908746800237 -0.5477061656091342 0.18200659301521557
Ni 2.8411190866252545 1.9077662160727662 4.672336716648427 0.026927677628779432 -1.6138629423963946 0.45706320920958055
Ni 3.499135346412891 4.331898189451819 4.992678030744883 -0.15400136605154122 0.8418516801141501 -0.588512915212851
Ni 5.018861089672495 4.367643041504359 2.857027986635892 0.973926421295929 0.9371012820477796 -0.4881144220884303
Ni 7.294038099149243 6.216449236057989 2.6565756656983592 0.0399747406207247 -0.7719788663824123 -0.4988675468398764
Ni 4.979066239208336 4.427751165251791 11.496518950964806 0.4157887759408258 1.2694508184263429 0.08564678873654281
Ni 5.470065265391853 7.8835569527653835 12.475297797005107 0.2220319843682176 0.2567501045756933 -0.31868669417948986
Ni 1.8172559837131215 6.364427861057491 0.5123826561898606 0.7108580878116918 0.3716012827903343 -0.8636330376552998
Ni 2.66760196717749 1.5317672563941465 0.2368417374694226 -0.022805685040605882 0.6156671070301397 1.164299383997969
Ni 0.528256299517897 0.09561250714428145 4.771081644439195 0.42257520273503996 0.48923336618422203 -0.04651665550430053
Ni 8.526421879209556 2.1829039429870476 1.3825817680286814 0.6554628988708389 1.1145133137137773 -0.0363397149712987
Ni 6.836026671635357 0.8777684503880346 4.829192793523397 0.4401299237893517 -0.9435056429122267 -0.6394891491504019
Ni 0.746921861080178 7.278742123005364 2.5068116061312344 -0.18780057398917333 0.28039191236434935 0.5339145111416805
Ni 7.68453749956946 3.8700627679019624 3.5886086706970612 -0.5841798350551358 -0.5257556294799719 0.6594527367565223
Ni 7.642084837647677 3.8496048518182753 12.604778415866544 -0.03202771785950614 -0.6984039212087392 0.6057992130971245
Ni 7.921317763848706 8.979271366783635 6.9976433046789825 1.6761980529901908 -0.6258371055846059 -0.2687720687372339
Ni 6.743871127420992 0.8384708095503024 0.4581334698767372 -0.44513843274753656 -1.4688172428762447 -0.7295266107554726
Ni 1.81830464401613 6.588542840125405 9.30102475621914 0.21886412816319725 -0.8790321458191894 -1.1913219353334001
Ni 0.10299200201795085 4.8051603922344555 1.5915427017006227 -0.12172476540602262 -0.6191226696789079 -0.4770203690577979
Ni 6.446123922766851 1.8827430116009827 6.9779284909824275 -0.19737844748559558 1.1887017241017335 0.5314326252600913
Ni 3.5343016272637717 4.275930465866266 0.6617625083183832 -1.0064079388634022 1.1060245595164757 -1.0347355821635018
Ni 6.117504520399148 5.700562608028076 4.702570678005159 0.2944471049058348 -0.005223710292784551 0.5402754203627018
Ni 5.2840003830080935 2.776671678865376 9.37171892492194 -0.32143828878269803 0.26476603290163436 -1.0375583963242776
P 0.30802769169363214 5.371744321809802 12.573644957094734 -0.4084171660671031 0.6398701866389045 -0.8463925054072972
P 3.931382275102868 6.2014967865650945 12.524239496560506 -0.155336539923197 -0.7107405883972212 0.9854421352450126
P 2.2207822763457084 8.467064089989277 1.3223732983384626 1.4610334851657676 -0.2910416787687117 0.7803105261765594
P 6.572623091904736 7.839603621789295 5.824801733409478 -1.3834638170104046 -0.491720908492766 -1.226892633349158
P 4.593584135927512 1.122898220321233 12.602132356636455 0.35399359701090005 -1.2063310071477225 0.11964962804454876
P 4.08220855523554 6.21975794011748 8.203482418810646 0.04626365895323 0.26303259515029537 0.10971951341503039
P 4.683325953409952 1.0842153113852642 3.738279616461419 0.2760945705405761 -1.1448078509322608 -0.2033122964715273
P 0.27887674330500745 5.404704799954356 3.7300367848727727 -0.05313827458587623 1.2417690362403582 -0.32384432712102934
Ni 1.620270569898034 1.1796524391340424 2.520784100651317 -0.8311998568272588 -0.14485800898937634 0.3793888971555531
Ni 1.9199342916576725 6.510390527026211 4.740279056073332 0.7003049948861939 -0.03676420410322701 0.030937055898488657
Ni 5.967030807092487 5.476212584409488 9.157267892956748 -0.2114423817778294 0.796375550059222 0.5776960271030052
Ni 8.519271100764042 2.362188694101358 10.419326047539688 -0.025938574242632743 0.1355920103064181 -0.4138941300212743
Ni 2.5145427638134126 5.382936058491908 7.00931326661996 -0.8642105074253246 -0.27301027518829757 0.07693769099831911
Ni 0.5259356865887399 9.026994450745537 9.203523756511942 -0.04402808475449192 0.8003484186640409 -0.2373745282625589
Ni 1.4224172992804567 1.2746556384815761 11.426538956089056 0.06613031597016998 -1.1131585994580957 -1.096679113745834
Ni 3.9981439676693857 6.8466940781659575 1.6019425190504566 0.372500654676152 0.08652044959074777 -0.3401950005649109
Ni 5.983158479338753 7.787035004013492 7.937548494090267 -1.736213000091242 0.06746266162834832 0.18078403346202415
Ni 5.30381644666494 2.82116742034302 4.793627840953873 0.5361166609993219 0.8522209391636162 0.7171660323075907
Ni 0.8617944611172104 7.314459854532827 6.788391277371206 -0.8512305502258888 0.1417703712029881 0.745059159173433
Ni 5.099960499830142 4.743533519082669 6.858014185333432 -0.6605680813078881 -0.4090717689319664 0.6372008673368574
Ni 8.282445635609667 7.124435375487708 9.05788744086166 -0.9637499949835596 0.11858904799051835 0.6989657072494802
Ni 4.740098252572814 0.3546189457422874 10.358397075899902 -0.9058109565749304 -0.5196801127098534 -0.09670767453639473
Ni 8.291540051685756 7.200870055331975 4.7190961179525655 -0.043966635388937185 -0.8805005028345997 0.12512942021219742
Ni 7.36524755782852 6.015739270132216 7.040247841541201 -0.3722453441322363 -0.16806350057156216 -0.4713498010355818
Ni 2.4860752526567484 5.150802444175992 2.7050816288175072 -0.5967134487457723 -0.13628749371154592 0.3218023569903361
Ni 2.3303582378350467 5.1713326816598855 11.362923244431563 -0.6336586585115539 -0.16726131638524097 0.8929970926397137
Ni 1.071495785123776 3.3345680002408002 3.85369553101751 -0.10635445359753942 0.10299247910384197 -0.5709024012199394
Ni 3.756165602750228 2.5268554821987337 2.4583851965523147 -0.5528514572554994 -0.0859514644611552 -0.5104377681759791
Ni 1.160478227904038 3.498267489610402 8.176094304552079 -0.6527015340756178 0.0008530920289146598 0.11035920388155832
Ni 3.535567251767403 2.8138629589220656 7.241361903290633 1.0939755987717417 0.21085642736737234 -0.412179975543645
Ni 4.418023936923886 6.985957974440462 5.96376911194313 -0.6466779535893572 0.15384478586901892 -0.24661533013453654
Ni 0.6403327734194083 7.3232378644830085 11.324182478375429 0.8662797312495275 -0.6393803914866796 0.53088215207326
P 0.24355858751369105 5.517562344978108 8.067849056826557 0.3782946356501098 0.006045949083763781 -0.23568197105148442
P 8.550748990204342 1.6552289267233182 8.076158785710396 0.36537921314002236 1.2461589377779378 0.22857209947958054
P 1.7132126093396547 3.237901408688495 10.326350559450471 -0.10688384373844818 -0.2210336250106903 0.7954288698752365
P 4.166896914878484 6.228400347442273 3.7523840975368805 -0.5434227077424318 -0.06443955853130838 0.42615752076965957
P 6.848456912296014 3.929375356247111 10.50981458347927 0.15422016693056667 0.31624106085247466 -0.4780912335244734
P 6.319181785052695 7.716214272860331 10.113883845903473 0.12755911269961256 -0.5870242464824664 1.3374577825939356
P 2.3511144796945898 8.518132038710775 5.696763926482179 0.986456692552456 0.5416910697633057 0.1611248644701999
P 6.867613043175968 3.9894292389443864 1.5501820929219725 0.36467370243256547 -0.018839501304006263 0.37720654479225363
Ni 5.320486529412761 2.9608562048437417 0.41892261471925396 0.39581670369427313 -0.5882380642849095 -0.33132649443068746
Ni 1.5302394668147636 1.285666571663163 7.0359998632965155 -0.553494490156137 -0.8213535601607983 -0.5375413092609904
Ni 6.874103888844588 0.6724443791290262 9.171014383101184 0.07846672604833582 0.2456946180924801 0.5853039213572501
Ni 2.7476888777322332 1.5982306231848085 9.167177732820178 -0.06061015748288917 -1.045115125625613 0.5457091897837635
Ni 6.295035477558427 1.9058587391422943 2.505395914722173 0.33895907127528074 0.4791199318993039 0.620206646771706
Ni 4.048235577488083 6.924963913540489 10.451239673416236 0.5053127882445878 -0.008891388952358881 -0.7333177023667886
Ni 8.179839649065322 7.015474145900133 0.38196547519573576 0.3460589155448556 0.10376149605938258 0.027031035975863125
Ni 7.616573463724493 3.7924347849542728 8.373106838892244 0.38358416618382324 -0.5694273593363096 -0.6339574206988953
Ni 2.992171371133575 8.41086132185305 12.39325097650474 0.0378073006557607 -0.5777289372234696 -0.40490478203847047
Ni -0.0981564123965791 4.905506335022316 10.335493792471699 1.5025154064596382 -0.8775612177006177 -0.8728442718409225
Ni 8.640951856613105 2.398765242256284 5.61519352320568 -0.16075616827687153 -0.20965315108789054 0.5415365464633125
Ni 3.638652367588121 2.634659569382989 11.359350567261314 -0.9811429936490265 -0.2671311906997012 -0.1260989832143183
Ni 1.0272893292469618 3.2465257356632358 12.755667073206897 0.01954732600430827 0.4911375251854703 -0.058572558227570085
Ni 3.077836069679319 8.327004658312491 7.770994117447477 0.6073254199336637 0.07392024432823399 0.7803352087669078
Ni 5.566424490993278 8.087241136274686 3.497445737700544 -0.1898415156786021 -0.7987198819216825 0.5606627257698021
Ni 3.1305764507806146 8.401839227177168 3.515506199367354 -0.4578633365133727 0.017096807581286684 0.4463797613538054
Ni 3.3585877452847055 4.356378983422047 9.301527389950584 0.48429813366613367 0.14559283027287184 -0.44118998962274986
Ni 7.317741438067241 5.991412159137429 11.502169060356014 -1.3505904633211512 1.3785391260152775 -0.1424224029646902
Ni 0.55041738457647 8.993437321049273 0.15130179333903607 -0.20366299494272666 -0.682742046301766 0.3589704814002011
Ni 4.50057881526071 0.23292191757817787 1.4639144147019985 -0.12398090843005101 -0.01785605434481441 -0.06741432488891616
Ni 5.863376160245136 5.586113992199761 0.39779662970115026 0.03363619999720659 0.2885927030075868 0.07618127244826879
Ni 7.853697254654726 8.655289574204234 11.448052764615772 -0.9485354920266503 0.4723903264849542 -0.16595313909677872
Ni 9.121988609918045 4.848607473409092 5.8845012412457365 0.4812824867682614 -0.5541722329494521 -0.12488876495630105
Ni 7.702708251371586 8.683386438184836 2.7152690020542316 0.6389427897286286 -0.5187385747321905 -0.9196414347001194
P 8.511957599168062 1.4148506727837504 3.4173570191107956 0.16648947121622293 1.9488275478003014 0.9838027998693766
P 1.8085683755131994 3.246851181964169 1.6446130491903646 -0.015117058147096544 -0.4235115985063803 -0.4137311220808488
P 4.682204971706736 1.020373595352123 8.102038998774638 0.29673718649159214 0.06839802895842413 0.16827253125857472
P 8.41275071843347 1.454247755546768 12.48311754840254 -0.09065375503283096 1.5746024542338752 -0.9517144039752643
P 6.31981459730451 7.656766081889794 1.2865516047982017 -0.92177390766209 0.5713502873906353 0.42418239932115975
P 1.831403857628707 3.267507981898427 6.00456109371265 -0.8070962789108357 0.5785984843126164 -0.15416977330860543
P 6.862351661310874 3.9373035897448543 6.064061717698338 1.47209899895131 -0.22795220650739448 -0.8006605505878212
P 2.355128317406104 8.4556734694566 10.1360991720122 0.568858374206717 1.448619170661815 1.1551539700532751
