# total energy = -340876.1473164714 ev
CRYSTAL
PRIMVEC
9.16464493151814 0.00000000000000 0.00000000000000
0.00000000000000 9.16464493151814 0.00000000000000
0.00000000000000 0.00000000000000 13.41338423378074
PRIMCOORD
 96 1
Ni 7.393485637774354 6.224498520437083 4.3540650612924585 -0.2253934446412828 -0.9259370379008439 -1.333512167682626
Ni 8.810339741450774 9.317052958735827 10.28864278927435 -1.0866474405414448 -0.4186725252465241 0.12855978604998503
Ni 1.1138709428255633 3.438162362643774 13.323903533429865 0.6058717182062727 1.2997222157163746 -0.8849256284854888
Ni 3.2021360975332787 5.071961940720118 5.4148223045199835 0.5482646092157654 -0.14610525113291611 -1.0433045547794353
Ni 0.23081799740597161 6.929928733388475 10.731498593728896 0.6111813033446443 -0.166923473429848 1.5187678637627586
Ni 6.195080010263725 7.168823532356995 7.831082768977351 -0.5640864067393705 0.03661559434050469 -0.2955832753928071
Ni 0.7193678049363272 0.19009398126692545 2.612015446887558 -0.4307497681260324 0.05518512981257592 1.0884050466624997
Ni 8.108831996522499 3.8207679585058902 7.803316644281953 0.4709592504653825 -1.2148647556503465 0.2150488681821651
Ni 8.877122508937774 7.026670725098748 2.7155667697687993 0.5602819453916157 -0.24713057920805823 -0.8049905454217426
Ni 1.594950648286665 8.22664350688964 8.966163449526965 -0.8750600485453188 0.6302928273631145 0.4974362137099884
Ni 5.960025197514095 8.055136341972434 5.0352364591569705 -0.5212536278445603 0.26984190476264497 0.3930383696181876
Ni 0.97215803852318 8.52188254278832 12.605053530931169 -0.841485555023983 -0.23256707957158657 -1.4946334326084
Ni 7.776494478012679 5.722725046760578 6.515215720535284 0.07587402562049514 1.0001149067658388 0.704882072733915
Ni 4.426743444852518 0.31052199775696426 11.252407845985456 -0.6177260464416975 0.4922114749759394 -0.018015976961446394
Ni 6.736169810620513 0.9173901205181975 11.464647275222132 1.0147820218597103 -0.5781207733452495 0.1373231340649119
Ni 7.328150884183739 4.801375799639611 9.807343132335317 -0.31778937917620104 1.6577272478795126 -0.43942826973663673
Ni 2.49524870604059 5.961069967034269 9.73370429398829 -0.43817897071056794 0.05623491123332896 0.026982699236430954
Ni 5.3131204069823506 4.15073183398303 0.5298511962989724 -0.45900336365508687 0.18209272497111864 -0.4947262709779932
Ni 5.174596799109977 0.8494599394879881 3.596060946328453 2.0464063120877403 -0.31105823109995456 3.30168289589623
Ni 6.491327157102924 7.117309063296418 10.356124819168276 -0.3000125148087543 1.5730831893758714 0.07060814923586549
Ni 5.640069114282844 8.024031537134931 13.144767718086392 1.451170733439075 -0.7029619728930667 -1.2626739047138256
Ni 7.6675085206975435 4.580562845086056 0.3613610324873925 0.6334791955108962 -1.962854201096697 1.7749083597789108
Ni 7.624104762385696 1.1813502233260127 8.038278894117953 0.6927688344101488 -0.6175740942448654 -0.8160578589794978
Ni 8.093939448537542 9.197820928407042 0.9211879493704841 0.8390098397899808 -2.0055183156241267 -1.6847983930646921
P 4.870898795955842 6.085846607535916 9.061130249517431 -0.9887673429635035 -0.41180330893051653 1.3595083346360715
P 6.601284566778925 3.7874361449543303 2.255098350718877 0.8723868725885298 0.15864914923619775 -0.303698962521406
P 7.042452243640345 8.212016733607186 2.987670576047034 -0.28624194338722314 -0.8232006406718663 -0.14374394998959117
P 7.626762509410703 8.222262806620835 12.066412523695352 1.065939775680448 0.2970161511845917 -0.18389558250781232
P 2.7322647528017776 7.9431718750603055 10.839423285163011 -1.5059205754864453 0.49633166779189997 1.3997620399497956
P 0.46741613635908896 5.70804328560864 4.627470247148456 -0.3183694200493872 -0.10228516862417224 -0.36296674704378784
P 5.560721618619 5.724044755628168 5.503672620494968 0.23910256669725916 0.5222931248526683 2.5714548881983585
P 9.03480022468003 1.5631310011458854 4.275301353509623 -0.0027346253223436774 0.5532800601524859 0.08331968326526296
Ni 8.8115494745794 4.861734151042023 11.696162702106045 0.9860838825940694 -0.5198492912978661 -0.390927751033088
Ni 2.4876787093417754 1.6335246387289295 12.530568795858596 1.5690982365861943 0.5420672221558019 0.6200009585188032
Ni 4.009422174056854 6.503021244012957 11.63982671335631 1.546601341035259 -0.9977021835592882 0.16043349483013014
Ni 8.96717430986096 2.532667951223713 1.4102830532732118 -0.8167086051896193 -1.7900634702527947 1.0065940867322793
Ni 6.22964905087865 5.336068677846554 11.842422186750177 -0.462982402907493 -0.24257407018562738 1.0383402687956245
Ni 4.833690337605737 5.9240173076476985 3.622592593353959 -1.8476618374925533 0.48845097949224264 -1.6729795460528931
Ni 9.038631046254006 2.786996012227105 10.11255146897125 -0.6246142889210985 -0.36587826426362796 0.6415462887897467
Ni 6.912140157610753 2.076332787029923 0.26735285435491113 -1.288458212766781 0.479905918135709 -0.1120389055768264
Ni 1.5166295928531677 3.4769288106292278 4.547955038482688 -0.9784520770804247 -0.4216583473477254 0.5954703203672906
Ni 6.341723493529742 6.184320717134901 1.8253333250592303 0.9551247152083936 0.6269416515026944 -0.34605300200758465
Ni 2.1280580429235174 7.319673587638456 4.707158667603094 0.1775408439343781 -0.09554707856939028 -1.415289960382066
Ni 8.930433248401458 4.26728778799698 2.956148779865954 -0.676159507988242 1.1365378976139846 -0.5449985368699839
Ni 2.0437341450714688 2.33441835244798 2.5326477890049026 -0.589080871901179 -0.4697328342574491 -0.39867037109298437
Ni 5.8343595864558075 4.724090349081375 7.587924577194922 -0.12230634894110551 -0.6193838937600946 -0.507054710636359
Ni 8.180490355103649 6.658563597490294 -0.1127507934457326 1.1444651228808613 1.0833232612642183 0.6942580173611655
Ni 1.0302160640522233 8.208011783779847 6.566321446432705 -2.5799873511494016 0.24055292599054054 0.3084179652636302
Ni 0.8067013721780741 4.784210419716028 6.633776898856379 1.2720921127039317 0.6816135891242778 0.051558588803582175
Ni 8.418899427891736 7.22551602579388 8.808676358398916 -0.02698655589117288 -0.36551548160757047 -1.5741589389385535
Ni 2.882794045511255 0.16566012146219256 7.127215127983765 0.3295277506590518 1.501181261029247 0.8837640040772199
Ni 1.5866383153498314 7.371527148560844 1.1457996492408173 -0.6318270046194538 0.19844134153247114 0.6852720118124714
Ni 5.288311713200644 2.6770752611307596 11.650422875805667 -1.8329533276377852 0.755716124666647 0.987620373843254
Ni 8.573461164363295 8.391158047737607 4.829904422791838 -0.41877434093171106 0.4506727323022045 -0.19814489333797486
Ni 8.093325417328316 3.525913837693591 5.232749220481632 0.6402339977362265 0.6771627524417757 0.29858683810582126
Ni 4.0615781682613985 8.331285422515627 9.092624551763771 0.14041180029256464 -1.375131128774993 0.8525991484386414
P 2.3792059721418135 3.1040927262452427 6.560284694827972 1.22582125466185 -0.12668930850014953 0.09500688979520412
P 3.5371588570028467 3.52584052053428 3.7406707948880946 0.5835686838336982 0.28894365858910237 -1.3825004246558705
P 3.6559326550859415 1.9663478834191808 9.735192632322294 1.2727009499325241 0.9780430145674641 0.15163620825347432
P 6.26425475007323 0.1926536665913551 9.453900353053465 -0.37285598113304175 -0.5224371066297002 0.19920110251663112
P 4.685003138523937 0.8597481698682414 13.51156980025912 0.2344308722532027 0.6714438476801275 -0.7888810414543898
P 7.3425210474086064 3.3913310271341586 11.923532960095441 -0.2974712364441393 -1.3384137187493015 -0.6916810006626088
P 0.8257565018828866 5.36667859185871 0.9288046857583592 -1.4161006292088194 -0.4376218126555173 0.037672831960425444
P 1.4273751160374843 0.9095965064834858 0.7417506172093474 -1.1710238472059962 -0.08814641522994497 0.4874847589242315
Ni 4.570985791151115 2.1850346403527303 1.9413054911921703 0.36964184507111825 0.6376276704616308 -0.9149514854236178
Ni 4.495386635257022 2.2343037714094214 5.537299535612752 -0.9951369939352732 -1.070900462119833 -1.4940904156207366
Ni 4.401027451224341 4.095230744384942 9.836812964520195 0.027767657031571535 0.004669123340895184 0.5976932961605383
Ni 6.928535707361574 1.5134769550028142 5.135998064126445 0.3416756988754954 -1.6169325824606537 -0.2512407447216899
Ni 6.678918273843886 2.6282551976748456 9.63791909120702 -1.2290729288299282 -0.7772537416281066 0.07880302634183203
Ni 2.9906802454367325 4.017862812022481 1.384838333134485 1.0906843296149795 -0.14898900043861438 -1.7880117299300884
Ni 2.023709395934774 0.8824920691508661 10.433346117212112 -0.672688518720506 -0.015625879462715025 0.2563351285254618
Ni 4.10160933724496 6.308941558673012 0.872388964597872 0.09969761040265411 -0.8461886169266073 -0.8335524162198356
Ni 3.374486409782559 4.849077776416039 7.719456477462543 -0.19612092092941064 0.9461543933889836 -0.22436063250139424
Ni 1.8104481087902056 0.6939808220605572 5.030019026807533 -1.2938061073422555 0.9144583478372831 -0.5601809010373772
Ni 3.188205837264274 0.4208029193984227 3.194075792331575 -2.8427479235852333 -2.01208362754647 -0.9162619767049253
Ni 0.5078468838608929 2.0464927031905282 6.655574090319405 -0.21195634529977045 -0.1414070743262984 0.18869197545519117
Ni 1.7216701935100407 5.875747122886615 12.372814097099065 0.8956993220622251 0.14573475516737483 0.690453813123727
Ni 5.260332052278753 0.1957733117200191 7.510193724893875 1.3218977233721492 1.723060007649052 -1.7895438503038987
Ni 7.053669769014859 1.1538196300049006 2.504197981798934 0.787847715093869 1.5726754124144915 1.1849625687742753
Ni 4.237301069838964 2.4685520954066353 7.676922443953018 -0.05555048357179465 0.5807139879937225 2.533779742245088
Ni 1.8527887682920494 3.4618071465214264 8.767779130470998 -0.5812194668752313 -1.5422237807928538 -1.8547601391002315
Ni 9.055952225141125 1.45565721024153 12.425099312796892 -0.3537953649571649 0.9975772279456497 -0.08651273628126392
Ni 2.08275720311451 5.545893223148441 2.6979413246705426 -0.7766721580930237 0.09019558444948983 2.2968399875271026
Ni 3.950805105188068 7.1233668935844525 6.7731418211318415 0.9570792678316032 0.010726642388884752 -1.1872706480821618
Ni 4.784045456107579 8.598104894536553 1.7754629932961927 1.4554557339676741 -0.3252455783439302 0.24878791230582317
Ni 3.205765296919151 8.30023560554761 13.232880280145814 0.7979984303746257 0.921040114819859 -0.9359103470634721
Ni 5.724933726184809 3.7698766852994527 4.272256858469253 0.5558491064312427 -0.2526103713757069 -0.4206527889013465
Ni 1.9415941775069556 3.7445547714025706 10.926972221560234 1.160441957925092 0.15811127445485673 2.45153760831472
P 3.568336978999659 4.182588139703465 12.45705001435994 -0.14967394232078093 0.6035636388983864 0.08892777348065975
P 3.880778053401577 9.140276122993173 5.2935117327247445 1.4302887477837432 -0.5111522777445003 -0.3476427150922077
P 7.8565751452696295 8.106669140322836 6.9552689765751845 0.7895739537563563 1.059510989335969 -1.600240980737586
P 0.34355779327780767 4.924200370774614 9.410669806530489 -0.26874378660245973 0.5256769537232366 0.39917353598164806
P 6.396573893338949 2.654786844700352 6.8386259584345535 -0.20695786364391455 0.3612317666305521 0.4897357597419372
P 2.0091651044565433 6.738405983979486 7.56642340376261 0.37305267052488006 -2.6050244966236877 -0.1442244891704355
P 3.3006926889364885 7.280952962877571 2.5517084174966636 -0.4480759181093057 1.268603382824383 1.358249779638622
P 0.6782332127051419 1.2589106132316632 8.720268694773269 -0.04378948638112458 -0.09346422789843259 -0.9913811264372668
