# total energy = -340867.01290063024 ev
CRYSTAL
PRIMVEC
9.27223142054380 0.00000000000000 0.00000000000000
0.00000000000000 9.27223142054380 0.00000000000000
0.00000000000000 0.00000000000000 13.57084793548130
PRIMCOORD
 96 1
Ni 1.1423574532966567 8.361420112168034 6.922516299698439 -2.8398639171692186 0.7260353097727625 -0.2438997309755864
Ni 7.054758718412482 5.527965278921343 7.543817000418134 -1.680523419838422 0.5088588537246334 0.17592747670067121
Ni 4.0131052012457 5.788765331589929 1.7637351135369947 -0.41601169058490933 -0.49584804328726223 0.8397343766608312
Ni 5.8861701224771 3.2366392713377814 10.309596598324683 2.4702781221470165 -2.100411562659602 -0.21838770274741098
Ni 1.3350807830053548 1.801733645049105 6.843248920658425 -0.038339261899830744 -0.3211834924594146 -0.2373997250735395
Ni 7.06834253741769 6.8041303035928475 1.0173112133743825 0.07944271680835996 -0.36331975950783235 -1.070026287044996
Ni 2.6600548337815786 2.617467474948187 1.0050635229143285 1.8438566048138503 -1.4518636457410417 -0.5379208040875961
Ni 6.98337180884177 8.567569632948091 10.143896259816513 0.444503370266699 0.4643746552693292 0.06505353796622344
Ni 1.3978630618342023 6.875035057130612 13.313002160954616 -0.121339614152462 -1.0732555926155711 -1.1763910250551806
Ni 8.442756126034029 4.551998018149227 0.4431088120655774 1.4016466585670184 2.1772921751677403 -2.716546096244463
Ni 6.471294285155349 9.089086288202637 2.6614336145911857 -2.0891498737028535 -1.687525047967236 -0.9705973569226962
Ni 4.551376778645235 6.052699398472686 8.282776754301434 0.15464517028312721 0.16592742806516583 0.5927961159692371
Ni 3.625525928605643 5.65999258186684 4.515929965215195 0.06374690333965795 -0.48061297150506266 -2.5378433707915002
Ni 7.863547646990813 8.707367065809196 12.868705576046331 0.7581651004277717 0.042859775478003605 1.4272425047582518
Ni 1.1790569451892248 3.543605764161268 12.51707196288579 0.43697929397551194 -0.9012439060295382 -1.3001585319228448
Ni 7.414298763290254 5.714021874251376 4.573619934557585 1.0209351859452998 -0.48109968133349407 -0.04536737239120574
Ni 5.341213266236095 6.986589273138567 5.7497922885573765 0.4218504087538735 0.10909319268494115 0.07242489072963011
Ni 2.1517232915819178 5.940774293208615 6.3278556470223375 -1.1833474017683554 1.2369173645750118 1.0927610096383504
Ni 8.62260959855554 3.2069866753113967 10.566683122316418 -0.31686583892066716 0.5897825259538939 1.869612887842348
Ni 1.633405556161364 2.864127374727392 9.098208309456782 0.4919561644320237 0.36364448983710274 1.3562705444250642
Ni 1.277092247811792 1.0880314495072287 10.796953425867905 -0.29084344671497653 0.11856693650333129 -0.8471538090533538
Ni 3.7789720860917746 2.3726249325239444 11.199057649000562 -0.35857710261652437 -0.6312659899096612 0.2721502411808474
Ni 8.882092994364918 4.406998863471112 6.692924723485642 0.9235459119608482 -0.29241824740126415 -0.14778263883533901
Ni 4.9503608959108245 8.220046399968442 0.8747970167122372 -0.546646099775736 -0.17958718494044557 -0.6954700353913958
P 9.253492223206962 4.830452399408881 9.292529244636196 0.7716754762093807 0.2696884099039162 -0.8027097198073659
P 0.5594113377749433 0.3972780266874609 5.091646521912089 -0.24101418189767526 -0.24018037314247023 -0.030795645224617932
P 8.05830159537674 7.319174941328188 2.858603906480701 -1.2150233927153977 0.8899837597346866 1.7300976312221235
P 3.5313386020152677 2.196202185621496 7.632950960893943 -0.805133241647194 -2.1743356636425775 -1.4972739555550407
P 7.276856477205479 1.1563956116406051 1.1679617930925479 -0.23882900132089838 0.09097128627324978 1.0707310264215042
P 8.176689445928613 3.0405130327042293 4.9574170640084105 -1.1341557705350533 0.7145247380300017 0.20715583858733352
P 6.7494148660845 3.4764655365730706 8.179001013217349 -0.7079599403282905 -0.3998816177922661 0.417184627847088
P 2.031082288799148 6.560938218358317 2.6761440097118427 0.202380014465245 -0.11346021140438525 -0.5590383027925017
Ni 3.003618823952201 6.570089910752952 11.491360107860404 1.7959579813603588 -1.7838198033359278 2.3817403850159238
Ni 1.6595996098744779 8.984523334672447 3.2049319488325203 -0.550860909188032 0.11124443469998907 1.0886804118110736
Ni 3.1365455333437766 0.8418379429675878 9.402860453322111 0.7729610277900236 0.3204769533106932 -1.4807296780431143
Ni 8.484481167346955 0.2750570356736417 3.2702483285037727 1.200064200302404 -0.21717542760686467 1.8534241938976272
Ni 3.8844529905308485 0.9173528499588592 2.5361472238755773 0.11029852584695198 0.04731832546998947 -0.43013090359511086
Ni 0.8662266932265624 5.471182133810154 11.278351917511642 -0.012543383882649367 0.17782880748844213 -0.5654673462472972
Ni 8.747636366791868 7.090744248487029 8.735650153257376 0.8375633371514414 -1.2693420607626202 -0.6277008982662222
Ni 4.1887583529417105 3.5936665415053746 8.980060609698244 -1.047444287979422 1.8185924309304227 -0.25241522464576527
Ni 6.5838962633118285 0.844172690834831 5.304776178492228 0.8982372579927305 1.6500327074487322 0.8544943085788251
Ni 9.376544006154479 8.04926116975894 1.2205594529484807 -1.5112808113570941 0.17147869690069825 0.5805085568511358
Ni 5.753465946639194 6.735423068897566 3.082264963488223 1.0784471641188393 -0.507870264559119 0.9106685417775477
Ni 8.686142928128021 2.496909922248043 8.361487799457276 0.3940210452464311 -0.12812449828477934 -0.608287783846933
Ni 7.121388973273522 8.090170254708411 7.481580856018915 -2.3277281924655266 -0.21995838966864054 0.23653711996292812
Ni 3.7989908336905756 7.925430519373582 3.1024450479134336 -0.16642467941655856 -0.8373141972551128 -0.23264729799021872
Ni 6.296725984533475 2.052788582513272 3.2159788853259017 -0.5840636211922458 0.9774323775666586 0.19160015024092164
Ni 2.0697567659805283 4.161553626005683 2.5315741593476804 -0.8097170043631344 1.6058261881348472 -0.40761086811572383
Ni 2.935727545620371 7.843204371292912 5.3580284578852035 1.223693666795886 -0.93782581891863 -0.12012656768096731
Ni 8.15970271799855 3.1583909105289436 2.2832953279655337 1.974677676094186 -0.5927475221194888 2.091771370486101
Ni 2.334070994350802 8.414086386536349 1.0759692036752322 1.8137746978268052 0.7929652388260924 0.05417082961544865
Ni 4.580000156985902 9.092646825061339 7.012111090074972 0.5897701846587197 0.9946474558933645 -0.4676654102054591
Ni 4.787113989831857 8.164552095022254 9.348360131582309 -0.9974538149939081 -0.0974761772713031 -0.5586197271978444
Ni 6.147582142418275 0.9512289473892528 12.150889291431001 -0.21513911390312626 0.0910713021862238 -0.20989149235094176
Ni 3.349241249494261 4.4812508925453125 13.296798009354958 -0.3221851942510516 0.36187479953118973 -1.1383412693713104
Ni 8.345471874155095 0.59684889928718 6.84087430219615 1.6136659958942403 0.6389170786970158 -0.9796301565489257
P 8.568125966832262 6.623321791236841 12.775040276083937 0.24363747845313527 0.33092308834468165 1.2409794504595273
P 4.226347979048954 5.187794925444172 6.443696415607841 0.567276631541894 -1.5220046255325015 -0.4323772764271263
P 2.428258320941177 2.7524989808682143 4.500690125681435 4.144023856941973 1.6982920566757527 1.640184868120375
P 2.104518361509896 8.63522910549485 11.875034843856712 -1.4513741076991327 -0.5346966407233437 1.0804168862507006
P 2.777394922184926 4.198030584344583 10.848183431591915 -0.08530097536134987 1.4642957008568074 0.031324521144894445
P 2.95270500131903 7.832921466667126 7.601629363215041 2.203329993992399 -1.4208954794943012 2.0271592909326697
P 3.688642007764994 0.7188807367803806 0.11296637685061248 0.7330215112826085 0.72967753451104 0.2564665118970035
P 5.316104063597116 0.8902287914360374 10.026020236438082 0.1738348558377006 0.807576303871048 0.6643311478947462
Ni 8.306222518626736 0.7995853116878396 11.137133051576479 0.6621174280728791 1.0716939045554057 -1.6850159083921366
Ni 0.5269789267739771 1.1504150223857528 1.7154230790354694 -0.16866436738035467 0.44717860310601687 -1.0664218575231892
Ni 7.773792447011011 5.882961930411707 10.98059367769435 -0.8489291557862219 -1.3032981059930908 -1.1207569806306439
Ni 6.201398173480546 7.301400073728883 12.264640099058296 -1.2980229736370805 -0.5957148322779289 -0.31058309123574895
Ni 4.986207342514328 2.714566282199064 13.248201317349364 -0.7993503164168297 -0.5414486147351966 0.010363345512195055
Ni 6.560020267449432 3.6843118756998527 0.9480865881668193 -3.146470026035091 -0.054122235765700334 -0.08844209209349284
Ni 4.058251695946285 3.192382910851873 3.1180511405876077 0.9943096129379714 0.7259381220732659 -0.0372884520378132
Ni 0.9377007617724623 6.979384749338535 4.502847773928883 -1.5292775050448308 0.5105791788498497 0.016795988511416234
Ni 2.8266026542399687 0.6631796610739066 5.185679002238037 -0.8358514966666573 1.9761306064906292 -0.24041485775077953
Ni 2.118797597870319 5.658481208148173 8.973845432988899 -0.3579063018017449 -0.6222810128022315 0.1748501844760924
Ni 0.8796055959177668 4.659259191017653 4.457372115013496 -0.22512707835377357 -0.5063630838859731 1.48117293622812
Ni 4.6386748373032765 2.019473455082752 5.306377492855504 -1.2576458553716148 0.4575905424679603 0.5119680887775764
Ni 7.494642648396142 8.098311273880133 5.131531025291543 0.7942006538950902 -0.5401409516673665 -1.4765799175407988
Ni 8.279064152847724 1.932741002540286 13.08664010293944 0.36504574106000354 1.6463079502989777 0.07327592587601574
Ni 9.225452995444677 5.658434846991158 2.3713703996151363 0.8815112034873013 -0.30799887544834054 0.04808811375647847
Ni 1.4400517147172707 1.0749297865349705 13.163437359533727 0.5352396577110072 -0.9411757092274694 -0.5616790828494584
Ni 0.6727384044271275 2.4275443591231562 3.822717546627385 -3.241209778211837 -2.0604015979255674 -1.4008933253407616
Ni 0.1390130020844207 7.868239396080667 10.759538117711035 0.022570429101348228 0.7626048813666803 1.5621760555450643
Ni 5.028553623331246 5.258402967577044 10.884145781087955 -0.15731217559232907 0.9149738540211209 0.2939524246576034
Ni 6.6941616391547845 1.2483019693058741 8.405443739645731 -0.8975042364814478 -0.07681479226720964 -0.05226795616578095
Ni 4.171113296582044 9.06266042870445 11.54706767412886 0.04736434821657649 -0.5140370554914632 1.1702381180799073
Ni 2.287570753865398 3.9636007577857657 7.121695884132957 0.5866087562116026 -1.4706707511452155 -0.46830612911325153
Ni 5.880430611238723 3.9203643427541723 5.2212750985936625 0.45383313230805716 1.0358545262592933 -0.5551862760362632
Ni 2.3604597649233763 7.827970095097993 9.926912136642201 -0.2961712866857932 1.4748014854841376 -3.585569708787715
P 8.527244698577 6.689006278494787 6.345375528258064 1.1054799998669154 -0.5583865281411157 0.31009278186289174
P 5.814977929765848 4.548910365092071 2.836673224766628 0.045459160774063645 -0.10705687898120272 0.6057359639593568
P 0.6246238684544835 3.0995029688893023 0.8703148200520888 0.2074294039636944 0.18817184128566303 1.3999389318472921
P 6.970075429010051 3.638618319346499 12.107286623258993 0.07672043278119045 0.07039423345284651 0.8718345996294856
P 6.433296680866379 6.7077732748542 9.42667710690353 -0.8170788440448443 -1.4911393034122127 -0.5041028270968867
P 4.6537329411015405 6.1328300222563055 13.34568028608776 0.7487232382885814 1.268524964177964 -1.3448196222756452
P 5.0086275980464725 9.22184609742896 4.328177478761577 -1.211826997265287 -0.43531141935478573 0.5234069267421373
P 9.254966508000019 0.22223591504089982 8.787557959096935 0.013009267775474368 -0.22663040237217744 1.217240969192007
