# total energy = -340888.52448000206 ev
CRYSTAL
PRIMVEC
9.09685855561335 0.00000000000000 0.00000000000000
0.00000000000000 9.09685855561335 0.00000000000000
0.00000000000000 0.00000000000000 13.31417202069804
PRIMCOORD
 96 1
Ni 6.773111385003148 1.9260323387658287 11.288207862448933 0.6609192939997198 0.7514480934189123 1.0853140664420018
Ni 4.910393180504932 0.7732593424908625 6.002374601338781 -0.042174319375204786 -0.6491575254781013 -0.45523695463411923
Ni 2.8549762251172286 1.7248007347236092 4.739698820330952 0.5809811256121801 -0.47651617572786964 -0.13586223324866925
Ni 3.193543099998261 4.6949340899692436 4.939904298748834 1.2004089852363327 -1.2095806244332716 0.41053755484421556
Ni 3.843786536413335 3.302168685815726 3.1887308619195873 -0.47832006170582786 -0.3789785490910118 -1.7453231899226263
Ni 5.518245256907495 4.928295797780601 2.6507581224715526 -0.025688920125671883 -0.02735422364323676 -1.129924763172841
Ni 5.76316907170939 3.1396624078621884 0.06840928464164793 -0.01274830080460385 2.104573150236459 -0.7671912151857819
Ni 5.99220977179415 8.344666443595695 12.261699973932792 0.14468908751167983 0.053690290434604306 0.558309137935961
Ni 2.19057807707566 6.641798234406456 13.43892532551111 0.2752941861264678 -0.2784967522241656 -0.03449906221813413
Ni 1.3800025118579051 0.3891845239191466 13.607216295703267 -1.4108265252940735 -0.09784795878842503 0.13714109996109286
Ni 7.954793287497805 0.09011438871672299 6.535034775497694 0.5337980401684742 0.30249928578635005 1.5122591161099634
Ni 8.99971302123107 2.5005262355190623 1.1933249715247018 0.29764041503215194 0.03072108323294064 0.20573119032566506
Ni 7.064047109449524 0.9444540298752904 4.575481423317682 -1.2577571841384982 0.2675834477457714 -1.1177091949432558
Ni 1.1516167855759127 7.419852530945085 2.2249714792076984 -1.0409016017648978 1.037197413440433 0.19255017285901677
Ni 7.89549996463052 4.297983578058105 3.672701011329368 0.25106873792019985 -0.9285325665421622 -0.37477865207705136
Ni 8.08749825742538 4.10533940831885 12.404334164773168 -0.6401609784064459 -0.42945830300811844 -0.6586328119583883
Ni 8.58953567724736 7.450290619057071 9.031401927369178 -1.223945634905692 -0.7546540019507197 -0.04959015222330169
Ni 6.977908957527107 1.13803517602684 0.539549225003865 1.564512416987725 -0.23168004898094294 -1.661182553417965
Ni 2.0811064834296196 7.023320474519049 9.18227787189439 0.36568414597495086 -0.6691807626775637 -1.3772463753457829
Ni 0.29958228832875505 4.983395468938493 0.9375868114904311 0.5530193502919314 0.5057118234552193 1.8560927418687259
Ni 6.439620557093571 2.4483102684650255 7.062542489074831 1.0783936851730849 -0.325959059471187 -0.17922234540185908
Ni 3.890780906761967 4.563320743046281 0.6804031606608839 0.8049159834300653 -0.5761286826158851 -1.1560073191925058
Ni 6.125187647472879 5.809508468255253 4.714441393061695 0.3362434721163306 0.58891477863696 0.3048801273137008
Ni 5.586717309871909 3.0143986680827317 9.420854808610292 -0.8378312461008475 0.8059667932920829 -0.26899009828531095
P 0.4482058507211141 5.8070705102116165 12.236722729901388 0.3974226147288123 -0.6710512402273991 -0.4824348552051497
P 4.1768771025545535 6.234531885101715 12.575301430698302 -0.22310439149678996 0.7019867534639911 -1.5167438913541942
P 2.857859929221084 8.59213737874169 1.3588041027941384 0.9313502384966154 -0.3115007179540119 -1.749253635325284
P 6.46976754573766 7.917268746714199 5.6965618747111915 -0.1179223609407969 0.011471490974709276 -0.8817338610210687
P 4.863908234225119 1.4123327465112232 12.713369908321882 2.3755769365176893 -1.880072649723091 -3.1045610445061307
P 4.131592941579816 6.256837381829328 8.146435893130327 0.9237009494814736 2.3917532891672355 -0.13958699039842412
P 4.889761505717727 1.3997972756749057 3.6917270906139525 0.2156258237315577 -0.5263215292857709 0.08717196713181762
P 0.5807634515430666 5.767189883109718 3.4427788256683813 -0.5163590187564204 -0.8763360870442649 -0.17606785893327742
Ni 0.3889661993182238 -0.029069920612870854 4.435696368519348 0.12315995519065241 0.1322493190864303 0.4653766141712824
Ni 2.136006023703332 6.621475852803892 4.774501581089721 -1.4941040424674912 2.6444690757725553 -1.022433624867697
Ni 6.382965323154105 5.86289793003925 9.107958358368593 -1.0982600850797084 0.3983528398525656 2.4321460911619854
Ni 9.045852286892755 2.2206977751446346 10.201584491196062 -0.6894899065485609 1.7230252977563745 -0.5104611652147467
Ni 2.3496457425646637 5.870866777972933 6.976053198419263 -0.12003323663621261 -0.7313572362063082 0.5584598045812125
Ni 0.670797787906118 0.23088827202007026 8.833207764337297 0.7364061114841253 0.6449270323365215 0.6216546920721422
Ni 1.657338433038464 1.1434387098996792 11.401524698128727 1.3680145723348698 0.829782664764758 -0.26489998737633735
Ni 4.462864136046678 6.8565932542810035 1.4104897230051 -0.5929853491619078 1.537607879287397 1.2463877659592921
Ni 5.80918098135387 8.10269910776463 7.786846178552103 -0.43059370216414233 -0.15667634178054307 0.5760188965108983
Ni 5.244102333015432 3.327057690320925 5.112615432423838 0.12670807755322697 -0.8739051090052691 -0.6420165435579459
Ni 0.8700753867700782 7.87417692860706 6.8359615794938 0.14868123939020847 -0.33810212259162414 -0.2609091210493894
Ni 5.458506187979993 4.7996935109787 7.198546889533851 -1.0007851933599863 -0.8018643410879351 -0.364440760486153
Ni 1.185147805534306 7.544643234089209 11.173918572609196 -0.7629661213608407 0.9626868438263679 1.1116678738451822
Ni 4.889952539743534 0.7980164425496707 10.462143076481542 -0.9258971858018442 -0.6887661410086588 -0.30586511693478935
Ni 8.290058002789879 6.900867663976474 4.711579521417932 0.012800494198777957 1.289489996465405 0.5043889908787378
Ni 7.330676028326493 6.205076257693881 7.171132597144645 0.662113314307821 0.9085340119330483 -3.159526344998417
Ni 2.577667594511785 5.476690807865188 2.3849806695381814 -0.8997938038465729 -0.05922844664401413 1.105882891732289
Ni 2.682845471006344 5.497440741811227 11.138289817110268 -0.8248201785531601 -0.09044549567676681 1.112884776971419
Ni 1.2040783678059872 3.3798103720188966 3.6472843890386053 0.600273912403521 0.8502417039500583 -0.2227593494525454
Ni 1.6976557093422078 0.9960150231265584 2.648841414412618 -0.379920601289307 1.3943652944142566 -0.4482597519853377
Ni 1.2063252918238176 3.4691597149465525 8.000818842429842 -0.2566449464563967 1.1817016386348165 0.2985711543765374
Ni 3.7552377170223954 2.991929427904427 7.077787004334264 0.8320987144924444 0.3642628401473921 0.5555390313899916
Ni 4.412130956907243 7.042724073426063 5.745278280349604 -0.640257137664678 1.0875205871750173 1.5501337796685497
Ni 8.961033179434247 7.5492007601334725 13.332678568157869 -1.2977355243036488 0.6012123650573904 0.45933426463194443
P 0.22715674071596473 5.829958205875023 7.656007883962418 1.4970932070028022 0.13850198486436147 1.0510412613020608
P 8.708659037625862 1.9738727169430375 7.921026658907582 -1.016804451606378 -1.2450790744501978 -0.4267277914508328
P 1.76020570750659 3.4979876591267343 10.146184623711903 1.0428435559826168 -0.29833769820949263 1.8386341800726462
P 4.153680113706506 6.279097394265082 3.767884169530849 0.36359255355324477 0.405437771723805 -1.4503397528973472
P 7.309525832612096 3.989017880318855 10.302080214686665 -0.9152276219031399 0.6216567489546714 2.0484822207801625
P 6.630845616926829 8.046971753379086 10.100743087087332 -0.7807856660407649 -0.29795640361067394 -0.6052286853056351
P 2.367330035239411 8.82158743745318 5.394676261842702 -0.006727291421504543 -0.5822119126954876 1.2667881839925152
P 7.336643567418383 4.252617545358022 1.245213451677354 -0.6393716497359311 0.09507373847739756 0.6576100271208287
Ni 3.2794811210364982 1.9366574693440717 0.45726632165941034 -1.8980719145139893 0.30852055227976544 1.1143104536743518
Ni 1.5092779661793183 1.3164154718391397 6.873361493317712 0.4493699543303809 -0.5336661425763002 -0.7832742367905735
Ni 7.053631206613831 0.8152704538234322 8.937949901315847 -0.041591707398857404 0.2472722469922451 0.05526354845899515
Ni 2.7991215147144786 1.6670174903460415 9.113350976011388 -0.007268508636955224 0.5933404185084814 0.18482760740377846
Ni 6.138387188970337 2.618385132583887 2.3373959130812203 0.8824949075568091 -0.6140375418465167 0.9849662240498585
Ni 4.49082787868154 7.326928122677319 10.310694029878906 -0.22871479570503192 -0.3129323081942159 -0.3262747909393929
Ni 7.410419088813546 6.422891434547862 11.354152808157664 0.8239259488736649 -0.44421694937453177 0.08261005879274805
Ni 7.8553191412023535 4.0595458232752915 8.32429948738711 0.7856260248522018 -0.21747470401483834 -1.4294032598549964
Ni 3.505892829051814 8.585669512439353 12.452492023307553 0.055633787314220313 0.13024591550315634 -0.1985344154669097
Ni 0.2967977399811521 5.320470459046553 9.996653194854039 -0.06227031879413147 -0.9010698423455191 0.09821331254764375
Ni 8.66518515146711 2.420792271890381 5.642905874976901 0.2814496642049024 0.9374008155660695 0.21638532760540152
Ni 3.656600481697149 3.088665419829971 11.414772452975553 -0.41639581339720544 -0.9564899709870365 -0.10714043983394451
Ni 1.4324459003712362 3.5189377239569515 12.619877856091716 0.3524823025726962 -0.3537801954485133 -0.5523395506160875
Ni 3.3723691418707777 8.564155442390083 7.784263580460355 -0.27217852331562153 0.20066637420824796 -0.2905613966981835
Ni 6.2705554442539775 8.178366775701125 3.094187212861643 -0.8120621075565433 0.409500628939269 1.027345717457334
Ni 3.2873044192362317 8.434170433115671 3.300450289269296 1.9093184339620857 -0.5455096721784476 2.742044240515568
Ni 3.300167376973934 4.601172770731272 9.089704602359774 0.8889617462280754 -1.3949124251669784 -0.4699896874632616
Ni 5.207332831476684 4.784856534974321 11.119663089908205 0.8476598021554951 0.6623516555708722 0.2779411368310117
Ni 8.401903876470955 0.12912626584411585 2.1843367225467794 0.377363382085092 -0.20417541580277093 0.18570846734683502
Ni 5.0257231509424 0.3805497859526498 1.383955096820445 -1.3799128664343525 -0.8614933656044775 1.137944033932892
Ni 6.074108787715316 5.84912528646437 0.09877732694417228 1.9629110224765614 -0.3220972625229356 -0.008959523186132957
Ni 8.304940463086117 9.113414654019989 10.983020089991484 0.37923437385555975 -1.1692125050288704 0.18263188530404031
Ni 0.33102830834833563 4.94221399108943 5.575562742136427 0.30009427588928317 -0.6321260239171113 0.8069594962226554
Ni 7.513732109341889 6.357575991438457 2.4849169362389194 1.1948469177675227 -0.42711628513850314 -1.6807761592791761
P 8.687790844520991 2.007440124334918 3.417374938979339 -0.5439945210855017 -1.362438878019305 -0.2926769003792895
P 2.255238546382296 3.488554216995195 1.5240203348566304 -1.7852634777609901 -0.4168768667986821 0.22144602995776055
P 4.772775907056593 1.4354023793420656 8.156767195183162 0.5688863992311751 -1.7113530036247688 -0.07374283821010524
P 8.954610797423769 1.3903001555347638 12.456059811160967 -2.219040719859436 1.5290003401240442 1.1216910624091392
P 6.981684153751397 7.942703562721705 0.9755416336750228 -0.6766022519526154 0.15147422875431332 0.0039109050186319745
P 2.040015974164274 3.3114110939214574 6.025874515570609 -2.158836282455398 0.045389740988708925 -1.6201045524307325
P 7.096886768171661 4.232122323446394 5.743733633798074 0.8855347228243974 -0.6173763764117626 1.0740462068376664
P 2.663423678382587 8.878861257761928 10.174623222353771 1.1523218999211187 -1.1186880139167572 -0.6498123854532808
