# total energy = -340866.98078970064 ev
CRYSTAL
PRIMVEC
9.21803016216189 0.00000000000000 0.00000000000000
0.00000000000000 9.21803016216189 0.00000000000000
0.00000000000000 0.00000000000000 13.49151891509185
PRIMCOORD
 96 1
Ni 2.1017384708631854 5.357777081629924 12.793022483204249 0.32564821309898756 -1.4076216452035306 1.7378093980440843
Ni 7.445485710988156 2.0676041061504122 1.28366689329689 0.6326140192971235 1.1771608133416696 -0.045991636238765954
Ni 2.3415455186630205 0.36162146929763467 10.667365990164386 -0.9440615154156967 -1.1105869820761776 -1.232175221904336
Ni 3.0715397423556796 4.986908084738486 5.897951790054323 0.5258129650804686 1.2173803229833484 -1.7156225775344
Ni 2.7667732378637275 5.803183068277636 10.643782582473014 -0.6066597613252069 0.6511755843493946 -0.9110241253447535
Ni 0.399804392741666 0.10049680555538577 9.214558388069712 -1.6080162538076306 0.6659537710998338 -0.5368088019703401
Ni 4.859607091845319 6.713647881315871 9.776278397775009 0.6230122345413012 1.338546901893056 -0.5661713142928572
Ni 6.675540545717005 1.6308261954873495 5.465751553038672 -0.9449770852514306 -0.12883720808108778 -0.17389347698977795
Ni 4.597252742914661 4.215644741191902 9.535576279272066 -0.9795077720384485 -0.29187985839929087 -1.1614940533386902
Ni 3.704938230745841 0.24806916799752826 12.36785007218293 1.1066791623813392 1.109543628413328 0.2821523466988818
Ni 0.6924879036431505 3.9676520828425277 11.367939949634176 -1.1678215382186146 1.7127817656514956 0.2519092315436242
Ni 3.3543949897797787 8.626481265476691 0.9607381044966534 -0.6772972211371109 -0.08698967591768246 -0.8593819756884296
Ni 3.6952592993528053 7.009721783613887 12.363452150118531 -0.6442163794227421 1.1883939630533276 1.6336609509589286
Ni 8.345700074779673 1.9350119640957197 11.048730635897837 0.7573253781352957 -0.1784265889734411 0.6964413981657296
Ni 2.022113128603144 3.0646999641712673 6.782091753309482 -0.4488457063957947 -1.1649357320303872 0.4202308708725795
Ni -0.0036125459170768905 7.007177607362004 4.722395795008675 0.5834028476797952 0.4529479014896264 0.6099805981683237
Ni 5.609383207699365 5.746658108942307 7.123400371923599 -3.878438927683469 -2.671620953596999 -0.4207515192627399
Ni 5.3372208749570955 4.704707317437154 4.7412568059832365 1.0152664176952968 -0.15846942912522385 0.6557776018977803
Ni 3.4341954746078844 6.224695921429396 8.203801409739828 -1.7098381096421391 -0.3496553746468623 -1.3278583118309584
Ni 6.332316420490057 3.7665884147045303 8.065243358735067 1.312829442522294 -2.050442686940643 -0.5895614110820233
Ni 7.237582264665748 6.972444070705852 1.6059356711564208 1.3437461867058085 0.42751069236344436 1.3569976523990759
Ni 1.9926246509590282 8.369869749172567 7.516192609321758 -1.351711464299472 -2.0410270500536973 -0.33056390523305
Ni 0.4460982606930614 6.619375089547702 11.651167605466158 0.02806101990227425 -0.5733215521843933 -1.580388464788033
Ni 7.182532190114118 4.5726129489969605 1.6171070015899636 0.021952335901375096 -0.9449128076723986 1.4914771463676055
P 1.992108441284733 1.1294114591786037 0.4580346876081491 1.3704825742593882 -0.6906978108137332 -2.386123344574968
P 1.3090800799230429 6.0940764377729035 6.362087891652045 -0.4993403727112369 0.7671847874278788 0.27905108206573875
P 7.469268228125331 3.85262950577367 5.845038454833081 -0.11313368130290193 0.21052064129450837 -0.17449794334299626
P 7.063564296248861 6.2453166543115115 3.7554447383606817 -0.06586009302791883 0.5653097376235103 0.21162981519828714
P 4.190792932586545 3.816974166127705 7.195997888189306 0.5032787885336946 -0.4566968270090973 1.2895203354827083
P 1.61091525090739 1.0001193718274415 5.792987927210305 1.030125079974684 1.237731890056507 -0.5718963897020924
P 4.20076684093632 4.946892616950706 0.6543335560918033 0.45387632684116663 -0.18704749787323272 -0.8513611622664822
P 5.00728914884325 1.5185966814776248 10.021567407955262 -0.20231959354095477 0.13585580549076604 0.25878230451437373
Ni 2.1348404162273678 4.133069629364459 9.268039553932677 -0.6831251406727977 -1.4473264199923204 -0.9702939667496644
Ni 3.0272931988446583 1.6305680906502018 8.683748276218822 -2.638067543121586 1.897461277513184 1.4267619655774073
Ni 6.22797754007313 0.8795908655004309 11.849222508645408 -0.20316600070165008 -0.8626207943407015 0.0059104519471640145
Ni 7.84554820856697 7.535803967930027 12.804705414297137 0.057963206778345336 1.770607932631344 -0.8705251367894427
Ni 7.005877865146368 0.8796526263007484 9.357973419027797 0.0980950418022246 -0.5914730262824394 -0.9024842061945425
Ni 0.8375695544068185 1.2564635652645206 2.122377639805097 -0.8395533709982766 0.7723269937504506 2.087283509918076
Ni 0.039433810101207535 0.05115545691966881 6.717278863292745 0.3115385131704828 0.07669575019084211 -0.792926415168357
Ni 6.054779976317178 3.751692078389153 13.359962663240855 -1.6052978264352031 -0.35155670543463324 -1.0066959024174662
Ni 7.240614996502231 3.2864396733707686 3.6755216537349313 0.050904757269667165 -0.005918679477280129 -0.19877969870849638
Ni 7.464852791804127 5.203070885849619 11.312071314027595 1.1793696480675302 0.7637623920098912 -0.3005650448781146
Ni 4.769740518368456 7.103837868873788 4.253997276386059 -0.18598588937793775 -0.7473415274497065 1.3431000684813772
Ni 1.9351225804544976 2.45197751684261 4.132236319461668 -0.12316226918349757 0.5716019983901253 0.08981994627762596
Ni 6.362809663393068 3.1832622647210074 10.779237844614064 -0.36383243747819277 -0.5452921568510029 -0.09105381868472706
Ni 2.469749878486203 8.177332758690339 5.004556924781444 -0.9000090051811726 -0.4634925097746921 -0.5056133502041421
Ni 9.096960293447315 5.762144399171164 2.698425233381057 0.37084357868870327 -0.5959886547646058 -0.7270128431946834
Ni 5.216252668603944 5.478616235564502 11.461503874903178 -0.41407924944888685 -2.1810133327730696 1.647828757818878
Ni 7.559226981901174 0.1070923059474973 2.567300601686147 -1.3239780029399457 0.4260094252275696 0.9959376354596978
Ni 8.888512983360917 1.675247881566435 4.601498567485739 0.8405399032812622 -0.7812289242257707 -0.3831712470161207
Ni 9.023630865607696 4.745801294723015 7.290250400291699 -0.3688890260654937 -1.1561857537518991 -1.0204901279880811
Ni 4.4785982620659395 2.314684179539871 4.800700193584314 -0.5720838231225501 0.6778266112780197 -0.015878876013785556
Ni 7.270195654445328 6.38586395616829 6.033258641914015 1.4715986622761237 -0.28038239928265263 -2.213794126748516
Ni 8.669096217695744 3.4023748353995416 9.436939672150123 -0.9590867851799353 1.0450426205164647 -1.7628912807133768
Ni 2.4210971166838764 3.9316464580604342 1.5780621923504574 0.5221226607130749 0.6643738282072236 1.1497510538701488
Ni 7.7512108905895145 7.4206062482931054 10.033332379514244 -0.1636661428348149 0.43090789097045146 0.6179846994197228
P 3.437440221132026 4.0076214604808165 3.7862062259337295 -0.01311673988761612 0.02534696340522086 -0.40629394907651323
P 5.08667482232594 8.160362365647883 11.278667017282753 0.7964408560795186 0.3732195351200476 0.12003015131241909
P 7.060540782442275 5.411094166560703 9.039493251456399 0.785278411704796 1.3404109516849885 1.1478720916798812
P 1.056883999940122 2.1625405960712465 8.928888876117714 -0.935636267466479 0.6939096328828114 -0.4754998186482134
P 3.012645749336531 8.09011175979424 2.9209540059398384 1.2098259076748583 -1.072430011390482 1.1565109983018018
P 1.5592481933283753 7.6614457154415305 9.813164344412373 1.1909938625700198 -1.5445094915032367 -0.11241248686616123
P 5.806059093605851 1.4071783540989355 3.082366318471032 0.16336069577925416 -0.49213357055015244 1.411556718591879
P 8.092609845896632 3.6159381520794027 12.736910491608356 -0.12016127757364468 -1.8640245951212928 -1.1725467116084258
Ni 8.94713965351302 7.095329627277815 7.570644433732997 0.17180034190617507 1.0470804768821 -0.20652077610649597
Ni 3.660359838158488 2.6660846972864602 13.125250420565719 1.1435210138000371 0.6050798184325966 2.0465130128689335
Ni 0.6137530230712684 2.932200002415556 0.39519353418662173 0.31077001043557445 1.8955789728888064 -0.46052931338131003
Ni 0.7528982625805413 4.66944835307681 4.6834726637638235 0.04251293366154614 -0.6961125540714012 0.39513896090095824
Ni 5.255908633225697 8.02077373890051 2.1500888812848533 -0.033901023622819035 1.5329636956471664 -0.01893823166539964
Ni 0.064025670263437 5.7413853958405765 9.403034836381812 1.1751802925765311 -0.3420695918798044 1.1148537277723316
Ni 7.309040432436046 8.556986538074694 4.853803420221458 0.7036685120417882 -0.4145770150209118 -0.09052802808824409
Ni 1.4494983293612471 8.126052858367046 12.998902571964019 1.0296188297622266 0.8169292058408576 -0.010981952932800442
Ni 9.309011853223884 8.35763742349775 1.4105521530416507 -0.019349865281521515 -1.301408859390178 -0.3013548877692616
Ni 3.6926966870411255 8.814934668714049 8.820039613671632 2.9210796667176018 -2.2666529224207608 1.3881925899446417
Ni 3.5992903900833806 0.4311410853803567 6.471976026067645 -0.92980783371016 1.6484779613671028 1.009564482214513
Ni 5.798426564850201 6.572012851931114 -0.038580220532640756 -1.3505585816419514 -0.6771766363988467 0.0170996357947641
Ni 3.4236408303745263 0.9600393778303752 2.849584331256562 0.7836439614251665 0.45602011265704684 -0.10327941421664148
Ni 8.05709277669914 2.207192732897785 7.149290130695484 1.4118418539324653 -0.030451117401005617 1.6052710869623257
Ni 5.275331022221055 5.6032624358470065 2.5165995936404557 -0.6818107927367484 -0.2891182364937537 -0.6936093280335731
Ni 9.001203398865547 1.0377658059314019 13.060950053011318 -0.2520555273135014 -2.533649387314811 0.4522426478924857
Ni 8.540357212138469 5.480588893962701 0.1250075470545117 1.833736999881345 0.6125090210171322 -0.4928956455271576
Ni 5.314424687019021 1.2315011403003862 0.6662165184334818 -1.1844753447252117 -0.45112241824511345 0.35668528491045026
Ni 6.344198461028745 7.437078867721063 8.19754144563601 1.7542117506615078 3.169653663240406 0.2811413889358642
Ni 4.92204080834535 1.7837348754375193 7.886021812440687 3.8373357298852557 0.6328821853568455 -2.198565739834536
Ni 5.022489680145265 9.214471738588669 4.954868056418568 0.7597743538964206 -0.04915794978188953 -1.9408666410820123
Ni 2.6574289672121165 5.987645064569102 3.2965315725032407 -0.6740946550394132 -0.0924751245122859 -0.14073498795993827
Ni 1.9617442508002951 2.2690088413946405 11.793786198641046 -0.8365814328541463 -1.0776609207721182 -0.09009685408809645
Ni 4.896147362361504 3.0858553427874744 2.148767015797462 -0.22094312217941303 1.1372477791968154 0.2024610042148255
P 3.546941198291904 3.770994632995836 11.336653034356935 -0.6309646566191585 0.9677534597159978 -0.6294965567140642
P 4.602387185567918 7.716468135903465 6.88138929317512 -0.8758444921198272 -0.008763090904610714 -0.4242415346938694
P 7.284124097621402 9.142690939771935 7.024359093289127 -2.354949747185641 0.5386250292434723 0.9793198243973587
P 0.17418665836402158 3.4059329949402195 2.43610960017597 -0.9032485951643928 0.7229510144204839 1.771217541190885
P 8.661094967744168 8.992759683478862 11.205960728264248 0.017891535568440156 0.12504997312451366 0.6330624196884516
P 6.8885876527225705 9.114852489479585 0.5097423045187158 0.8833531417920464 -1.1434647066408048 -0.7141365014526475
P 1.2400093818963598 6.319752245738907 0.9845150908158882 -0.22532556751782487 0.7230368892660709 0.6115227458444629
P 0.2244525753985209 8.878843269997779 3.584318465922839 -0.03407560152747035 -0.16939250379563087 0.6412151307025732
