# total energy = -340855.87141338794 ev
CRYSTAL
PRIMVEC
9.35858898389879 0.00000000000000 0.00000000000000
0.00000000000000 9.35858898389879 0.00000000000000
0.00000000000000 0.00000000000000 13.69724095860578
PRIMCOORD
 96 1
Ni 1.106372378558989 8.157694763511245 0.553607325779538 1.1212963980738817 0.7116250478847035 -0.4329249214004803
Ni 6.021989910134577 7.149157073206829 0.42871789290327467 -0.9675788818113464 0.9125410762099123 -1.4248994584473718
Ni 6.039911607858655 6.410586596608142 11.117352243364328 -0.06038287196343149 0.014600009301361952 0.015471870383354
Ni 6.578077261969926 7.831285900210785 4.15194919129208 0.10759218265938243 0.7661164940643646 1.258677896180555
Ni 6.852901583309491 3.3659007215373657 8.723388706842034 1.4274764751459286 -3.5453879943625073 -2.7829726032988136
Ni 1.8399453686904923 6.366208168092436 8.735456607215506 -3.4792749047835176 -1.7100126875467907 -2.3879328869798813
Ni 4.256108413918419 4.668943845616716 11.628478126596136 0.67468395188398 -1.4026766424934294 -2.1603882003235504
Ni 4.247273906006393 5.224984404507618 0.025938264967129872 0.49803168120214236 0.26735847621915887 2.2124826070259447
Ni 3.174339765550866 6.746138801253993 12.117428833453424 0.27900428798820337 1.0735831511583187 1.0634473482758975
Ni 8.828771097036277 7.398320143810403 4.4012797806367825 -0.68570909934989 -0.4848954009305004 -1.552579670105881
Ni 7.553457471837576 5.109695947973458 1.7969688567904873 0.4356868004163335 -0.7181139980431568 -0.6014784742345834
Ni 4.000469199803063 7.931974958076765 3.1114519199288 2.7568926183823104 -2.588387145177323 0.29890334090497556
Ni 5.045037457333431 4.431460293947684 9.12596431754038 -2.997556101808786 2.2648246109627705 -1.2100560214077933
Ni 7.498026549842948 3.1546025015821564 3.5767740615569754 -0.04429496526263339 0.19274454825801 -1.1399343248900433
Ni 8.507911876947503 6.751033343243389 0.048815335508387264 -0.6388106350261386 -1.4399126440267525 -1.187579180461516
Ni 1.5812271788303733 1.0787645413339082 10.118261112685335 0.8947156179927171 1.0717478977217927 1.2420608564491642
Ni 3.0617091482614276 0.27294418083159167 6.498710813030599 -1.256920547169816 -1.400238722475898 2.2770898014833687
Ni 1.4363936571709341 2.288736498903623 6.6265884433393945 0.9848114436395492 -2.212282060979364 -0.49101719755752216
Ni 3.0889613591086937 3.9814338300010927 7.567862211856845 -1.3470996765590735 -1.1361524892501078 1.0126503202286883
Ni 4.732956593623343 8.073411311969187 5.589405984160902 -3.0896543025976277 0.2767823406362201 -0.8133749128306959
Ni 8.954269774049271 0.6830057267829348 13.349303632460963 0.6773085339910206 0.2587565934827608 -1.4355456253073084
Ni 7.791895599573373 7.922560217653567 1.7355774495319092 0.45827934100486883 0.49369191617620783 2.4744739053959193
Ni 9.053957462904036 6.603747871294807 6.509640708995064 -0.39854233015555235 -0.9063485742459552 2.203781479707521
Ni 3.5033877509182667 1.6330269683357364 12.103731602754229 -0.1031778556417707 0.44290928630670173 -0.10956910388009516
P -0.007552381234115242 6.373255185526499 9.998999935167433 1.9147917983718312 2.648423175324297 0.931079758444048
P 5.958838152305816 9.111166516787737 2.555274725640107 -1.401739732501457 -0.1915960364758636 0.6566111535426692
P 2.1561440115121178 9.234138374800468 11.96811441943352 -0.030034855799193436 -0.3283386154469571 0.5582253199729031
P 8.626335460759764 8.72599507384786 6.176976564880623 -1.1094574964574246 0.06501522852912028 0.4007516791020453
P 4.950038421512485 1.2156432624369686 13.760659471255773 0.7857952034402144 2.9218885357721422 -0.21207487315550572
P 5.373121508045176 7.898527361384414 9.206421977944265 -1.1949765013668516 -0.629066154044865 1.3256890720937813
P 6.445129148200607 4.167454501364796 10.572968742794636 -0.9985712164278029 -0.4500844638989023 4.507472428718186
P 8.3936809409579 2.195824428405115 1.409802162699292 -1.4295752666564863 -0.7652852564123208 3.454875135782914
Ni 5.686418988310946 9.153177222314309 12.397989033923583 0.05577982597378135 -0.9019093075276791 0.7814844918800025
Ni 3.6040580916064666 2.874509294697602 0.5828575953547885 2.2551354086994646 -0.7552996059545186 1.554243173851233
Ni 6.255786177781004 2.172980112924972 11.703525586762794 -0.1019565816401599 0.15689951353494266 -0.6007323400971782
Ni 7.254544142695518 7.3472690414162285 8.541544773699874 2.1210608634788373 -0.38495739238226606 0.813982721618024
Ni 4.612361817188636 2.299938729804783 9.561358627757679 2.2281910189001373 1.4685789016131932 2.995694623120015
Ni 2.2736130192576125 7.961389002957588 10.221743709334937 -0.12984379496873122 0.7831307692341739 1.3360087088522345
Ni 4.577332618973898 2.9385314012931194 4.778611533663625 -2.046063841146657 4.076719832378675 -1.0044053066110765
Ni 2.6321592768058446 0.044221204222356064 2.9351136446305435 -3.2491750558055013 2.9662665476668852 0.32407752617775804
Ni 9.197405913407776 9.367385963414263 9.188711784329099 -0.9763481433635444 -2.778764478754737 -2.079013042379168
Ni 0.38157400137061603 2.217658016285153 3.631535844445978 1.951749606543103 1.1122461149461553 -2.749410193962336
Ni 9.342145849178317 2.892636881377257 11.734453851325997 0.16179772216750846 -1.683357032632475 -0.1478209482724422
Ni 1.5323004761141967 1.2611727973861266 0.9509159226506719 2.2696374589703816 -1.8635245155564226 1.325707841146859
Ni 3.668014688079755 7.5319982275131325 7.845916182222299 1.5388204115382595 0.6264955651042113 -0.8097972227817666
Ni 8.734221273482044 4.727435026178328 5.069430619274845 1.3373649657698128 -0.25421473974834924 -0.6144592027649676
Ni 8.685322646532537 1.6790525084960568 5.3208575325308765 -2.468699721916303 -0.931233253302777 3.3697597940698096
Ni 8.766339950552036 5.042005274533118 12.191736029238895 -0.3006799731894241 0.7888267911776866 0.0705245883831237
Ni 2.3086047831167913 3.860174593755205 4.846536171826213 -0.12117712043266872 0.489535470805673 1.91296554379637
Ni 4.035844665806725 8.867300407495822 0.7889898742427964 -0.014579697586387793 1.0077549398096 0.9321346820711236
Ni 1.6998098586537616 6.8459200759976575 4.171124939927398 0.8744031316876102 -0.9091893861288599 -1.0602036445276193
Ni 0.6337505375967243 7.331471743370149 12.026410005487334 0.1895736067291961 0.06818308473414064 -0.823908208261852
Ni 5.891690277021087 1.3532051605289883 4.487873867775747 2.0485614107575296 -1.9748311709529152 -1.901120985752958
Ni 6.39618372830665 9.395180972417142 6.154992303719458 2.3954865309574234 -1.5154303147490933 1.0233057430600054
Ni 4.405565078489448 1.7038902034097396 2.548549643663855 -0.06551967896936457 -1.6169513515137315 0.13118951036334825
Ni 4.22508469174854 0.1502558880622229 10.452460065377714 0.3495185919586819 -1.2480754380743602 -0.8175804662716113
P 0.7932704928010174 4.18104317243287 6.797050460673709 -0.28456558412606475 1.5053186802363883 0.7527909806000518
P 3.298865149319314 6.998259185946762 0.8734782788815436 -1.0197560780355341 -2.139818860812631 -0.24256558554519514
P 8.489391229534474 1.0018369406592773 10.778454343190353 1.184076052404264 3.6247018989024866 2.282200640347373
P 4.447323102115994 4.216877209292135 2.7136838163431736 0.15282251525209165 -0.5278456792397812 -0.24888818532911328
P 2.834697857560147 3.398056832962917 10.490703003017229 0.07550790053032802 -0.767269376721885 0.34376986240036284
P 2.9350874405816514 5.620684259948584 6.254228908589732 -0.1659127727771465 1.4190504558657626 -0.7844371467504232
P 6.76932938452306 5.34985605606499 13.365931973200462 -0.3323711336451179 -0.8768148264528964 -0.5767948554449743
P 0.6651766790888668 2.923716755080475 0.35472608156339197 0.44200940020025165 2.9225220555910827 -2.3254283406877563
Ni 9.006762099132484 1.9903098163838375 8.032267211773814 -0.36747980442279293 0.6232893994620878 0.09874398824013317
Ni 7.095354545679037 8.950666717326676 10.598117142859461 -1.6887265244745044 -1.5942911909120543 -1.4339883081225175
Ni 2.462207302566027 3.1270040229459655 2.6091596087501303 -0.25638629347837133 0.38233332449585766 -0.517150147199148
Ni 0.2777591748154235 6.398289410806869 1.945460650846972 0.9257259503313023 -1.3016857672006485 3.0409583800538207
Ni 7.9398080969775755 0.5756018813884818 3.147543317982536 1.0070265462840078 0.32723149842570737 0.5651207615411559
Ni 5.798946661122597 6.439925772777846 2.607283211677714 -2.1694243423838895 -1.1197573357215362 -1.255592829497328
Ni 3.2228546903558892 1.4925545490989707 8.38784773250285 -3.20957595335664 -1.3518055666751752 -1.435132963249922
Ni 7.009882553347966 0.5665586769442122 0.8995896777431358 -1.4002873163256464 0.9037764426434047 -1.4627075304340809
Ni 1.6332983674135424 5.207399615983574 11.130090218702314 0.1527304697589176 0.2384970719027763 -0.2681148947692092
Ni 1.9099195378199592 7.571238790728306 6.320797487222179 0.21515711162525528 -1.470483574835074 1.6093470568039123
Ni 4.857079558069528 5.781914029343055 4.849919301709897 -0.22029134752802704 0.9411019185667406 -4.8164123279235564
Ni 8.292187044447392 4.722634070077831 9.823345772717024 -0.25804748323087817 -0.6638030433054181 -0.6151729410025405
Ni 2.325038465207381 3.6446088572662205 12.871721739387073 -1.9481755160385996 1.0842653134625133 -2.436193521758482
Ni 1.5266572470136126 5.626757984138102 0.22978611230712342 0.7536841818382827 0.04389464450042117 -0.9995688044543818
Ni 3.73021186984175 6.167703139149663 9.65540402337075 2.269184687703679 -0.17197543403145865 2.3564322452684383
Ni 5.998864836987738 3.037601423281154 1.5520480345306857 -0.12476278090139804 0.3955719346733187 0.23483273567731172
Ni 4.918041406098061 1.8510727308805333 6.7758336038015115 -0.5694055049594388 1.0445047457351235 0.5941886254413896
Ni 7.511446766311004 3.2563771557593597 13.505589259344921 0.4022794286004814 0.5876353977039042 -1.284149558089098
Ni 6.685495145247714 3.584367620582206 5.754334267884643 0.4871903676122642 -0.008278695069024452 1.1103208728989846
Ni 6.340911902323151 6.86943820987787 6.531597830248448 1.0202350745544817 -0.4907672863302451 -0.21260040664167257
Ni 0.9058346641093379 3.5516032008788136 9.553359841833519 0.7917377941768945 -0.6121398106031715 -1.6976636790631345
Ni 4.947408658034435 4.983345639371489 6.6851573001887905 1.2028168233468768 -1.8108482682086295 4.377954392519989
Ni 0.9952017011363681 9.084962467896135 5.021367714313203 0.3948463693612039 2.5264428422640424 -1.6162494403507004
Ni 5.9583047127390945 0.5332364853429845 8.625686910549696 0.21235640895166655 0.30456208185264966 0.014905456356922716
P 1.7985991229751004 8.778197282675487 8.362357743943546 0.4048317627086899 1.1604686973979692 -1.4060794975273914
P 3.6426435535993504 1.0318312180512714 4.836893081834104 0.6472482242705304 0.38609407708987054 -3.619982124829314
P 7.918582817375379 8.29819525851468 12.443586886571635 -0.6580329735908603 0.715009133865588 0.438476961566961
P 7.030415297372313 5.4911613897129525 3.938846635398906 0.7444778327486663 -0.7302776299888842 1.168484111503278
P 1.1751860826661131 4.7462738656136105 3.352974638562694 -1.3719786991889404 0.7832516110827542 -0.9458720862618741
P 7.399592911899424 5.12673793834189 7.665098886281356 -0.25031489047331085 1.270209293858922 -1.5286177599736448
P 7.044256650340413 1.8128148194987943 7.1067720241246635 1.0584612079152156 0.4846470323651201 -0.12780876681657344
P 0.5982421796308258 8.453978329175253 2.6519227448234464 -0.3349574063150554 0.7627540053500348 0.9546012386047561
