# total energy = -381168.1826041424 ev
CRYSTAL
PRIMVEC
9.19300987785176 0.00000000000000 0.00000000000000
0.00000000000000 9.19300987785176 0.00000000000000
0.00000000000000 0.00000000000000 13.45489919991222
PRIMCOORD
 96 1
Ni 1.4451411516490742 4.153935054082998 0.21393420990131212 0.10340771226438965 -0.015480097913470112 2.587559249959389
Ni 4.276808824012652 0.537513448528569 11.242133609286787 0.07735960902708612 -0.9837511206958347 0.056863031735631106
Ni 2.6073306524927613 3.0905520233278883 5.249805262419614 2.024441892001507 0.10028176504089827 -0.44124166879629173
Ni 6.58343612364001 2.0706703152801786 2.783939403717702 -0.3999924323385176 1.1123517872860844 0.8398781013275469
Ni 5.6565049383933435 5.061533339571918 8.422712864672746 -0.3516734335181556 -1.2727850250058983 1.7293934060662473
Ni 8.595795177311347 8.595464228956008 2.6116633180447475 1.1856289987136805 -1.6698798240816466 -1.4255265505084094
Ni 1.4158981872508825 6.991513831793334 3.284220242969592 -0.06201577958116416 -1.841331010178519 -0.6327844834367166
Ni 3.3177112972289606 7.585694831765893 11.178343313795102 -1.5645412133431313 1.1695791443396697 -0.5471173829851996
Ni 7.0667494245738425 0.6748303562658297 1.1081079430762804 -0.5051916892856912 -0.911638876110617 -2.209736154629059
Ni 9.090756021751154 8.028457766160768 9.740943595758011 -0.17764625916399082 1.9239076446301702 0.19414425681901404
Ni 6.262186393713948 6.6254481787483845 6.9845997690697 0.7800148493130115 0.8738557438245725 -0.43477791544881894
Ni 0.6444235568180277 5.974196973499505 10.26534781221119 0.19657986284370016 -0.7478428925661573 1.7520111434657633
Ni 5.844125076841218 7.66089365250692 0.9260679616198237 -0.0804063662732099 0.10771945226586609 0.3162114931661199
Ni 8.868441464051857 4.7006893161334355 12.434224294035397 0.8217788206236751 2.60796840974336 -0.050440673149055065
Ni 4.765840177085961 0.5549544268549597 1.3308628459483767 -0.2853032336230377 1.008940732587585 0.4222378740002793
Ni 1.5435707083329586 9.188100803270315 3.058123681009554 1.3025141766392148 1.653169196195185 -0.26914616424720095
Ni 8.18270727877858 7.748172088217839 0.46820366991061074 -0.4289944759978225 0.05560473384849779 -0.8397091798498506
Ni 7.100193594482872 2.854953566365659 5.250209754853918 1.1839359272819738 1.6075781378289475 0.4317360432987016
Ni 4.135429525213599 0.9236033156735317 6.430486502617895 0.09605975653975068 1.0573224663250824 0.39089201269914614
Ni 8.046099152102338 0.874212950843062 7.028113042689933 -0.6644517326330105 1.3841464448997258 -1.266412031600019
Ni 3.996017530526842 0.8862236182389241 8.8686087768315 -0.17990882994592242 0.15654238730584008 -0.6798878646824227
Ni 3.1283444869056827 8.17458985106289 7.500769806581833 0.31862010260761253 1.1482371883287839 0.1395725922207209
Ni 2.3484738805580623 0.298169759345081 5.167151829974565 -1.6111781964753802 0.048504118247974536 1.9585535168388144
Ni 8.217024784625309 6.571558754887271 3.6815025996319384 2.1746002301578744 -0.41757543552760346 -0.7220213035173629
P 4.026575095336521 6.267895252843554 7.387533068899469 0.16028488506740785 0.7361209761435388 1.1129837644431284
Ni 4.379825692621936 5.823128242296903 1.6049276141119115 0.6884354971421176 -1.7409289175096727 -1.6193663887131273
P 7.692039569948313 4.7109671011687 6.59942644500883 -1.6361608345626466 -0.5574005100787627 -0.14132737012829852
Ni 2.182181525009843 6.651133448326676 6.006858818268552 1.251971944915289 0.14438081224264165 -1.9178346989632131
P 5.035728560865309 2.546022469666122 4.7172468462112676 -1.6089068839427 0.5951648733117298 -0.7600975415637942
P 0.7547203699437937 6.782143031991759 12.36261718225079 -1.0535874247626822 1.6265145697221342 1.616198789618423
P 2.1702489981978808 8.699418784572087 9.60631380480591 0.12823042773502433 -0.8181165412807394 -0.9785562067584567
Ni 6.559561877006216 9.003569516138942 3.260149265924567 -2.164965535281588 -0.6669068790417224 -0.7842795381266363
Ni 8.021333183511098 3.973494656344016 3.132314028567783 0.9218790657813866 0.18723081752863238 0.6963709499391104
Ni 4.68564955198523 5.37617329540106 10.89866989030955 0.9723045694217899 -1.7036198966465692 0.4070992185866279
Ni 9.017267100846048 1.488743597465051 1.5759457311940435 1.7153808938372395 1.3273890855040236 -0.23244880882616742
Ni 5.237910426948122 3.0823426655134947 0.9128667994457267 0.23360040593210735 0.5788321975899774 0.03151683966135862
Ni 7.615149235391106 4.833546694782496 10.387680113859467 -0.915847514875326 0.8082429909207693 -0.7445199988405112
Ni 2.675211837376837 4.6067275622466335 7.357919626203494 -0.982084017406057 -0.16019078269170478 0.21065356732794688
Ni 2.594469631683874 5.739048974020932 12.189291254850621 0.8884629522147861 -1.412121075735781 -0.530560507067783
Ni 2.0775834587028252 2.11996323420602 7.23547976633973 0.970007545857497 -0.293161810435508 0.43225463480633297
Ni 7.030556544713522 3.4490242502197708 12.216268142315723 -1.441605458348143 -3.234877922456538 -3.160255509854957
Ni 5.353898632484739 4.208412830575826 3.012753419395472 0.30103555675662996 -0.45445379661119156 1.9931957895030321
Ni 8.37283710892111 0.8763080377925584 10.858224324083118 0.22418682592769132 -0.6552147874157748 1.2225333279391977
Ni 0.49554919707152256 3.847568807137343 6.60560230903986 -0.27812651336894034 -0.1453989690945109 0.5317406434188132
Ni 8.407025912629654 0.7632045987533161 4.325359867041941 -0.09429263733699889 2.6308728251453593 0.5310567299779112
Ni 7.6109756089098815 3.5343997328874868 0.8414132109259582 1.6205318697761382 -1.402570198822552 2.2042684466462683
Ni 4.632909254357934 7.830265666361771 9.333623391618021 0.07930310590670214 0.24500993332062965 -0.49031888593891687
Ni 3.01057283745418 6.085211760696161 9.579821388960983 -0.5241090950154844 -0.42993267154137565 -2.50205695722051
Ni 1.1730556385106667 6.808986620813739 8.076182357602695 1.7164784977767924 0.09058999167443109 1.7541209907199147
Ni 2.1676657624242583 6.363052098013528 0.8264984717119922 -0.018275658380736266 0.36453846240628185 1.3613500158305005
Ni 4.0486658980554315 0.4842859213781355 3.7994884462134255 1.0911473852943272 0.4586117846436231 -0.8198821178215944
Ni 8.177154700816772 5.979354252036879 8.422901321375091 0.15474364353420447 -1.5423273962502533 -0.14968705494690349
Ni 2.1049694351071677 1.4465384891493964 10.366650184479617 0.6181448791466709 1.406464648780952 0.5519052912921463
Ni 3.6493675143284747 2.6562742370435224 2.5804208739997128 -1.3578733701358097 -0.28116504308494805 0.3080610961448436
Ni 6.672691056473096 7.10050615681847 9.678888940529886 0.12169211239587428 0.5099875680124378 0.41779577906852566
Ni 4.743289723873523 7.76128132029323 5.36425271950193 -0.320338627960616 -0.16008768145493718 -0.04450142484648465
P 5.582280576698594 7.149311846221173 3.3690128888115156 -1.0448143065557427 -1.3689337417150294 -0.33066109293254664
Ni 3.3572504326821586 8.45706346535501 13.203642448160213 0.3310501008408492 0.5896097478214556 1.4303692233126915
P 6.473873832002901 3.17484273083088 9.851784635068114 -0.7397380040708356 0.2995674568515357 -0.6482126450663288
Ni 1.3016750396094083 2.3085670247100434 3.447952345268866 -0.855073835231379 0.8010948099117623 0.07441595301772991
P 1.901289108415457 4.5662047747372885 2.5162003456460864 0.19733962382786016 0.2839189516810014 0.16285213157395179
P 2.6413447890137634 1.0758671381593052 1.273385390334792 -0.4298264849808146 -0.3942359894707146 -0.04979095538019812
P 0.011223745750943731 2.594809773049084 12.584609065303633 0.48576700490217634 -2.302659679532673 4.479411665926227
Ni 0.3745636713692782 8.14656036396761 5.055153390721762 1.869044674043704 0.40692746889545406 -0.36914793615383523
Ni 1.175289539909208 0.1759569668251194 12.111346482061261 0.10245331877092033 -0.41267825533630215 -0.3211999475196468
Ni 3.9018259513932767 3.185570973349802 8.740060161908762 -0.8912289449956974 0.6884725210276401 -0.5615710965166845
Ni 5.374610483723068 7.140008520232185 12.090868133273645 0.8993047800252962 1.3646932212711207 0.43451412026447106
Ni 6.6268730952783175 5.515851887374064 4.756872395957248 -0.05027509410546826 -0.6104269416771229 0.08664591942501852
Ni 9.136950896350623 3.017458401847215 10.701649899269047 0.7498707216294633 1.0515513681692599 -3.9096557196059054
Ni 9.135452435741726 6.349786584770336 6.342545250895311 -1.9633864194510833 -0.7263237875474589 -2.302152915099583
Ni 4.554934144636005 2.804171379840789 10.794852310540541 0.16324833857110593 0.41426411176618333 1.794827467300341
Ni 6.082251611517846 0.7626383093452909 5.281465069112771 0.17165456035693016 -0.06465964496191444 0.37929170945605645
Ni 2.281401680542594 4.099144715254573 10.56173228903941 0.5134904389593737 -1.611037814242774 0.1398592702232043
Ni 0.5170075207113398 1.585159884987287 8.76251684642052 -0.031662878320919664 -0.6130476671294216 1.8212982598973602
Ni 5.735380963082587 2.8308127224456174 7.459543753817392 0.8061292870118762 -0.9934462364964116 -0.5509946065524188
Ni 0.9589688246455037 9.18070043032453 7.365642673795736 1.1563461905891634 -1.6890119169254072 -1.2041998197373325
Ni 4.698574923863211 5.053654930112864 5.870896960186209 -0.5748583005438938 -1.7844294118954687 -0.5628221953149662
Ni 8.142055789131046 2.9306304236199536 8.257245122109913 -2.1671987954874803 2.3543709918640356 0.3882260358312088
Ni 6.112441455932704 8.98742659080627 7.49986889161452 -0.9694344469628466 -0.5080535842145186 0.6160581718209712
Ni 6.667579742985074 5.269580345952135 13.255766814126181 -1.9854112604616065 2.9416040119231983 0.021064791090099205
Ni 5.6401413808237795 1.6240738957692875 12.690445430040212 0.513358798477516 -1.339782316962054 -0.10133488889576096
Ni 2.5551695144873103 2.6091876404866103 12.582456981692937 1.341527838898251 -1.7763422640119604 -0.44321601891384316
Ni 3.5760440676010385 7.813874529762595 2.1617849940100733 -0.33694872571347134 1.1446872661939962 1.0874573380372496
Ni 1.179637833577974 8.546015028862366 0.843650789528448 0.03910339375936491 -0.06188182510646117 0.17076881531786722
Ni 7.759479490358603 6.804445273937691 11.708533610660798 0.7421777238605799 1.028339705939487 0.2559391786386237
Ni 9.120467829652744 5.856296621909815 1.3188062135031617 0.04742065537580865 -1.0734527962280416 0.8094845766373543
Ni 7.38062636058373 7.973566304223766 5.2922962733422425 -1.3153033579840832 -0.1351315257302318 1.2051881517925307
Ni 1.1803916603873585 4.862835624230041 4.64628600302056 -0.27935652912129955 0.5695016642176708 -1.560321775945145
P 8.28298463044644 8.045363711312692 7.693417602127908 -1.080761671184629 -0.5960773578236702 -0.4938965759878462
Ni 6.846273468848654 5.697772359702202 2.0410274549526184 -0.5623858791084959 0.7640788948090455 0.07545005070919909
P 0.893659843923205 4.310629907326373 8.978979134036232 -0.09243424397202145 -0.5940883524180993 -1.6881760512876733
Ni 6.435741227059896 1.0442799562441258 9.65826258428335 -1.0962942196025895 0.28015614220445945 -1.8611123065705044
P 0.3987762207663096 1.8543771790460855 5.7314105021195 1.412297196302329 -0.2805436074508652 -0.14417178155562912
P 4.243916234695855 4.290046758226231 12.944944715296273 -0.25971664340318495 0.4690080402762825 -1.0265265639901482
P 6.503273077568892 8.84504525393133 11.222219711305222 -0.013546371225866993 -0.8403426996687914 1.0181008018202984
Ni 3.5128605107608086 5.791375586204053 3.8669513491483922 -0.21721425126460012 0.11783854297773899 -0.12972295312015078
