# total energy = -340892.1837893519 ev
CRYSTAL
PRIMVEC
9.03123296626684 0.00000000000000 0.00000000000000

0.00000000000000 9.03123296626684 0.00000000000000

0.00000000000000 0.00000000000000 13.21812233715147

PRIMCOORD
 96 1
Ni 6.489031215261638 2.1590968707917773 11.518734391700935 0.5414205897107386 0.6125313896146355 -0.4251473343375904
Ni 4.500588523038822 0.22935899924709136 5.935637898215579 0.4516273829059899 -0.8072919398614098 0.9408903167765666
Ni 2.8045049051510174 1.563143868282856 4.788621636771879 -1.0425661339515142 -0.3175196704545822 -0.4602184670091106
Ni 3.4090827351648794 4.176240821455118 5.136390937990465 0.3235265387702944 0.24348861158009677 -1.2237101218561184
Ni 4.938522041931045 4.63742073406223 2.52302214470522 0.5763778225122138 -0.33018543884770873 -0.4889024652073644
Ni 7.140806268878452 6.084621633226313 2.655005486736583 0.20345679246919154 -0.3033680615445485 0.3616367153784546
Ni 5.275757312990718 4.519987611500196 11.372885397660845 0.011765110955728126 0.19323974272687366 0.5184709228931006
Ni 5.641079718647631 7.811050193958726 12.500563079904198 -0.03750648158589025 1.6436394023278789 1.2342020225263777
Ni 2.0603674317509286 6.778319670380232 0.048558230414465005 -1.161963793886257 -0.22874487761201895 -0.17966997446223895
Ni 2.7076449313389883 1.7106419654668243 0.44661885565819437 -0.13550896367430856 -0.32135678481248525 -0.6439261018758329
Ni 0.45260566000691177 8.965801706457903 4.739926131615974 0.24903268132677753 0.14723602230324967 -0.41047816236118984
Ni 8.673921287471332 2.7342870686579146 1.658094639440912 -0.7016118866230755 0.042438885890501106 -1.5130291615067686
Ni 6.785219532384184 0.517344247445305 4.610374900628674 0.1564760528442789 -0.012087527292153377 0.762956351168828
Ni 1.0047337013111475 7.306213301080533 2.103452734973777 -0.5364951273846631 0.5078844056265059 0.9526510568569205
Ni 7.661502006886149 3.6898457063414165 3.7435309677240016 -0.8788953631310089 0.40133711929187005 -0.07357031718798296
Ni 7.686933958984486 4.028950442629908 12.894014163830104 0.6739763842939941 -0.47743508799771317 -2.3987312631469657
Ni 7.971291360890831 8.657240600139787 6.9302746810445015 -0.9793159677426166 0.018003121445639963 0.13728945261349906
Ni 6.8904604904104385 1.1071840083436564 0.44162639006161725 0.43767837692506556 -1.1595839808001707 0.6061668808491882
Ni 1.839833753381144 6.508177429199307 9.122077258984334 0.31044682276820085 0.3247071893419569 -0.3921783356107375
Ni 0.13016987044707878 5.139728881703372 1.4695775851420854 0.423748911328167 -0.5658954349236512 -0.3351193858142164
Ni 6.500997598972681 1.6212779150360526 6.846868535016881 -0.9612786506249313 -0.4682842747363807 1.6483100683306708
Ni 3.1538871845815217 4.645946218004286 0.35159583463622274 1.1400970757201527 -0.7830240684529804 0.46008682652725275
Ni 6.051422820757034 5.443440215906144 4.763467846649617 -0.5744667215324301 -0.39250897947727886 0.86836823834744
Ni 5.627785743687136 2.7469037011441992 9.24004954615584 0.1322179516278626 -0.3220268142963164 0.09317343613089114
P 0.32298217915569566 5.592130435844722 12.25848629836134 0.45250721440778197 0.6314922469878543 0.4884360670939072
P 4.173088921141795 6.17222459322414 12.467003018115342 -1.3380920737438247 0.3847984982068986 -0.8855828024535135
P 2.5536624088685826 8.740445349671743 1.487474779557311 0.24588873638115719 -0.9451812308424368 -1.3509311344900217
P 6.140461746800185 7.733047434628703 5.872706460498377 0.44495562731276916 -0.9178496329070193 0.5261266396661455
P 4.618419019852392 1.283157583143413 12.622090963503657 0.9300906550579014 0.06871478886789456 -1.7593768398022152
P 3.803594085843748 5.991645089599755 8.456293859877558 1.2985968438626796 0.8678290780145184 -0.5134683274721867
P 4.641394476577595 0.727646441961323 3.7393007381917354 0.25577771336009497 1.108386374880433 -0.49692456418089254
P 0.08956905941963278 5.900276105445322 3.5650729007288433 1.0272927527322113 -0.5922111900000446 0.5710790360071196
Ni 1.2734399764467468 1.1637646830226644 2.3046189341976504 0.6727818497652607 0.15366095199298696 1.954900750577575
Ni 1.992904121319613 6.462804514660227 4.826901420921033 -1.3481129483149363 -1.4178219827753 0.1748884939131956
Ni 5.876560087614982 5.5586787488517375 9.205404833284947 0.16423101419934943 -0.012398630774668969 0.41580728788358706
Ni 8.803031794288746 2.3784384264069525 10.001333718509729 -0.1277876837706509 0.22187874661980497 2.5611679044500533
Ni 2.340425966754287 5.141354503641476 7.080419832617683 -0.9260591653010052 -0.437607157367498 -0.03958316160926086
Ni 0.4711079470324319 9.028189463949138 9.164256729538337 0.3277503470436549 -0.35115689889305324 -0.10182699804083108
Ni 1.2724104158859475 1.034220677021756 11.447462610317963 0.8432472749100962 1.2448906125884753 -0.2674242964600878
Ni 3.998199094300774 6.966512503414736 1.5053990676715057 0.6979305811167464 0.6782899240676835 0.2942550434996868
Ni 5.382452299528276 7.806751327055739 8.213979556907077 0.23499548650742108 -0.45482737790052635 -0.8892124287863009
Ni 5.1834671430713595 2.495609643212292 5.0450002788768575 -0.4507586071477914 0.7341311994070195 -1.0052807672374946
Ni 0.9098425362908219 7.391359765705223 6.920599521142886 -0.35150554048172367 -0.8085738918976269 0.24820067234378548
Ni 4.908375786212207 4.433305837267295 7.154837192450887 0.5145268506436881 -0.27504890288488115 -0.3959411450872794
Ni 8.098794308236121 7.030101414893571 8.98069601590413 -0.1870223010622521 0.6079645961795593 0.6380362187539592
Ni 4.957442475043979 0.5469712072672502 10.495612196899936 -1.5087184499465565 0.05749089512761711 0.9329263247344837
Ni 8.080099655947926 6.9146280698902505 5.193096243684727 0.2158986177769701 0.7989636225013723 -0.9726542394517248
Ni 7.181184911574357 5.853422068695969 7.154176106196058 -0.7160378322404184 -0.5431440001597485 -0.9145894740985087
Ni 2.4557367495637967 5.281510208405008 2.5295255355809347 -1.2165220887481114 -0.2436091963183611 0.12615143371880855
Ni 2.2805217983351556 5.248040458946045 11.276816559858693 0.8837048687045104 0.8799862822023427 -0.6696340481648984
Ni 1.1846719873932798 3.380553070151154 3.7276423195256334 0.12182555264994505 -0.034449439927121316 0.1399356319870945
Ni 3.6947767595536654 2.653882001352694 2.68397948841339 -0.5812860584471086 -0.33588737432849247 0.35629499145056703
Ni 1.0609802203695453 3.0863696867522696 8.111935655359094 0.5792204341673315 1.3537354367080363 -0.31380236950399504
Ni 3.484782530082588 2.399246387214683 6.938430787557289 0.503295757814559 0.031090293646901294 0.7885485978156356
Ni 4.104957299469259 6.575414958805887 6.124775398220781 0.7308558710898575 0.9894026625546574 0.10262943933746842
Ni 0.760813645115139 7.473986516325853 10.946482053926271 -0.4686002633149026 -0.5447640522616747 1.7266117295560524
P 0.20574413122623414 5.3251400949771215 7.727697332205742 0.09125333629004283 0.9565671040818751 -0.013312400838189976
P 8.472931197290754 1.5388227578422227 8.083912642516077 -0.8150674700417705 -1.2739548769442834 -1.131190260148826
P 1.8973356138250776 3.3249838935669667 10.277208986392367 -0.5827955531130995 -0.6645458350087136 -0.2514623738141928
P 3.9241520150201374 5.953190099530607 3.831841073264903 0.855951352740326 1.0994911292733323 1.1373722205898218
P 7.170672556374618 4.090001577638702 10.339585003280716 -0.41118855816465316 -0.44631188423034746 0.38484246407095657
P 6.430039201374442 7.833700526296307 10.571775294070004 0.5562926217265646 0.2571892489956409 -2.707727469511569
P 2.4371504720714743 8.479722684498832 5.771415763781715 -0.7984110924320121 0.05049466631544207 1.0116463044442061
P 6.8838586590951385 4.158982135212248 1.5423828698866702 -0.32424259100071257 -0.7203593424339078 2.568932635997137
Ni 5.256800754945827 2.9373543424260706 0.5694273680955588 -0.3585220810088729 1.648582605265767 -0.16975040135568184
Ni 1.1027316104798492 0.9324296499974779 6.888835771595634 2.1854875664943396 -0.4041763885128781 0.05273641116176724
Ni 6.8663200046295945 0.501600098974768 9.19872894585913 1.2333080499571987 0.03811711858669564 -0.039042201504126316
Ni 2.6897630900198446 1.591384533840918 9.021686073073422 0.35253243908434123 -0.39939002286782826 1.5437967817069282
Ni 6.1666523224696395 2.008266248634696 2.6881166962458645 1.0731355220979388 0.5422202027938984 0.20960198613498096
Ni 4.2495473396306185 7.241784484933678 10.394269119031936 -0.7993225485026879 -0.9248283782176976 0.11153136981278855
Ni 8.149351150511155 7.057321551123823 0.2953718936602984 0.84644212769831 0.689522045338077 -0.06716389944100691
Ni 7.682481561120679 3.496216071047253 8.219358559275602 -0.949834413343732 1.9104664315235997 -1.1509196202569534
Ni 3.174640957991316 8.647784899199815 12.356697344628595 0.6722041228849198 -0.1363844243007264 -0.15438574597415347
Ni 0.16315735206440443 4.993811250292561 9.87317058803291 -0.1775038200488556 -0.947031396677298 0.9547781305022526
Ni 8.557273882179382 2.235609476678538 5.856817812300008 -0.11997358704287081 0.8259812887407968 -1.2433389518306395
Ni 3.4894516775381423 3.059185675453975 11.724553482160983 0.49855001559945755 -0.9616460612666793 -0.3378082455002892
Ni 1.212009529652395 3.5599675447198975 12.583572754803582 -1.311511752152135 -0.9675819671351401 0.3418093962398823
Ni 2.8617719535372252 8.422275011452834 8.021377675927114 1.0471465542333451 -0.22658309407400978 -0.27783572160139897
Ni 5.450665202297717 7.6572753898470785 3.622241508675465 -0.27510469582348107 0.09885454567606845 -0.1714010495852274
Ni 2.8435378941314924 8.25591969978686 3.7205844109443653 1.3376958667466705 0.704502063686677 -2.1155964979301563
Ni 3.7521612139687357 3.967230996379893 9.251019784868145 -1.368039254925218 0.4224487044595047 0.3334599958339225
Ni 7.4026217132430885 6.133923134115811 11.362985360057792 0.044351015311549426 -0.987934562649563 -0.2106322271717082
Ni 0.46030568925373094 0.10981527753541898 0.32439285774865034 0.30984441329751156 -0.44823249829182804 0.34844361372694826
Ni 4.729656716583652 0.6081370389350106 1.4287600245228922 -0.32691936650192727 -2.0306372221789415 0.6808828816058402
Ni 5.948132609056506 5.756769813242698 0.375734514170469 0.3389431304356808 -0.71814433706046 0.4153120934147234
Ni 8.020854767537024 9.00715572231667 11.590390000485963 -0.674445867731245 -0.4382316783253743 -0.5337630731654808
Ni -0.05291850970177947 4.639543073814755 5.505241846376363 0.3775294753493111 0.8352578289467163 1.042228033885805
Ni 8.055923045235122 8.79567133940233 2.7224570565650126 -0.04013440612704056 -0.5561766649739905 -1.0746990099303169
P 8.617259331695418 1.7213530077923316 3.5358740213505984 -1.1909118443791749 -0.9544096914192403 1.8087330216378397
P 1.857914281826056 3.3165667844207833 1.5886462639985117 -0.3099881379642274 0.40768928676214305 0.34027650453512365
P 4.812554404193966 0.915360619647386 8.287948064460705 -0.6767570323629248 0.6490181716867597 -0.956081165584392
P 8.591908660693985 1.906764221066081 12.538631533201398 -0.2793480444808673 0.3142811089126265 0.07305275412161613
P 6.542920582509786 7.770346426875199 1.4788571770387624 -1.795297207847908 1.4505318143034953 -0.32235900082475455
P 1.658992344000065 3.163532541414272 6.001424108680749 -0.015744921539082562 -0.26737775949286857 -0.8923010950139535
P 6.676239643900291 3.638042553913836 6.092867148945697 1.0582524343385193 1.4637827657761306 -0.7553566844446992
P 2.448620137968097 8.691369629606982 10.231513656835562 0.17503401835212434 -0.4344267027569873 -0.29259436796781224
