# total energy = -340889.88311228907 ev
CRYSTAL
PRIMVEC
9.07867481282706 0.00000000000000 0.00000000000000
0.00000000000000 9.07867481282706 0.00000000000000
0.00000000000000 0.00000000000000 13.28755827508691
PRIMCOORD
 96 1
Ni 6.7402986776429525 1.9753017449232293 11.30101544116804 -0.9787680656589467 0.4539876556080504 0.2556069921101856
Ni 4.391282363888511 0.3662655161704889 6.110987638264914 0.6937921334683406 0.3191106690907859 -0.8712926110830865
Ni 2.560249839966564 1.5148767532247813 4.612151087649476 0.34259049738028097 -0.8083512343638595 1.0194305763753153
Ni 3.362505094652885 4.02533006199809 5.139002927011519 0.5170724998836772 1.6426315298886551 -1.1730606751303667
Ni 5.260629025232656 4.299142893500114 3.0028025524841473 0.6965486131675552 1.3824808842718448 -0.2651275300061111
Ni 7.5340381353813655 6.3731479906809705 2.588881256634599 -0.16508102090447052 -1.6245114232491762 -0.2608705545019701
Ni 5.260147855469075 4.501769836016484 11.728821662233079 -0.4351692373499666 0.8799960523943554 0.15653775932014977
Ni 5.460713938809351 7.976169597388947 12.346440276356095 0.9063750566085164 0.8308028784991563 -0.08035314443777129
Ni 1.5030653973300818 6.440384656135347 0.49769204382154714 1.2545242790234976 0.4832300974129356 -0.18697319299187154
Ni 2.900182659924466 1.685519524475181 0.6427474780591717 0.7473762373423838 -0.7195587009094834 -0.9879808425064663
Ni 0.488517135084281 0.12589761470726732 4.604085592970882 0.3234990279664687 -0.21943054218962854 0.5176772233472117
Ni 8.457303046270953 2.5377074904765267 1.3713419970135687 -0.15118909341372672 -3.1521843028110483 0.4985898676984574
Ni 6.717329630438041 0.8662136106759967 4.828021093074069 0.6384267693241586 -0.7362032514446998 -1.203760932427701
Ni 0.8154429376783584 7.35101205172484 2.6103005740537877 0.10628040582649438 -0.08090078941112519 0.6771259856665693
Ni 7.8609521356982235 4.025439006095503 4.161383990186832 -1.0164753504017334 -0.5681988862458472 -1.6065041880384785
Ni 7.679814416396884 3.780968451497144 12.624655357261148 0.6220475566351867 0.9235459119608482 0.08043156308419051
Ni 7.97569750630015 9.043022828670974 6.810989778852851 1.5322682122420388 -0.028294218959002887 0.7596247156924337
Ni 7.074148785495207 0.7596081798858979 0.22479797420771858 -0.4244593071316303 0.23068554627815754 -0.016025686004294982
Ni 1.6887061393245582 6.515011362864346 9.329540357666497 0.40236478922543606 0.5713790837460418 -0.5744024439533979
Ni 0.1972832345381832 4.553627226385832 1.372126394514954 0.01872174477921937 2.877730353197689 0.7200484960617084
Ni 6.297767753944852 1.8608378132396244 6.95420314997669 -0.003203594538962225 0.22966893208818512 0.5745263711257718
Ni 3.547147182421061 4.294785129603531 0.5357462170484666 0.6380542164760882 0.6864151242779791 -0.052937471428979796
Ni 6.199500178076884 5.780428550022061 4.745518635969471 -0.5871803124443564 0.02791420991176483 0.5850334413046827
Ni 5.282535867487775 2.8130183033180023 9.167564997232908 0.7111157123484526 0.544284798632411 0.1943607437051943
P -0.06336279492380913 5.735924886228197 12.597429319449763 -0.19270495326932616 -1.625204849771775 0.6070873357809288
P 4.1202294495209895 6.3062835508927595 12.885994997476681 -1.0247136791511253 -0.9550560667539876 -0.2515215091869023
P 2.380546551281183 8.276383215164442 1.420945152433914 0.6737413854650526 1.1158819119265297 -0.46010945223507216
P 6.481102512544053 8.005076097902954 5.770759761376515 -1.4882558112168305 -1.5168647332027747 -0.08032306253078425
P 4.618004109283076 1.2256210959142368 12.47829259385455 0.9704040099649675 -1.2205106410822142 0.38460823657296345
P 3.8388540819234342 6.429808000011346 8.480252120391338 -0.013793968460298824 -0.045612141412160155 -1.4399383550583653
P 4.415395324116275 0.7764336878641043 3.652550596669686 1.4534921824834002 0.4769722894286818 -0.2998181394097611
P 0.22794010355065128 5.566534972098065 3.7360762204225018 0.9396821554010785 -0.4112690336936014 -0.09230131793858298
Ni 1.3337390339234416 1.1341534474598964 2.3866446971339657 -0.21278424051770453 -0.05017610663375875 0.6524436524285409
Ni 1.8109323379489535 6.417933093393155 4.959102631083313 0.7725013145447857 -0.3434880694938859 -1.0693593428849582
Ni 5.8054584564030645 5.558799941181628 9.135860449150304 0.8257151795636037 0.7738925384653574 1.0921120632004417
Ni 9.039591089602414 1.9816568172724143 10.221985891264975 -0.15098880447746255 0.884979878762192 0.7075328800932008
Ni 2.3478542433820193 4.99611275671001 7.304595511153872 0.6022161237315564 1.5044092810482415 -0.03028142459236075
Ni 0.4766140845742577 9.02940481649415 8.99154492690762 0.7293726016761115 -0.9356180126340338 0.552796435647848
Ni 1.8836434442984136 1.338650596981883 11.596423716380073 -0.03404783361332846 0.08691614236726966 -0.4418003695132391
Ni 4.245651341669546 6.9106872459993856 1.847488529836422 0.12395262629527685 -1.5484844169905847 -2.11907828583117
Ni 5.895373651469247 7.903703615258669 7.937482640529544 -1.5837026167629307 0.030029456482554735 -0.2815859326724505
Ni 5.054007465811085 2.460883744449666 4.763709576635274 0.3923827383120597 1.3253250038861433 1.0856758206567947
Ni 0.9907648579127154 7.239217250427892 6.9506288757140124 -1.1474139210965402 0.4062479263299262 0.8199227412515427
Ni 5.034796989966978 5.177858747221914 6.990079349122796 -0.4765871381751211 -1.2520927867638694 -0.3729269435802932
Ni 8.03681514494974 7.329767952728993 9.123237459729864 0.4341048006411944 -1.2059108888911683 -0.5733560049667544
Ni 4.414196939044715 0.38698123629387493 10.273235918291237 0.11499078911629874 -1.1947947243733488 1.0213789583509378
Ni 8.252315648310601 7.239879993687164 4.791240657919422 0.3875027845119391 -0.05632335718207719 0.30921089347857067
Ni 7.2406335236942825 6.12544542785931 7.029636950894036 1.2234406702448155 0.17364510842439773 -0.4664279382539322
Ni 2.42882694378542 5.323308195945189 2.5872071490043282 -0.5593170103751852 -0.46243321527224235 0.870609983193765
Ni 2.3099870908556612 5.3509255246397895 11.745165092580224 -0.33686156531630373 -0.579677319199092 0.036261039214563355
Ni 1.1237220501324485 3.211208979368361 3.889932521996269 -0.32398959444964204 1.1387606162969162 -0.5583944985609157
Ni 3.759125159965517 2.673152239587227 2.7311250252914485 -1.0203471746523138 -0.46473049594685123 -0.36576924948958944
Ni 0.9791623115380607 3.3150962549279654 8.366617071715563 -0.47907082382892335 0.24820221500568226 0.3372168917731934
Ni 3.7882223126499994 2.90493988551157 7.321312075034664 0.5697086380221543 -0.28302240800866096 -0.3769319509746283
Ni 4.113229791262102 7.0133761364874285 5.866868428380718 0.08257843422386424 0.22611978128434604 -0.2644276757256091
Ni 0.45375216573180405 7.271873243627919 11.283355602977133 1.176440390235877 0.7977408058378649 -0.3574944110753069
P 0.10470980349508474 5.392042842739016 8.097637726668832 -0.24074832983079827 1.2843195080080592 0.4623807647677521
P 8.552465715362604 1.690240435363147 8.162507581606876 -1.3868273341659987 -0.11856230851764099 -1.6445135774027162
P 1.8827264981451741 3.337139277304853 10.598063639142604 0.34017031797456254 0.37929967987585644 -0.839796083136702
P 4.0780317691224015 6.053042996452525 3.873615419805997 0.12330316563673603 -0.8808915676254313 0.701770780798443
P 6.830095849936935 4.031512639526368 10.344403649927322 0.8694578718671929 -0.4475048760971842 0.012274189381662732
P 6.239083200137522 7.7562023860340865 10.19052102019668 -1.1081200085929237 -0.15322694977936194 0.6192237140331465
P 2.392539480671574 8.506209867335324 5.618883518773258 -0.7532339816747414 0.10040517799264 0.7210201159463583
P 6.965930982063371 4.075208301264406 1.6120467173112973 -0.597948606704454 0.8479127987065654 -0.10916004136713459
Ni 5.535613005781888 2.8076800425446873 0.288528455460302 -0.3222826390608643 0.3921048020603247 0.037238315526168124
Ni 1.4336407712526287 0.965961918401325 7.051108924626975 -0.3199629897887522 0.5704468017397596 -1.6045015557861528
Ni 6.78532890457432 0.6613360646805375 9.288893314921111 -0.08878122060046646 0.6769362382532664 -1.3677021833007734
Ni 2.5593782871872475 1.5275778192483664 9.001337185530234 0.28059708639661995 -0.00921071996499059 1.8027917164527403
Ni 6.145318646962691 1.9791511030318787 2.418880347691467 1.2036010098110692 -0.1524049680986988 1.0518367606201626
Ni 3.780178606790888 6.753244867885721 10.71795661834737 0.9491034487149784 1.8349191931149043 -0.3668527123617553
Ni 8.04238037259267 7.679623764226409 0.12438601535563976 0.790890872795567 -2.0040121633922454 -1.047486454071267
Ni 7.410086988547906 3.8167656661726244 7.9331775329467105 0.9162030984425318 -0.10839668083854881 1.0200877503433399
Ni 3.127104136164291 8.681991168513779 12.526712797950468 -0.006642702127498238 -1.636942707033994 0.565480973094052
Ni 0.1667008106589484 4.884145460592157 10.440273547784692 -0.3728449253894482 -1.192769980633836 -0.4313832879449732
Ni 8.718732565366851 2.3251484777458598 5.765790094799452 -0.20771325375270036 -0.3985711265109588 0.9356208408475113
Ni 3.9516566161214666 2.706098750380358 11.119108758112448 -0.7555829415228922 0.2332761898234692 0.22798743062070412
Ni 1.4162641877150002 3.352500395040311 12.862117174925835 -0.9953416537469115 0.6734364526301241 -0.3227552078219087
Ni 3.0806848719908877 8.395513585687306 7.873742172734698 -0.1137520316131912 -0.6606819811779332 0.8574988997331039
Ni 5.660971347206954 7.836784703421752 3.585302128938089 0.17280512902160564 1.033358499310317 0.48612001736622085
Ni 3.120649198392476 8.13442905623322 3.4639601932377087 -0.8869606566376467 0.3179397887111363 1.433883150003221
Ni 3.5031791604394864 4.658567628220444 9.552863955089206 -0.5836671570847753 -1.8610966228412207 0.4420955321561547
Ni 7.3047017316488505 6.110066152774283 11.296258215580936 -1.0985539621710434 -0.0344934057911793 0.345459848508276
Ni 0.7399755456643088 9.050331161872537 0.2451451001348518 0.2785522880524493 0.9704695730955802 -0.434554229473787
Ni 4.754919603708873 0.13514696857776676 1.5402407548378567 -0.3128083810218419 0.7964681097730284 -0.8299037637236546
Ni 6.112544630990466 5.919168858079552 0.3758834642372411 0.6566260659410046 -0.7009536842137863 0.5714045376673385
Ni 7.8215960805072005 8.840423122178958 11.202979371507078 0.4397275461446104 0.4727623651123923 0.8695568593389024
Ni 0.277959062276129 4.676933787309589 6.033561068232359 -0.2777321061439991 0.4587904763133324 -0.3263974325601863
Ni 8.201702036386735 8.88466350440407 2.5213404555749404 -1.0202098777435011 1.143449022911521 -0.08943402369311694
P 8.419063668078428 1.7652938398070213 3.6375753226125704 -0.06753388118591595 -0.07016514816117593 -0.8254416141872428
P 1.9501810517943798 3.3017506029946775 1.7422376373241781 -0.36979225460605347 -0.3536274719207329 0.13477439950112918
P 4.626438198157922 0.9209135341203883 8.212680877803692 0.5340528364917576 0.8665144729681528 -0.4222967522626727
P 8.970947229556433 1.7519300305241636 12.424770174529714 -1.8108950622861653 -0.661453569236635 0.9287907052995552
P 6.525860379231884 7.914062383187841 1.4552797926016035 -1.654092222230087 0.387834456819745 0.3471482919542925
P 1.90025741915414 3.0767447271343924 6.325249810385164 -1.1000454591149056 -0.8880518328192964 -1.133229659176358
P 6.622784311231739 3.9198449396764037 5.920696799045792 -0.5098808672312444 -0.2555925939324824 0.1265635815555627
P 2.134269340400698 8.55822159517601 10.39811218208524 0.589684566923449 -0.036118085878795864 -0.24031638449970225
