# total energy = -381169.19505442836 ev
CRYSTAL
PRIMVEC
9.26547319976867 0.00000000000000 0.00000000000000
0.00000000000000 9.26547319976867 0.00000000000000
0.00000000000000 0.00000000000000 13.56095659624282
PRIMCOORD
 96 1
Ni 4.486277304223417 4.636869041455354 6.916006836904739 0.5249002234582121 -1.2599585626651915 0.8825828392849251
Ni 4.1078012516515745 6.874795864846644 0.956019872033148 0.48224716467437595 0.7499869354923535 -0.6987826447043964
Ni 0.31870819062707345 5.955586791610566 6.128114536834665 0.24687732554667158 0.8655683070047996 -1.1903474872352726
Ni 8.661633121564899 1.3831591168227875 12.771872119236637 1.5580286090355941 -0.6394678089941632 -1.114684806294635
Ni 1.2462802800463522 3.6896782389114278 10.28484675288185 -0.11626322807081911 -0.340187287255427 -1.0314556258606493
Ni 6.004286119174158 0.8325898697237131 9.452733128484766 0.6275456036352806 0.5209132137860061 -1.090632907551754
Ni 5.988358770604558 5.4104341401914136 8.466308605880856 0.2668491406829082 0.13809780744740732 0.001279380933055861
Ni 8.001421822945465 6.533492891077148 8.689359123810199 0.09953151713843503 -0.10160999693401855 -0.47378155040552594
Ni 2.9938967883672163 5.74575161822155 9.09003154417339 0.3383929143591656 1.2150485895263785 1.0902253877006902
Ni 0.6091520550112365 3.722672589264158 1.3622654745747091 0.6179294207017552 0.909237465757976 -0.25511282608258645
Ni 3.929931961081127 0.8411622856030575 10.69870023553423 -0.7243602360631848 -0.10306678398520314 0.3126402308750938
Ni 3.6298325469911004 7.918236403830943 3.1241322808013576 0.6719601251949138 -0.12525283316393912 0.8324746097746244
Ni 6.637886978531294 1.7644333423254148 2.7136291932872947 -0.7759555916419734 -0.5681286951295441 0.7338589195822394
Ni 7.773528242132278 8.965818609371734 2.684987762281858 -1.3009684294186497 -0.7719464704825802 0.0006774856829988332
Ni 5.765514872729377 1.431691665867326 7.09248908612506 -0.42068081392580453 -1.4587140930039715 0.2799998191322533
Ni 8.886432034302317 8.809083863354664 0.5919071561411152 2.725875858285822 -2.198513803550678 0.39468259008983
Ni 8.238729124611888 4.177468345249491 10.016732679104281 -1.2521719767412371 0.7194445439291223 0.6514514637186007
Ni 0.5835107842541047 7.855036610582985 7.479233647052638 -0.2889696267310314 0.2300461129219457 3.4336403947738545
Ni 0.03057606182645614 1.3485989014856115 2.0282445303114067 1.0411893082086456 0.18044259096220536 -0.3455596073109339
Ni 0.7621463294648704 5.1095656918190855 8.414682315307878 -0.4720265153876322 2.095203278985785 0.8175881795810952
Ni 5.06330318372833 7.679326175286951 9.85755462778308 -2.444575318064274 -0.39965921736881493 1.0008031910821151
Ni 7.171726487074657 2.9649699807847325 12.60302461999965 0.14152714484393045 1.8615563360864587 2.28564231903907
Ni 3.985320960353416 9.589857500303141 8.29678287399972 -0.7159118481855155 -1.0566411239873417 0.42191211522974437
Ni 1.020990297225055 0.6957101063999496 9.297201967446867 0.4957313152037398 -0.4917417344283725 -1.3759983618712948
P 0.1825946819436276 7.4944892488093835 2.4791191380043287 2.3331208242360075 -0.575790582550176 -4.499865305794889
Ni 8.552485846317731 2.9439002945443202 3.540223375251038 0.9030925292025028 2.0610973384410114 1.5586055645849868
P 2.5753012364897514 8.229648960796759 9.584477039969014 0.5888949811426181 0.40806621048558755 -0.2779642767594633
Ni 2.77957712591032 8.830385186427094 6.260008548986059 0.501244274602169 -0.7880935125560878 -0.7883660494911842
P 7.9084057366800735 5.3357451600753345 12.103547045665255 -0.125960400753925 0.3821816294093418 0.23707319497205623
P 0.7049005293471199 8.340519614074145 5.625532102403892 -0.403724388577124 1.6554705906348521 -2.167153286961526
P 4.178218848585232 2.5659709048960413 9.081867735665728 1.6378505635602438 -1.5366465438153922 0.9053301602837698
Ni 2.22111925486002 2.6961137425973756 13.417535698257975 0.7719570120055416 -0.8010865823816461 1.3992192800724483
Ni 3.2131364171361874 1.8385108012049654 6.718965429021774 0.7804524510710623 0.8419077301630663 -0.22675664353739655
Ni 7.91310333163341 2.455693241908623 6.141811685985589 0.015981463029920866 0.5089347012678912 -0.3837983390771584
Ni 2.221082192966897 8.619438156244389 1.4177304507279005 -1.0697668627360222 0.20838456878811207 -1.3382296277629533
Ni 5.939381478842543 5.1751374462269135 10.726879319422958 1.3828146134621797 1.353526920241656 -3.00604202779261
Ni 1.1485295369345 3.8278264455273248 6.559000739019037 0.6093920726547053 -0.7319038527383976 -3.051496303470667
Ni 2.5396569607787276 1.5514942353873495 2.413470480168271 -0.5133315447840063 0.9119237543408875 -0.09636906025005339
Ni 2.489966227574096 5.239013619024364 13.328901254307048 0.28287559801815154 -1.4434939336201076 1.066753786941311
Ni 8.312806583491438 5.469816558447704 2.6381887832881468 0.658344334183692 -0.1959041769329142 -0.3008483804464883
Ni 6.9629753740594875 2.9749118336149714 8.264752132868185 -1.2543651277378138 0.0007595038738438532 1.4376912108954014
Ni 5.077572012580675 7.917837988479871 5.066156022951471 0.27062994788157907 1.4341531158351557 1.2988606390470276
Ni 1.385577405349062 4.4962376880002175 3.6541349568591643 0.22265573399514554 0.2622211549925935 -0.015952152453882203
Ni 3.2625955135088005 3.697887448238167 5.154316074670424 -0.10205839732534683 0.9218479554331349 -0.1393357936195665
Ni 6.360330460933318 4.171316070991077 3.385072098617647 -0.4139231834869968 -0.46262681934028715 -0.3788803329502507
Ni 5.3065125918745855 3.23756947017751 1.2717881279882413 0.2597685796870429 -0.5012260197697239 -1.7402820279542932
Ni 4.95873305228185 7.423969731669639 12.230545181735106 1.1325740278702299 -0.2645019806069703 0.26701471972649504
Ni 7.356906236063612 8.13393662180667 5.843986019038657 -0.8411243150298223 0.9703153069059031 1.9199689716973967
Ni -0.2315710471583138 8.001662725250764 11.838525786868798 1.7161576241022636 0.34891798226020554 2.1692363947427995
Ni 6.358106747345939 8.105917830605698 8.23918961863394 1.1093888480030183 0.36173313174700283 -2.0821847552389303
Ni 4.26533282837079 7.048467896020915 7.493987986704895 -0.1904884052339816 0.32966633311944515 -0.6349164421780549
Ni 9.344785732027455 2.8755952255186736 8.274936741098381 -0.3887222587413369 -2.182799221028899 0.9121559249563516
Ni 7.050172743104572 7.457066002228457 11.091777747449198 -0.5008524384803891 -2.279091662404746 -0.8737377301894694
Ni 4.619459217160836 0.5714054434128123 1.9166919382005576 0.7074794011474461 -0.20142382119956279 0.7191892333852065
Ni 6.269880910766692 5.894935003514813 6.076555884216635 0.4639105711487172 0.49811549916520026 -0.906222333080736
Ni 6.17225061880749 9.520551760163176 11.634025672994834 -0.0677285136952253 0.7100299354834417 1.3716907356348762
P 7.8015562988065295 4.702746556481446 4.761346968792842 0.8977582614737829 0.8086510249924652 1.7934028190386728
Ni 1.1878892674311017 5.859911514513599 11.372408549081724 -0.8434892157175731 -0.7203133196873207 -0.324047444270771
P 8.73969473395517 2.023968514392343 10.463837165719267 0.23835463278764113 -0.09761064596663835 0.20869670071189217
Ni 8.194301180230719 -0.15597590375537737 9.977351638019133 -0.7322239550819777 1.15886278636343 -0.4951319910568441
P 7.893849678156024 2.9871422583455534 1.4888707545774553 -1.0872930445452436 0.4852859515006998 -1.5543483319705294
P 5.942503943338155 8.05053809680669 1.5157489660175663 -1.03436045821227 -1.464629172936826 1.7825255100045367
P 5.1648990982516905 2.1312441640368003 12.936013684594334 -0.5425536748739173 -0.7158997640006574 -0.8858568820505066
Ni 0.3114097773238312 3.764413546393911 12.401901771136519 -0.6943582903844558 0.6515710200156004 0.6678409608202175
Ni 0.5211921375151468 7.3642815527950845 9.787010093865476 1.7876278642281085 0.2205587422568008 -0.2616477989876268
Ni 6.149902297254335 6.546010545479433 3.5374706031393286 0.13649266774381655 0.8730137075392512 -0.7027220889681188
Ni 1.6887436910950149 6.883774108455685 4.361800303433259 0.651588246406781 -0.6170506176412276 -0.006635245928330508
Ni 5.938010188796993 2.8442501294099154 10.840438813046415 -1.8078105098235702 -0.651580018876665 -1.8520509676991843
Ni 3.1418663966607028 3.2385423448719886 11.307776313664565 2.5777294083531603 1.0408008145209753 -0.030689972884689082
Ni 1.6393216566155249 2.381374880723773 4.564943952018921 -1.1262920515162602 -1.9752245497365917 -0.61120881414847
Ni 7.119339501145328 7.1745339254787215 13.500149437671075 0.518285803465488 -0.5073190200413392 -1.084976737707241
Ni 1.3290672838098023 9.116882885740988 3.6805517477298944 0.4986063227586896 0.6466746111552475 -0.2712909785043457
Ni 4.09677533844749 0.8721793839576771 4.452224836822026 0.046685834092313146 -0.5602837451638286 0.52767110133513
Ni 6.8633622708182065 0.30927871846925997 0.4813153936094795 -1.9663241619231686 2.234297903128823 -0.8023315105323408
Ni 2.7240954719052235 7.30211022708129 12.312643760833796 -1.4797007225579677 2.9905231062214046 0.8455031608238084
Ni 6.07203525980296 5.4390088597892285 1.2277984404932516 1.0619887614525 0.8728080192863483 0.35233934923692867
Ni 8.546352103005878 7.413749914640977 4.19413229894491 -0.4970047825995247 -1.8078567896804738 2.1652990073616065
Ni 4.267649196690975 5.12780014323559 2.6501773791661014 -0.22302854395353203 0.830708519013137 0.6667711247948066
Ni 3.9911489430470044 0.1829717867061539 13.334800581144897 -0.37797504752716193 0.35684469330644997 -1.2703278217146574
Ni 5.42544420690622 2.9290755372951294 5.453172988793503 0.8612581096652199 0.35865269304946623 -0.5808692826246641
Ni 2.109488832773613 6.271094687766469 2.089797848957375 -0.8376651528366285 -0.5692270704000455 -0.6234449512033456
Ni 3.794424414350242 6.041737162174926 4.852476604698274 0.7059267119483454 0.18631781879605977 -0.36938139232087996
Ni 8.110587629139195 0.49207353463575165 7.625176896339625 -0.12293498366403989 0.45344309595849003 0.1921269692786691
Ni 4.471591529073438 2.7970703394643657 3.295488870202771 -1.3470084023968478 -0.19541978109732797 0.18375185784109646
Ni 5.273295870163118 4.956277701862453 12.635299043078467 -1.5000204079519264 -1.2698367410108518 3.653834811712701
Ni 0.9737734453863821 1.21176639207558 6.554850733536592 -0.8846322656147861 -0.1959463430247593 0.43520111902916664
Ni 8.621115206908204 0.920019802148144 4.596486402708559 0.3025594496003241 -1.7412148241812078 0.29669759150290836
Ni 0.22291894820875482 6.151116074254112 0.30483499748381504 -0.42900424618983535 0.1587640775475072 -0.10258367370119753
P 6.496366139641205 0.8384076603966923 5.12338329212266 -0.5747456862254295 -0.31663341119488697 -0.49642936971202895
Ni 2.571826684009472 3.5933636441580905 8.289325094556048 0.35184158366490376 -0.7188537044226587 0.23623887199621893
P 2.862845934284369 3.780433549696318 1.9555309490987816 -1.401699880402457 -0.8194558289174533 -0.7249449049220612
Ni 1.554783478402014 1.5520686947307558 11.385250495048837 -0.37828357990651623 -0.13015181312745328 -0.2297157261657205
P 2.663740178954455 5.568910795185264 6.566567851047421 -1.9619753980361694 0.2492378553590482 0.804305603539576
P 3.571589781948342 5.660462936672299 11.384572262404685 0.48295138983025215 -1.1691955357480057 -0.990089918429669
P 1.4842824922088307 0.44397090355143964 13.115533155956085 0.2483150864344627 -1.0104183455743758 1.4277896355109732
Ni 8.105945627025541 4.582091563419594 7.093424898926415 -1.320827630236422 0.5017826636041423 0.11323652542935336
