# total energy = -340862.82677984115 ev
CRYSTAL
PRIMVEC
9.34969004234986 0.00000000000000 0.00000000000000
0.00000000000000 9.34969004234986 0.00000000000000
0.00000000000000 0.00000000000000 13.68421645813525
PRIMCOORD
 96 1
Ni 6.632520665413222 4.193177130561893 2.099966608366798 -0.06833992202697908 -0.4033353806688215 0.8339979883976862
Ni 1.1720771692287977 2.980036121773005 8.704762637293786 -1.4645957485957293 0.4204846387545984 -0.2656108974004329
Ni 6.954617494385238 8.656307867594295 1.8879567722263664 -0.4096032159554042 0.2029412862853537 -0.5661366044001799
Ni 2.9773901594334093 4.224386396602781 9.653120418318158 1.227634653721505 0.04236818055356574 1.4183544582400023
Ni 4.321342684452993 8.75039380053901 10.060390120523454 0.14736637723352686 0.18601082907860222 -0.6153670592912176
Ni 3.499336617412012 2.549099548648208 2.5033085056997804 0.5123547826930338 -0.07593521787573373 0.18673588017008486
Ni 7.8005681181460265 6.380434317002669 3.2747290086342247 -1.7100090880023644 0.21148351942841 1.2715755780788296
Ni 1.5310024280795023 4.497836787225265 3.8036101318682274 2.154627129470057 -0.48912358007923507 0.2707525895023724
Ni 6.672556039046261 8.540250162571663 4.2543680483143795 -1.6151780616633924 -1.9317477094998796 -0.5016132279058135
Ni 3.2367038184040595 4.049547189004037 12.281406233535181 -0.479694059235219 0.026059930311845444 -0.8541428387766774
Ni 8.402239384851608 1.2772518348051758 4.4351639435688 0.5191862037925704 0.9917372242251049 -1.7362767634496419
Ni 8.033403454340226 3.3932737312622714 11.573070895597047 0.3971418502635999 -0.015546946595663549 -0.32354376516147504
Ni 4.2233859797464675 0.46268718623092364 0.8279674295417814 -1.1130472706912122 0.3318584556747575 -1.6675843431792507
Ni 5.419519901978023 5.9173348094319005 4.599922315144391 1.6579077393214348 -0.3459524718739784 0.7715237811228648
Ni 1.2861527399192936 0.5747581833326938 7.52802932232252 -0.5867146856618477 -0.29177650005220723 -0.3638622622748637
Ni 5.639284371208422 5.390769604471812 7.500975993595945 1.1390215832677868 1.4180418120955902 -1.097003072744156
Ni 3.383475255884545 4.587294623498249 7.493805716146347 -0.3560317104868514 0.5729981074067035 -0.045669991233289096
Ni 7.970975572568204 0.7347697171704296 12.439801205929397 3.116307129298465 0.9687070818785188 -0.612064734390862
Ni 3.2574788301304984 0.7391453722055212 4.3792640155264815 -1.438114671586065 1.1659160936657855 0.47329689745962356
Ni 1.469696509136991 6.673790198158722 1.5672941857380736 1.3873662373886042 -3.4036693023330606 0.41901216797412993
Ni 8.909366583790424 6.670134469272567 12.563041342998945 0.339073485365958 0.17407808219675827 -0.18696985055776186
Ni 4.6481611069992015 9.054801015565742 2.991452093563276 1.017014767844971 -1.366397348446421 -0.30482099194099116
Ni 2.5095877576689416 2.5375433315042484 6.847555126348208 1.081111341214564 -0.22610229778284932 -0.7350398272642179
Ni 1.3070492976189296 1.7564889077404062 4.719603960106341 -0.8255089770900687 0.9688068406811767 0.7065640884220283
P 7.364348970032284 4.466870613130771 13.231624602918492 -0.6247413014172659 1.202421644790987 0.6571284594987199
P 9.228630456617926 8.593627544185633 11.319200626287573 -0.7597501855267044 -0.7297955481461431 -0.9841193026685311
P 0.4146858765083595 2.693814054274591 6.613855878775286 -1.2014870487918599 -1.1502945850784447 0.5829392777798154
P 3.832045344813151 1.4532971524456433 8.306100259928888 0.19082316286558101 1.9072785207139218 1.6047129004660106
P 1.7130689462383437 1.6331477940162014 0.8233468126222467 0.6018767381142668 -0.9967318492262188 0.10165473412902493
P 7.6866421424994655 6.152984402390121 6.054445211981274 -0.752069271942679 0.1328769253681002 -0.5660157625515994
P 7.378766192391496 8.266435134029589 13.362911083413682 0.5629026708439144 -0.9903999934709202 0.7532285823581027
P 4.00146173206926 7.7767731564701545 12.23583864818363 2.0512428142444348 -0.13012815897836946 -0.5776957699926889
Ni 8.903915714377051 2.127540714840072 0.5562794555306533 -0.08638778066762541 -0.039337621257358055 0.5699734616477667
Ni 3.125105915628733 6.663215698490585 3.934690919178007 -0.3613657211052551 -0.036532804818711274 1.938116589140701
Ni 6.082730829882262 7.697936568316539 11.576176862696743 0.31895100358447004 0.9188096828274434 0.22678364012059007
Ni 1.4674525834779697 5.516812778677089 11.052166928080865 -0.8054898536556643 -0.5327415738795018 -0.04544861925110237
Ni 3.777153313379342 6.568176097140785 8.853482550221523 -1.3291029828713368 0.5183205133581654 -0.2637743584123264
Ni 1.1524241203318695 0.46035817839066445 12.498315307364477 0.26519566423988516 1.0312517373799595 0.7521723731794465
Ni 9.29923931735513 8.14346800791522 1.1998691234848011 -2.160639139992092 1.4835789745664514 -0.5819023518748688
Ni 1.5003167446923857 5.645165326373108 8.433350479144913 -1.2981610418768417 0.3382201362267272 1.1348977909074003
Ni 4.386986859669613 7.225814609658456 6.184608794677929 -0.10919346570823131 -1.1086527411679423 0.67824698664489
Ni 6.694490412363193 8.11022050940072 6.910187766336617 -0.25923559000170837 -0.7602687770343358 0.28347209395156986
Ni 8.286144281067992 1.5881103361015947 8.097867698647809 0.4375063701235755 -0.04548538602630876 -0.9513873596531487
Ni 5.872288001827047 0.8184597295307032 12.667000548843355 -1.7906265418451162 -1.2816553309123346 -1.2985047983695055
Ni 2.2203831389820783 8.568458178043612 0.6364567892655338 0.5011416875860337 1.985235139895058 -1.3632770576498845
Ni 2.046413452576205 8.088734921215591 11.05498585969001 -0.4493534992701487 -1.2655016039706075 -1.2276626787459632
Ni 2.4339861623404153 6.661794545573204 12.905407365455098 -0.21566798982340277 -1.4510861441450686 1.2760606104333765
Ni 5.127669320951564 5.592676165332501 11.838776937788834 -1.5316575752412331 0.05524040853054358 2.8246391297996647
Ni 7.017784001686689 3.1237502105430743 6.528862519594732 -1.806543727296005 -0.9616638018784922 -2.4148515657475955
Ni 6.608548059622677 2.5724270258117845 0.24651580296203196 -0.28875982471307043 0.8336498610296481 0.02258894104410948
Ni 8.741764036442024 8.64322765094025 8.327037021296581 2.285367725221445 -1.1692628986508313 -2.1943331898104277
Ni 0.44465630859166283 6.558817057204617 6.62158713763964 -0.21514271344755206 0.7487345511424912 0.16524017219015413
Ni 7.984130586744215 6.369654124149121 8.263145913001074 0.3509087874379892 -0.6224234519173668 0.2912779631492338
Ni 7.05100345113045 5.622361431863304 10.717821069917663 1.607962774861876 -0.17736292359561714 -0.8071428158780551
Ni 0.5547236670737319 0.8460936740215507 2.5475905086425166 -0.6618680310662343 1.211015042886953 -0.553899953124672
Ni 8.636729616219334 8.615795659758716 5.62146292663067 1.3136406255696795 -0.8242691911456965 0.8041726775061376
P 3.540615499847758 7.45306818077584 1.9913269475852815 0.9398207378614718 0.32508822683045946 -1.8699733565055603
P 9.011315606231959 5.014650265258857 9.812021208954679 0.01825997465145242 -0.11461257984127357 0.13274811309971976
P 3.6903320897557093 4.855845776431869 3.060406994095976 1.3912902550333586 -2.1624746505389334 -1.0138528251772216
P 8.630156783976451 8.56242762783499 3.388581121727843 0.381882095891052 -0.053751482689842915 -0.9102047147672518
P 7.078678534258379 3.283592514987359 4.405756362838301 0.599826026232825 -0.42484240150266184 -1.6949910173269775
P 4.714515858674511 9.16763307745353 5.446414285970417 2.246348149425138 -0.5372296915578425 0.1613637199538834
P 5.043466010596789 4.982973514705672 9.890486614405534 0.07602983447206905 -0.2884106689037678 -1.7850428771097513
P 0.11954233457728654 5.304574810094656 2.464157612764006 -1.1005874476613045 -1.2284640916013359 0.23493095181807283
Ni 2.005919944121117 8.583277437083398 2.966177075921475 0.06321751319874919 -0.16814680431398785 0.714339361492073
Ni 3.4937361529547046 9.015588414674344 7.391461201807409 -0.11426676646608064 -1.1073080542145897 0.19122348362779323
Ni 7.917121356751691 5.946103806318602 1.0394779922230808 -0.3937459372081735 0.28049912736617494 -1.3216961488843044
Ni 4.435100365675128 4.181854655674081 5.665730905038037 0.3675191423011606 -0.8258689315326486 -1.800797825951163
Ni 5.527415327415964 3.3827646794258546 8.408882339771335 -0.46474360857297375 -1.1599791593560604 0.607453975091728
Ni 3.6417510992378976 0.480540419755512 12.05405729557729 -1.6280130086445317 1.0406882002025108 0.26948349298196167
Ni 6.796560980777926 0.78907365308777 5.729540671028406 -1.783006049185381 1.746246473067844 3.3377068793993225
Ni 5.4337688299128075 6.566119165286683 2.503431921611026 -0.2808048315320519 -0.39551177085934464 -0.6563535290059084
Ni 5.654599163831243 7.179374698206961 0.3344309403444377 -1.1919174028255535 -0.1247535249300174 -1.1811763622589657
Ni 9.180900287912493 1.7419594890982433 10.322921942876752 -1.0586800087942412 -0.592012186615361 0.6679384056300303
Ni 7.347547576660362 8.88048539062077 9.841620458335221 -0.9017568411102148 1.3581088831853836 2.561462809982653
Ni 8.078188470618192 3.9092550868639755 8.121705668898812 1.952304964825941 1.7347582699225863 2.258405594810304
Ni 5.9824086535435175 0.9247488781843952 8.092435528614928 0.09660611596152395 -0.6327705994796456 1.0329337530680724
Ni 5.440341662155691 1.755198650486469 3.9015621617296308 0.7480542372460149 1.3002801451023736 0.9010004225601644
Ni 4.558740669487202 2.241700432742781 10.329230178885673 -0.08323689374346956 -0.6390546327161446 0.39120337329197785
Ni 0.5257630015369881 6.796579680158417 4.28191504068594 0.9002712577036238 0.21891426467484232 -0.7143056800406602
Ni 4.698415692071032 1.9188930273120735 6.28054877119841 0.15595283335095722 -0.49689036850884744 0.05895642392955008
Ni 9.201983839417048 4.311357215270348 5.387996486344871 -1.295208387006421 0.664868508455455 0.24828706141000464
Ni 1.894452937009233 0.7784888687603615 10.010058867991605 1.595636392086039 -0.5632471986675267 -1.2531276557862872
Ni 4.3463998543120645 4.305064873734843 0.6571252145231694 0.6176972500862911 -0.007055621295200752 0.9420642824800098
Ni 5.930125185688322 7.190800019687478 9.016311145730354 0.31109422654421265 0.2147277373973205 0.8397261491307151
Ni 1.8504813437826613 3.806099954380717 1.3412513995075372 -0.3470685877562926 0.08073161082311257 0.7941751999737936
Ni 9.011072514285564 3.069409810833775 2.907157156244091 -0.5109103369370234 1.0272307891460244 0.2228349398854872
Ni 1.125581159635827 2.903247115783247 12.737514977709074 -0.41265691518006353 0.6927564931149747 -0.5467528005569294
P 1.7313943391203512 7.828289949725185 8.710208831862037 0.15118575097961706 0.7799330882324826 -0.1904935474403042
P 5.6644163385894615 1.4938841578031914 1.842716426033423 0.9225534661405919 0.4973516244159822 0.7455636096136773
P 1.484674712910958 8.709760046730233 5.049791076048155 0.1185201424257959 0.8642642434813954 1.237753487323062
P 4.451294029181065 2.3777758245819314 12.95917182424525 -0.16712196259389928 0.6789792368252242 0.31799583876005233
P 1.1064236443219326 5.046841248775567 13.524371819239535 -0.4895064173399505 0.8775846147393854 -2.0947762187506958
P 1.86983520259172 2.742198701297238 10.707639257239856 0.4385116714596383 0.4036158880237178 1.588342172417471
P 2.131430185982375 5.402017281837657 5.8748124181934465 0.27432847977908886 -0.16276060030141 -0.29750234679239085
P 6.880250058169174 1.6846178388200028 10.607621880803128 -0.553232237633686 -0.32642648602590885 -0.440244594990345
