# total energy = -340893.37568157125 ev
CRYSTAL
PRIMVEC
9.06803344211701 0.00000000000000 0.00000000000000
0.00000000000000 9.06803344211701 0.00000000000000
0.00000000000000 0.00000000000000 13.27198355340882
PRIMCOORD
 96 1
Ni 6.3346924761903285 2.01163442889817 11.51759960171517 -0.26503239918914356 0.1859025856355121 -0.2869428261089897
Ni 4.9296822883599685 0.49888874794736465 6.010536573715252 -0.441164278591137 -0.3361593970429565 0.11703995833584357
Ni 2.808397197653467 1.6062933287631693 4.9655400134665415 -0.5310544159850661 -0.7463845628530759 -0.06648538531674357
Ni 3.5897624454237707 4.494616174215068 4.863969876363586 -1.215491590601068 0.6317143903009894 1.029269416842608
Ni 5.186815447989232 4.707778439111566 2.7392978751223995 0.3906169046608886 -0.9278849056558343 -1.249392614223887
Ni 7.220059000861041 6.374546483686823 2.707312200345975 -0.0015629736117456954 -0.7249659879679836 -0.9767245528663565
Ni 5.11773516832864 4.495940107114838 11.63151314610009 0.4746364422066536 -0.287091435871712 -0.45724138665865766
Ni 5.761094013348282 7.631031349836843 12.330164325752241 -1.0968786313511496 0.9305827642029716 -0.5435306940752058
Ni 1.7781234966928814 6.4187168751579105 0.4536909482739221 0.6123480699592357 0.8638703504770864 -0.4088421694196636
Ni 2.6828593410478976 1.3192084542850044 0.3441699593454995 0.06370396591686447 1.5016715704021042 0.642880434220138
Ni 0.6211267471404254 0.16303236176973473 4.859125732835798 -0.5827621287720027 -0.5061121442174316 -0.9302462067991593
Ni 8.468355432706321 2.2480561998762396 1.6563434331946039 0.7036646553870463 0.9808573440878076 -1.4256787598155574
Ni 7.112348898234564 0.591617552329255 4.9322938820252675 -0.13831712254706502 1.3079410040817412 -0.4387785519677798
Ni 0.5996781273607986 7.5806221512764305 2.496327170307249 1.1112644677591765 -0.9453596654018299 -0.08075320808966738
Ni 7.646020809311635 3.9151688297267793 3.657691991625589 -0.325992998032916 -0.5426688602955428 -0.6010820101271132
Ni 7.775974798260957 3.7777246450568422 12.493621978295943 0.20173955266776866 0.10482387588562592 0.6092691739235959
Ni 7.75893596320159 8.723947026630373 7.113265676427487 0.7831048010922449 0.22789872756163976 0.8994186798953413
Ni 6.72948745329497 0.622007253199108 0.19187324250752819 0.8082661308492209 0.33566985900104773 0.8087014186144266
Ni 1.8382898993639267 6.557222019754375 9.03279246124263 -0.27573410187736386 0.24061000448072112 0.8976055379460025
Ni 0.19773209899068755 4.835991365617355 1.2858281159470415 -0.5840124562393362 -0.8969385937859649 0.31645651929739044
Ni 6.548924769046914 1.935354130590885 7.334695267520698 -0.4961558043356681 1.0776560356761118 -2.064137410818916
Ni 3.3891775430750863 4.516968876940633 0.3568479770658293 -0.03174026852607437 -1.054992532640325 0.7519939386200531
Ni 5.939226464602241 5.571708132446281 4.799268550109151 1.4188900190284983 0.24930958913724807 1.0473854097170285
Ni 5.0218588494980505 2.881884541624251 9.414057025472298 0.5159671826346405 -0.2166051569256915 0.06160491729599068
P 0.24663691078348557 5.516828393340754 12.34072858484972 0.32691988072255956 -0.0417832545843732 -0.15417928639030223
P 3.970121113100786 6.1788945915948155 12.460840130172945 0.5486903838992745 1.6723287998427716 0.5725324806241947
P 2.4895923417821875 8.446229430819757 1.4526318728744079 -1.3833483744784627 -0.005901453086099514 -1.1939866266497565
P 6.524985160448336 7.718664826161332 5.711823759803014 -1.3756633471293793 -0.17245803009483202 0.31580962974201093
P 4.692925000140176 0.888166733434062 12.666170334483612 -0.14593992919964544 0.9039157964347464 -1.1006617525426658
P 4.18277556811792 6.068600099403718 7.92735564370936 -0.5069199848307075 1.272936462982098 0.630237805755463
P 4.460085102418333 1.0131623216327392 3.752175460501353 1.370874410381168 0.7545341885434037 -0.08307671401652143
P 0.15687335337573713 5.472639865802547 3.41100611346088 0.5891958002124885 1.9782553661431155 0.7231978403239674
Ni 1.6351115394170628 1.2119245492358504 2.6518484798791806 -0.132900579517184 0.11769507542133924 -0.26907314491742046
Ni 1.6604838973181306 6.59159893498059 4.884448216552285 -0.012891254140371346 -1.1999274176142238 -1.596320048416625
Ni 6.031357685572523 5.537177060649545 9.216343969352087 -0.11173063030778821 0.7786318529225558 0.4548356054306425
Ni 8.72479942178502 2.361479163645559 10.334110592116978 -0.09940527597321588 0.2798938896820083 0.14663618393572167
Ni 2.2910386789509576 5.423382307504262 6.8822538942713525 0.1758076632933553 -1.1072535468275706 0.03813717319135367
Ni 0.38053549433143663 0.09480991808392576 9.341937140962372 0.6162651456254548 -0.4395977054349655 -1.0031549791437433
Ni 1.4971504768342017 0.9903743532962904 11.384481775856742 0.18832405059281115 1.0708611242414654 0.6624694120956591
Ni 4.178223415270766 6.779697155117062 1.5605995076539911 -0.7588037624530352 1.3509025952449314 0.3569711915819852
Ni 5.655007088729056 7.820408162705285 8.134929279522789 -0.3031819136756714 0.3525908031261024 -0.12612340869435051
Ni 5.144875792773921 2.8588063962138803 5.088651264291437 0.1754947600386268 -1.5474775729926251 -0.24274633409743354
Ni 0.7724631592243857 7.507343372077528 6.98949155234935 -0.5197875848219952 0.33116991424816516 0.1310902657813226
Ni 5.28660008928421 4.407635596306904 7.254386948706031 0.4937114565602336 -0.913626081743975 -1.0860308900033684
Ni 8.255156895675583 7.112076857227763 9.242623130609159 0.4209559219640622 -0.6196276343397845 -0.5031034392980948
Ni 4.651728923676791 0.17170049504980286 10.404717928629086 0.178840279472092 0.3135632569099954 -0.005869314296583441
Ni 8.242461648691489 7.461250557491707 4.539217297280258 0.5153442043386609 -1.5771681580785224 0.5522066245826489
Ni 7.325547435265302 6.120759428441224 6.939588350061589 -0.10756158653176313 -0.26847202099831186 0.4355441041908821
Ni 2.4869535440162083 5.407558588941946 2.732595691518154 -1.2298676568170819 -0.5096507534983094 -0.3726289527239002
Ni 2.6848452403975527 5.0966610583350445 11.216710459748516 -2.3615785653560684 -0.11984606032607102 1.265128536901905
Ni 1.089868817517347 3.4195101153335106 3.718491343039127 -0.009484542451667535 0.06339260532403278 0.18211997866462826
Ni 3.6992317465609013 2.9136952033529666 3.1255389761698305 -0.5911632083515045 -0.2439915193584443 -1.721360765569758
Ni 1.0796400756615911 3.2521414199153518 8.366552247140872 0.16358361042333763 -0.15602148180536354 -1.7796803272462576
Ni 3.5616606094211223 2.6749973559513194 7.175497777143516 -0.39990655749293064 0.44223437172686414 -0.12006871785983837
Ni 4.379606304572737 7.131083455569663 5.878175021855733 -1.076520379409772 -0.25955646367623686 0.17603623436439358
Ni 0.8613534650002995 7.500215897699315 11.577005196370527 -0.48684763956086474 -0.7683754653018703 -0.2801756825884852
P 0.26341640008303374 5.558559483784183 7.808013974435386 -0.5131078588089745 -0.5323294260427477 1.0823135890527813
P 8.617578992970785 1.541239256003248 8.018136634482548 0.1939884479674401 1.147200005313521 -0.3019295293258091
P 1.9144704493020506 3.1296141504517245 10.32636014383319 -0.3183455087899872 -0.7590441605986153 1.0479518237434597
P 4.162408764742009 6.274816250593205 3.803830606872919 -0.8609932860396075 0.7497871607767216 -0.4137007830635456
P 6.8574555428946375 3.876756639566335 10.344396462584164 0.4875986587942764 -0.23173841302270415 0.1638461200561049
P 6.5188098295939305 7.8423709399877675 10.185703154872922 -0.6739514445933297 -0.013866473569447087 0.8778993177663267
P 2.3487204404265447 8.360681602214084 5.704922079460446 1.4829739939926008 1.0260429394855104 1.2185722864089208
P 6.961601908332008 4.024293545588627 1.3900542800797409 -0.14471582698455723 -0.568670426565627 0.7635435911308657
Ni 5.1915670975747075 2.9053616805112648 0.6668931125180843 -0.2335106744317785 -0.31359256748603415 -0.7862708575250523
Ni 1.4485276808851215 0.9366553224864529 6.841960087147195 -0.023670089923430206 1.1971233725065256 2.2504989383687177
Ni 6.990936996898826 0.8524658853080778 9.319812952682518 -0.9722158663627256 -1.000295141097445 0.8931421028580103
Ni 2.7108614286813855 1.299131827983016 9.163561666409002 -0.12190371418604812 0.6672794318897928 0.2281905477704457
Ni 6.307651600114208 1.8752330680876401 2.512877238357728 -0.6491752660899143 0.37283566941806756 1.4349360167477674
Ni 4.016903098237172 6.849929075039782 10.23446469173547 0.5521714004693393 0.3854443593210136 -0.26426878155024164
Ni 7.877228460992666 6.86455581317217 0.22083563489502656 1.7177005431093517 1.0981541556294636 0.5971363952158039
Ni 7.7369731859191075 3.915939612579385 8.263256463251436 0.02601827844063261 -0.19707428598161544 -0.6659964514123111
Ni 2.997166452273384 8.382508358993165 12.448098636217694 1.2610307126834475 -1.4345038143063553 -0.35187397956473593
Ni 0.08286731788531736 4.744966444741402 10.186672527660493 0.3382113944759788 0.767189158303253 0.45748127058360566
Ni 8.70993691478007 2.3606811766922733 5.846534839157947 0.26159329160060757 0.3688666574679905 0.04735354958329909
Ni 3.5986853904468767 2.6584844668384378 11.665715048278596 0.18379968035989636 -0.5544051748958646 -0.09556301940899027
Ni 1.2622249313935427 3.3049355113020624 12.63133185634919 -0.2882312059031101 0.21660284293284632 0.02043667058779706
Ni 3.200852622099612 8.409222785861123 7.76186765845156 0.21003367435576087 -0.7323769357200741 0.3743996714710778
Ni 5.4556917110787815 8.182413130456725 3.6997250475865684 0.7613902922332888 -0.9279388988222212 -0.19046269420236875
Ni 2.956949723434487 8.352320875271703 3.5392135991465326 0.622824029789895 -0.7048949282497216 0.7417678900166709
Ni 3.2214189222138443 4.484641337298995 9.168472006581778 0.7997820046376097 -0.23435656737184155 -1.728002696366308
Ni 7.2291723745889085 5.981791814133197 11.41873717943325 0.33585189310486674 -0.3077427935734765 -1.0330674504324595
Ni 0.43144615514772144 0.1547877056569217 0.4926508476613945 0.21689800557576197 -1.2996684796603037 0.41015651735571296
Ni 4.6559002191144225 0.2829362491244342 1.5707792821285227 -0.7403735807723056 0.05355273641547551 0.048928093159270575
Ni 5.86748018307499 5.674059027238758 0.48545989704826126 0.36897207269760324 -1.0825437027857163 -0.5111985576014035
Ni 8.218703400764113 9.13169115565879 11.346989084299288 -1.4477375393878098 -0.9897014247419987 0.3103583768194526
Ni 8.990529077229226 4.867548122406388 5.624733458688773 0.24218249117416352 -0.09430086486711502 0.10515246286963827
Ni 7.805953717210538 -0.1359524931493063 2.6468583410110753 -0.4665397812414481 0.06753105297243854 -0.9407586762947089
P 8.700424547575558 1.5732856866045253 3.6511621006589854 -0.5617009372263293 0.9437247009015682 0.2391578454152268
P 2.0038903282378726 3.2772326687760573 1.683776955123875 0.1364690135947327 -0.38306865999998546 -0.9938617267672754
P 4.711877190280717 1.073909078451629 8.185390165874495 0.21792027619268922 -0.6951193369201963 0.3695441431509894
P 8.61941073574992 1.6964295823502364 12.636308393166955 -0.25315827345937697 0.7536278746790505 -0.45309445436981965
P 6.264533100536089 7.894439588689673 1.3430319920540128 0.24383442495528973 -0.9370151500918765 0.6724728031652741
P 1.8256581286147533 3.3285668067595973 5.898958954775407 -0.15140172364516505 0.3809472427816084 0.5295991715957782
P 6.878448040586193 3.7145748593445345 5.7595098278853385 1.3758574654180562 0.8292820709792558 1.3996293710266734
P 2.283140421720139 8.417846485776748 10.168396812823532 1.1348224575847745 -0.2164596324867627 -0.21092199049798516
