# total energy = -340876.8115010446 ev
CRYSTAL
PRIMVEC
9.21968645761718 0.00000000000000 0.00000000000000

0.00000000000000 9.21968645761718 0.00000000000000

0.00000000000000 0.00000000000000 13.49394307090803

PRIMCOORD
 96 1
Ni 6.69978924343679 1.1418673583789491 0.19536976090406313 0.7885290574316096 0.2258701271673852 0.9698496801233943
Ni 8.46181879559181 3.9104745932796754 2.8407448258137133 -0.026328353481883688 0.9343437739073006 0.07598535438737881
Ni 1.4698115973236427 2.5212246141707846 0.3921528997060802 1.0116974693971157 0.961119499339248 -0.7050715630369018
Ni 4.474931442897638 4.242235782320604 8.6032930367433 -0.21516071116968105 -0.4971562205757245 -0.8092212956736387
Ni 7.035828366885095 8.495857877126355 3.8966054192947297 -0.18134170573770705 -2.6342294003224183 0.7170745010350489
Ni 6.005178083411679 6.837429939056845 11.568964610875838 0.5709458528633651 -1.2947838978744928 1.34976436787543
Ni 7.3830325303492 7.4852511915012885 6.148434489910036 0.9731388923976272 0.971890621812823 0.20194395536909088
Ni 6.298677574628024 6.426785114693712 9.017408151000692 -0.8825216470296866 -0.5551037436247859 -0.20961021366509708
Ni 0.048928874784354454 9.016272285658044 6.892597775508162 -1.6088251228621713 0.6157442401249783 -1.3437004210695376
Ni 0.40388402845596005 6.324603332286514 10.20196081265392 1.299323437616059 -1.5539089304402658 1.145904683540865
Ni 3.356998389953056 1.5349947789187786 7.947109528894784 -0.02942010503332998 -1.751472497353474 1.3360889272708667
Ni 0.20363428763417343 4.768458593172651 0.4843774209926635 0.5289435402896504 0.26631820788010263 -0.04168683821582498
Ni 3.2062473005241925 0.24007233152388996 11.993295137468083 0.33320699928285197 -1.0232031560438701 -0.7017903211824689
Ni 2.617192328063821 6.245645939474528 8.448274154561906 0.1586686896202235 -0.9740845441403482 1.260939952741854
Ni 7.351694816877931 4.679341106143149 11.283095331977478 0.73389208681302 0.6468995826818602 -0.24062414554810818
Ni 3.1043513283899005 7.043268653666888 11.124393185150076 0.5286905437385798 -0.5443040819061207 -0.36203909302319587
Ni 3.410592425966143 7.586575543089768 1.8419227431186187 -1.3282144096187964 -0.17652397263408953 0.5884195841680963
Ni 4.968894571656138 4.478232090565398 5.741079249591195 0.5163996421863687 -0.19155284194275396 -0.7658994929575519
Ni 5.022894273863028 7.453692205560674 5.574442640800461 -0.7405036785922666 -0.4511447868426166 -0.24408407907225058
Ni 1.1927784657012037 8.881489692767056 2.2054365315108417 1.401880114734063 0.9910486827985125 -0.6229523278376432
Ni 0.6959498584646604 4.021203024815401 11.695321332527818 1.1562628868467377 0.24841741634028183 -0.6825990929659986
Ni 6.272742597283311 1.5191369186155772 8.719677745776709 -0.45985002792609836 -3.4394138069225217 -0.12442879460074699
Ni 4.435535723667651 -0.01243182490281205 3.1630337092293463 -0.26448398288484126 1.019661975659831 1.1385392443147295
Ni 8.785964523812714 6.920148963847731 8.306223683021491 -0.9151312055345918 0.732992457816886 -2.2016796028731696
P 3.0108913691494634 8.803279094539116 9.787466769292774 -0.2062055588589223 -0.194116231794556 -0.9145272534020057
P 5.937874373985302 5.163033504449459 13.209692595334834 -1.0505290975523327 1.3036351776175357 -0.8374772051955384
P 8.666477390365335 2.67336787621929 1.1290068180667774 -0.4251540192058097 -1.4428059064141474 -0.7609879145885475
P 4.868104961868582 2.118416523097024 6.52361947909169 1.544607707643998 1.2407105130688567 0.8983822682110271
P 2.9415501090678484 2.5374512619228975 12.035558179113359 0.018146074781407458 0.08067298967103526 0.09942095970249974
P 4.567155964184222 5.9091550514013065 7.22152667694145 -0.28595500827442366 1.443606805048888 0.7479498504576667
P 2.6766869632594945 4.009512462684901 4.552910627001387 0.588761026667915 0.835486914238387 -0.19490684601665142
P 8.11879114998663 0.8012276115054718 5.079767752265562 0.614606012755477 0.6448041336054121 0.6166824356685314
Ni 5.162388126413863 8.586773202969303 10.418443655008177 -1.277711258662922 0.4591722851327834 -0.4878614255373598
Ni 1.7300464606481554 1.3464060972315786 10.342135078047999 -0.02653378462447043 1.5100016875343543 1.0016863650180168
Ni 8.473269645880517 2.3199773032996918 6.859902002256277 0.6020042648310664 -0.4583274206339849 -0.9088507718425186
Ni 5.705482963053619 3.809187120436088 3.346376389455778 0.6254097882392003 -0.7196990831420896 0.0046935488209274
Ni 2.21966711719572 8.341151542307914 7.492700697969305 0.1335011892156604 0.3307042874656563 -0.24710409684549706
Ni 1.3179264864893754 6.41984269096795 2.7241434541540697 -0.7176517136947576 0.10962515392901122 0.05306114149103765
Ni 8.636476531396372 6.035483192025995 4.564501616520681 2.5024331096130066 0.44526878767781375 -0.178796313608034
Ni 0.6711691858350414 4.018879663887257 5.1228273748004876 -0.5190813027835899 -0.8459014247034915 -0.5405461575255852
Ni 6.104603179638263 0.3112003667954818 6.341896697734604 1.189329073273087 0.3451286904211024 0.7554772691829633
Ni 5.577771869495511 3.2071231707153576 11.98339042855894 -1.2244441718086654 -1.0366808788153308 2.4922919074139465
Ni 3.7927299805284047 0.414967935233 5.867813978378309 -0.8698664201595213 -2.022640062906078 -0.5860102033956553
Ni 7.130680498745173 5.319012155966645 6.795333773732201 0.18536188264069367 -0.1317934624959343 -0.39829884668617854
Ni 6.482545776969154 1.1845821646491421 11.078823964025307 0.6003880693838822 -1.5718390325561251 0.8259440077449581
Ni 1.0680084520481665 8.302087731781947 11.43823499204839 -0.9941664024918878 0.5290792945365662 -0.5466766959033553
Ni 1.850197411503574 4.029731234571483 2.5780990145419405 -0.5513221650951666 0.010628940468755888 -0.35668939867550825
Ni 4.554617190921226 8.07142962186015 7.991261684247111 0.49099097230527705 0.04311971400760961 0.11912615144091097
Ni 3.0596174108369167 3.4037237597301635 6.700187533881615 -1.2630243460747088 0.032351419747512024 -0.3723430460523652
Ni 6.18128330995322 1.4018348508030007 4.131022395289559 0.15212703184696383 1.4304394144289947 -0.027845304347042365
Ni 6.49752776708119 3.2558860911477017 7.495116255759676 -0.5983324724064341 1.3183750549308713 -0.7659208331137906
Ni 6.484638645741729 6.0060170748579536 4.273544914764582 -1.492171858441785 -0.9746743552055471 0.10537434907245724
Ni 7.985041161952593 7.935245636663296 13.208572403458765 0.22815866609124577 -0.6815763081284392 -0.7647862052887151
Ni 0.4258167400113588 1.769322323957247 3.538840105262417 0.17833325792868643 0.36711933575958067 0.031194680435249502
Ni 4.359952736013206 1.4583330879762673 0.0685151761960527 -0.04671951554372599 0.8144738023218296 0.590080516810287
Ni 3.9789031044252336 3.6368804046183376 1.367908249440373 0.10369850403193108 -0.03589954211008656 -0.1439285551965715
P 5.853062480421842 8.76729465921156 12.64795370921535 -1.239289464351614 -0.5130975743963293 -1.3792685479821343
P 2.617893024216753 0.09847085870252455 0.5139292812425771 -1.121884666477184 -0.4696865544005459 0.8931259049080941
P 6.4789777584009345 3.05530259768465 10.089299934885899 -0.5920903481514641 0.7978786169673098 -0.8015612080252195
P 7.803745252067621 4.8612916137499385 9.047041144489366 1.6664008643941106 0.26421427416322235 -1.2592026583357734
P 1.14054894324909 1.7019632964135323 7.931483082715775 -0.4139213837147839 0.8096738098300249 -0.02395805347749422
P 2.6160398672859726 5.002417350762208 10.559833075046418 -0.7089161335939727 0.18956255098560257 -1.0382243120430508
P 5.32262627296598 7.287581118884639 3.1003813315023665 -0.5089478138940138 0.6414866391964049 0.5937690214054677
P 8.739939850188538 6.153449077246613 12.132336303425381 1.022461392781839 0.3782532408892131 1.2997044751045614
Ni 4.936515033641695 4.906532614045177 10.693193992321854 -0.6669441600375611 1.3588300776221243 -0.44802783848018973
Ni 1.278161979810476 7.323501016408635 0.0617497704457683 0.3513026804422982 -0.292173992600942 0.7707617061458596
Ni 2.145605377768036 3.4364628655072957 8.955403917215174 -0.21723276320736135 0.8466113062863226 0.8259314093394678
Ni 7.5153626867049255 8.119962050136923 10.297794841096728 1.8557600411196558 1.040354728122492 0.13891541825269624
Ni 7.895020145673257 0.6527417989815482 2.371412088799401 0.21899885396884863 1.7118553971824841 -1.9222168871913086
Ni 3.4644169541348 4.811182619129068 12.619076729996946 -0.6839404374852416 -1.022227422394162 0.10075253402972971
Ni 0.3386123378730854 4.69718119898425 7.302031133101621 -0.14086894243464126 0.43288789751495765 1.3236722987740688
Ni 4.335160999760119 6.92348649026038 13.401238952362306 0.27124032777206836 -0.08420877073843562 -1.7469980065218882
Ni 5.091746890574835 5.657328541911979 1.8503301749851822 0.4431311725095207 -0.5939821658575384 -1.1927424698300104
Ni 8.017872464591953 2.5354413703263288 12.28995882499609 1.4987988768399993 0.056898770069572974 0.6071647259860833
Ni 7.521502997729305 5.9662710075515 1.3979183280955592 0.3865620178652246 0.08254783809624494 0.35342615454320425
Ni 2.51477083381483 7.721551749391435 4.820872509349221 1.0893293582489818 -0.03997885438578276 0.25932660705361793
Ni 0.38070850319772914 8.409967280274829 4.524667040226488 -1.5474055821041093 0.39274474963716877 -0.7964747946412476
Ni 1.4311257939328095 1.540194681948433 5.732631251105252 0.323127760669979 0.022003500854284683 0.5043015733712541
Ni 2.4244179088314737 5.579578927995178 6.126303555100848 0.008779545964842945 0.9002787139027915 -0.3398882679577695
Ni 2.792486222217756 1.7542020385518688 2.2092414960149878 0.4051896602687409 -1.14508681562526 0.2423084752290666
Ni 6.150037793344179 7.963190505604578 1.1219362407025186 -0.415902932921187 0.9597339318456309 1.9569671461883007
Ni 9.411640089950012 0.5744731167304042 13.340543914020424 0.17523559283996917 0.5104521663536822 0.21021673690084441
Ni 6.5372830540738684 3.5405346835901663 0.8681975682905847 0.335816411881241 -0.7844237770139845 0.8576714207552262
Ni 4.019073277297936 1.8778011520546116 10.174284236581725 1.443812493301791 0.5710669518222617 0.4603886740383877
Ni 0.5466213666199734 9.198204353892388 9.065338533767118 -1.2123401894562797 -1.4478606952292354 1.310935567933691
Ni 8.962447757489388 2.7478998196443363 9.483353575296752 -0.8829890735844084 0.2715660865426033 0.02065547146682249
Ni 4.006543723721163 2.3901759942000265 4.623591507491174 -0.2384816452838086 -0.18060996977800509 -1.9918223061942728
Ni 3.792407291510607 5.874802500535186 3.9302858550352098 -0.21022650709285728 -0.7227741225229874 -0.08912214887965296
P 8.766492546510177 0.7416177302320135 11.102843090572925 0.39101182610646207 0.03787697755143154 0.2428728323729688
P 2.3280721878033024 0.493993553723035 3.949920098815266 0.10625289502266863 0.2755548959870222 0.7062061908619773
P 8.630686568448459 7.875981493623193 2.1569124009516676 -1.5126697212848208 -2.0898175891938395 -0.2388657680961048
P 2.479763685226891 5.599640965215973 0.9626716930155292 -0.07610928155975279 -0.2920274397207487 0.4810978815612811
P 5.375980597137274 1.6728751863806253 2.1046506095977744 0.06339491931687792 1.6194890303339207 -0.37255696183538417
P 7.652855867345416 4.059879608520011 4.861503666533063 -1.3116469921784186 -0.31411861519283324 0.7244551097698363
P 6.941049992514799 8.388706683845074 8.206422423597019 -0.32381270255214556 0.7006634066668772 -0.35197425258802606
P 0.6205300592563592 6.968201968440919 6.2714444654631425 0.41022876535454506 -0.5862860827648613 0.07134682717410293
