# total energy = -340859.6966112251 ev
CRYSTAL
PRIMVEC
9.31878209565288 0.00000000000000 0.00000000000000

0.00000000000000 9.31878209565288 0.00000000000000

0.00000000000000 0.00000000000000 13.63897955391774

PRIMCOORD
 96 1
Ni 6.914536291144166 6.280980254990502 7.733397240509461 2.104153803310854 -0.4936988581547433 2.015108273305407
Ni 1.0157658824896176 0.6409831054583023 2.158450781049985 -2.461970116501954 1.9226218359392115 -0.9126812013322023
Ni 0.7549424913132915 1.5373381145857619 11.525660691214384 1.7860273525102082 -0.8748186219584739 -0.32376976512935207
Ni 9.082215462071671 5.912021716748897 6.9963738352261435 0.28994073239504903 -0.5275399750739044 -0.5132919497953224
Ni 5.954561956868941 8.706081461641142 0.4577553487686327 -0.20481356360740208 -0.34127769210612835 1.3518719011367362
Ni 7.885497469472299 0.5364478039041676 1.4307974111315542 -0.6123257013617325 0.40687373283938316 0.1398682690842688
Ni 8.220768610554218 1.8026158835884585 12.706264645869489 -0.04352671963804117 3.587004127241397 0.9181921038481025
Ni 5.4332879257988305 4.935431994054388 10.730030533655277 1.1392673807300058 -0.2639023993497584 0.05261351243065777
Ni 3.365217216348468 3.0318843819357633 3.642698862341572 -0.3447664219856772 0.8473996065155728 -0.7190737908532647
Ni -0.014184118178909076 4.21006731701076 8.408703284064181 -0.15565638515646094 -1.1290737280264553 1.585136778106296
Ni 4.535740112567239 7.183727948613548 10.78335912777028 -0.1600077201466212 0.10312540513728047 -1.0152777305492062
Ni 5.571820939955366 5.450788598514152 6.029015298043773 -0.5008727501953633 -2.473744740539378 0.458413552589888
Ni 6.446015885335735 4.730539932823407 2.50230265665601 -1.5247197104708192 2.3126270751580305 0.0378774917720638
Ni 0.8015317422399428 6.081903113767169 10.154084140096606 -0.5653642450105295 0.7669037658523502 0.34772164795925925
Ni 1.1707745033344856 6.4223368601122885 1.6290256113088986 -0.011974912973689055 -0.8901855913328476 1.9940969611610624
Ni 8.514906647607688 3.159318726654627 10.45467356997266 -0.5539506038569492 -0.6748122499317282 0.541805483853983
Ni 1.8538505473737827 2.953755713115073 7.6187342866086745 0.8699291550766567 0.19006443032268558 -1.1260290276628608
Ni 7.199868079147593 6.72146044556975 10.197046521044127 0.3807994043498345 0.9651021381360799 0.3785766856669028
Ni 4.270518256256923 8.566812263701587 4.869688918474342 1.7445994243827248 0.4382015964183872 -0.2373274770747074
Ni 3.6622161194954432 4.686024110905893 1.7405388168722096 0.6389697863118222 0.9335701289660696 0.6699076135412593
Ni 4.74074399918298 5.811416145590956 8.693703323426147 0.5178895964683339 -1.8515866264682563 -0.5613908621850784
Ni 1.0113674173556284 3.8954279594175105 3.6417846898211392 0.230208606641739 1.1318682600524572 -0.31194397613901764
Ni 3.71095334968774 7.13662150528237 13.331883875339637 -0.56714473394972 -0.5258870128515136 -1.384760938555273
Ni 9.309808076409425 8.156226725982165 7.11212801850657 -0.13476977151543887 0.24716606043168401 1.1663521527619396
P 2.6871826334055444 6.323706870751818 11.229435246978682 -1.3302126709957478 -0.5475179608577281 0.49568015025083023
P 7.3555942462113535 4.769464485502801 9.520062164839763 -0.06252434378646651 -0.8530421495133309 -1.2088910545654148
P 9.122957177253452 4.058031387644161 12.578698906323527 -1.2579968109531303 0.14991074092193538 0.17244671724092234
P 4.271897436002326 2.6820479844885354 1.8880709788675019 1.283685473968486 0.3328665852242977 -2.5942443752890485
P 0.09602073038268125 0.3227644036744477 5.705648901048022 -0.4222275895876341 1.8257005027301139 -1.942975202784583
P 5.907604614050781 3.85579517930129 4.735944826420258 -0.7705272215375504 0.12210271757073166 -1.283903503516563
P 3.560809133080038 3.650409222620943 8.833298678737926 2.211712561629139 -0.38300849618601135 -1.6436113773034209
P 8.852544759333748 2.274770614401668 1.939313097678477 0.3488832723675282 2.185062820252095 0.489871256878537
Ni 6.926371144364857 4.023756907214473 13.303405677353469 -1.5532782388348023 -0.5826279171869837 -1.127641366455303
Ni 3.8308394809351385 0.2425334176202229 13.314426069021806 2.4760535911782133 0.3641589675796761 0.3336911380081221
Ni 1.0918723756025213 8.997731383883648 9.793550712718641 -1.701918083464114 -0.5218645219556819 -1.5100045157478317
Ni 6.972983692246667 2.722444904733967 3.1869927137487113 1.3324032508891632 -0.3696248757902537 -0.38767761952690655
Ni 4.526672937619417 4.880348673276822 12.966877432571177 -0.18470599422424963 -0.6529403895593013 -1.0710189899755682
Ni 2.271937704654353 8.565694009853964 3.270340832403189 0.6025305696481816 -1.3390503238920357 1.7144002750915248
Ni 7.372852630593024 1.2499934696566104 8.937446318958218 0.23845182048713773 -1.399958472231318 1.531141554836763
Ni 2.188860762557924 8.469813061202235 5.7665741663012176 -1.6969581683556776 2.388714759451228 0.3602370068174505
Ni 3.0163779285820382 1.1536838570299595 9.91364185717144 -1.3223535799626451 -1.2210595716071486 -1.204728695657609
Ni 5.668018727197254 1.7563388118609358 4.880136205045774 -1.3115672879804186 -1.000363275331219 1.1661238388012176
Ni 3.2516864944684016 0.8697359081629672 2.3018910658411786 1.0405429328738984 0.8166949783428645 -1.6696759356009567
Ni 0.8053673529372944 6.691556473927862 5.034419824646098 -0.9468861293486853 -1.2876974233413565 -0.5782619269088042
Ni 6.145979059236047 8.515903757288488 8.746431787976256 -0.547915967627095 -0.32207617947701306 0.02676184147487649
Ni 2.3734565164545205 8.688692614310584 11.638250216106032 -1.3552588153310983 -1.289223887288212 0.9432179364684787
Ni 7.421720323734209 7.596335662040758 2.0963932837760693 -0.7924954982785255 -1.8311867226556655 0.3051873741414744
Ni 4.165961521504042 7.498749376271403 1.9425047805352385 0.3353186463092161 0.04230698829832714 0.8710154461623
Ni 7.943329830958608 6.013773498100653 12.615291899730625 1.889703487944636 -0.31913046658512784 0.2024394069482707
Ni 8.288590706412638 4.649373341050004 1.1995891093531474 3.455925174313984 0.10524296570091553 0.9808953964145947
Ni 4.602071203295492 5.91060526187524 3.9894693804898966 0.4817247165120026 -0.276590279230072 -2.299356583301369
Ni 2.242592859936276 5.099274820295488 8.496443344705204 -1.073425285424216 2.8200628232828913 -0.6614774804960349
Ni -0.00761064931129035 8.262544710545054 3.329070592602216 -0.417086668816643 -0.9390612339876279 0.21239368994750518
Ni 9.116816099873581 8.112493681757988 11.618173832028349 -1.3866262738987862 0.751039545126584 -1.2661950304932066
Ni 6.031814660175661 1.6785456191945323 13.52861268348296 -1.2100426516713547 0.34741902911717587 -0.007422003495683991
Ni 1.9230797793237961 8.470213768830968 0.7180652750532581 1.8851341234063985 0.5673223971781649 -0.2882605164791487
P 6.216969540996068 1.9584725136011083 7.162100919200491 -0.2475509545749285 0.5877883783420006 0.39802450997886935
P 5.5064683213437835 7.300044986330612 6.655930770098961 -1.9982600913998165 4.878105691168296 0.5774234901679088
P 1.9486691548702677 4.610411513242357 5.76199118928237 -0.3883430210250473 0.01967896648616611 -0.02804199373888074
P 1.0029805134984455 2.198347282698604 9.489606521299713 -0.4718282833338971 -0.2747498835872236 -0.7810885419931645
P 3.4368972879811914 1.3769152813619792 5.697206084498457 0.6337679303959084 -1.501649458914917 1.2794511241721642
P 8.280781567043395 8.331009802365857 9.029263346752037 0.1622983159530108 0.20228668342049033 1.2844480631661233
P 7.796642882496478 9.193621501641251 12.918254823398263 -0.8604628674574342 -2.6245265712123573 1.1252569253835265
P 1.9444570653775495 7.174558267063028 7.544960284646274 -0.645441767189411 -0.0814674605478726 0.16338974924497668
Ni 6.968874109356648 0.5422897483797987 11.098746783563232 -1.4540233723965217 -0.33350010504323857 -0.2692549219109234
Ni 3.787255537223978 2.9795687394310693 10.671900903021143 -0.08182021590160103 1.4517253203909644 4.569540915914156
Ni 1.5509994490909065 2.8851042456529985 1.3237935642087886 -0.02657517938536713 0.4024596629320875 0.3792220325603856
Ni 3.7854197371574614 3.5208036016812754 5.6747841629753815 1.3366705108059496 0.9829113984033588 2.3834691947815725
Ni 7.489421275425803 0.2112968601432482 4.049058332395181 -1.0864664348788902 -0.4026838631277517 -0.23601672868308382
Ni 5.59217315998213 1.1711472546170272 2.387394618786953 0.6403998338901293 -2.1940074310398923 -0.2985492999996665
Ni 1.6870070733082234 0.6346789493923197 7.689220622259059 0.32988461977783834 -0.2462579467951178 -0.3865774444841923
Ni 7.385498217853242 3.915500615982369 7.095270341753633 -1.8380703371493763 0.07058346664551714 0.5076699756228548
Ni 7.408487653203987 7.321981399308176 5.448267867965965 0.0823830303836065 0.008759234249868785 -0.7072616287096852
Ni 6.1967105087899395 7.28989683266342 12.346645391011958 -0.41392883991395163 0.6616595145998541 -0.368909594890784
Ni 1.8722178668210134 1.5853298422129753 4.347138214261528 -1.192641939696404 -1.6002597497906634 0.2737916334390123
Ni 9.117701384169619 8.02676088677345 0.6144674429747152 -1.7821375305374987 0.1255446533727451 -0.49807667550746476
Ni 8.485403383594532 1.8216168802160098 7.259497101815751 3.3763834700339137 0.6901841044021081 -2.09140550250625
Ni 1.4877808315718741 3.942180289030274 11.238819260516662 0.5240515023046717 0.16658640180540343 -0.47203268603521936
Ni 3.8012150727551557 7.73680698286651 8.425902028240644 -0.5601155950170805 1.4983306789543291 -0.5977969116179382
Ni 4.484579999038422 0.8017330279325152 8.14259334782321 -0.33224874913464075 0.34260823799209383 -1.169696129533508
Ni 3.241202864646923 6.464411161129156 5.675043225116748 0.03244012280657639 -1.3479856787084525 2.3570377400629208
Ni 5.574411561369029 2.617329043057274 9.272255248449785 0.42388029469970867 1.4982648587134002 -0.24990402818813734
Ni 7.674352505476687 5.001502158884861 4.945889531286088 1.2816167643649155 0.26285647458374733 -1.1775925015624493
Ni 0.9626395059453955 6.71379108793146 12.833638418504938 2.63588956163366 -2.4172357497090564 -0.29967981405968386
Ni 0.08838398848161298 3.712900975139019 5.900631369432636 0.008093061420779611 -0.44637101960305703 0.24230898944969884
Ni 2.915036173641078 3.256485667231123 13.096229582638717 0.658034773363073 -1.720499446010727 -0.54727010651298
Ni 8.937532051753202 2.045584488331049 4.134683961385988 0.29693336166279827 -0.4242633890707403 0.8701050185328887
Ni 7.088145200987853 0.15627690708371533 6.437448197106519 -0.39407478130250195 -0.9612431694013059 0.21331980130620035
P 8.610750321131162 5.967365963424241 3.1634795628459957 -0.11619252273388378 -0.03365368349870333 -0.2203358276127173
P 5.6958259728748475 3.044315637208521 11.824817824287274 -0.3562597673372574 -0.7144668882088728 7.867575673534838e-05
P 2.1263690100398476 4.9966191170835685 0.3705725512950096 -0.7844638862233005 0.3913710092180937 -1.3856934776718717
P 5.823092579516567 8.203752514506201 3.326506063778331 -0.7150358733384653 0.46303793873577676 0.3785111225362901
P 4.280545265757288 -0.06291948461479284 11.102974714985457 2.255818550809418 0.9444734061421346 0.1392000393726506
P 5.5970096078731055 6.201351262257581 0.4857415150618458 1.093134590927685 0.5846092092830706 1.8846384147169026
P 1.9962881312149399 1.1014986774741546 13.29104897233722 -1.7250112178381518 1.1425938740000774 0.6427981589189768
P 2.427794334667003 6.583607702503853 3.6573740803352295 1.6012894766067585 -1.540179239558999 -1.4966527770312743
