# total energy = -381166.95720641 ev
CRYSTAL
PRIMVEC
9.31708063243407 0.00000000000000 0.00000000000000

0.00000000000000 9.31708063243407 0.00000000000000

0.00000000000000 0.00000000000000 13.63648929051795

PRIMCOORD
 96 1
Ni 5.492297985269665 6.261395050667299 6.518009815758796 -0.18950290139226073 -0.3928655914857492 -0.6385707511011905
Ni 2.4189936774102963 3.17868049124153 3.9669502454246466 -0.6501126903025191 -2.709103266813173 2.811459140774281
Ni 3.4089987275993567 0.49328259198645374 9.61532051390132 -0.7506379388127912 -0.21438963733161145 -0.9995014415515562
Ni 3.9513553156505474 7.829860376847947 13.31575939105246 0.16692835852585447 -0.9980140583727521 0.3035922617402126
Ni 5.730647545241587 8.459834792355004 5.40491774337315 -0.7005204533311098 0.37156683000797297 0.35194339935009067
Ni 8.505395317265593 2.1532425829267083 10.58516153791216 -0.27347538775017416 0.16427215184993 -0.5200135847898723
Ni 7.760327003144935 5.449551218748237 10.355236482362356 -0.6915570734902348 -0.7183417977832467 0.6069515815340129
Ni 6.883114532622049 0.15516014100071981 3.630988425466881 -0.4648670215247156 0.238918218600595 -0.7162381211766826
Ni 0.5916420818491535 1.1898937007886081 5.6548344591071364 -0.2832237253861897 -0.3067629461587104 -0.9092359230960794
Ni 1.1603771889446926 3.9727473330727796 11.3961370179045 0.3397872236035309 -0.369829278491576 0.22122131554146415
Ni 5.823128888853553 4.739608299088299 2.67622896008033 -1.405878694370495 0.48868752098308094 -0.24011301023964454
Ni 7.683209525704249 4.966087898173495 1.5352508649835594 1.4758378971684518 0.6627668887314199 -0.8581876982700124
Ni 3.687626027691622 6.129726065383771 1.7649029300671308 -0.12616943144093754 0.20606543373663222 -1.4178245538784615
Ni 2.184547974276316 1.83590281228158 1.3086343048112088 -1.011060607144065 1.6816804162610006 2.182963514520905
Ni 8.820014500329147 1.877326553335257 3.0893744087521675 0.6870684415912619 -1.1837886030708322 -0.2604221541106418
Ni 6.135269728435264 3.824307602423391 6.721847976892004 1.5270609570094862 -0.8686844840362782 1.5763405199709044
Ni 3.376062847116957 1.9193838558805332 11.645561791774423 0.30210127901698297 2.035580682227146 -1.2131333747815365
Ni 8.981824241867432 8.586984993470507 4.155147823088037 0.49754959935940113 0.17750459137980398 1.4158198647436069
Ni 6.906323380792249 2.7484456530418795 1.1216162695718839 0.7538785572372758 0.9607176359151389 -1.1682516837774977
Ni 0.22302203041560112 5.823100937611277 11.971283208270178 -0.20104895435864728 2.783896914885296 -0.7170475044518554
Ni 1.5381568624722326 7.782585509077736 11.436514450788964 0.6813173980400975 0.6696862415590724 0.6636130387817991
Ni 9.10525692776017 6.101569847330643 3.600619400733535 0.46675935345142194 -0.8693054054497288 0.869791858167844
Ni 2.1173625049245244 0.47300303400682403 7.265494048920214 -1.6377178946371214 -0.2992085308502202 2.1775104618261336
Ni 8.555120577275371 5.697059469106072 7.882068638879948 0.6806697371537695 -1.3723450813894236 0.22291772940728058
P 7.600194336143237 0.0834968826362433 6.32843610526733 0.4572097620897739 -0.7218868348220278 0.5380295617513186
Ni 3.026364854996476 5.912237449230829 11.578102400248321 -0.9467712010373759 -0.12844820017278524 0.6732893855292986
P 3.5566465063842467 2.043683030283841 7.999396773459512 0.3037359864069285 0.6096874924079371 -0.19627518711908779
Ni 7.977098204079449 7.569261628023982 2.2820530878334324 -0.42301434715498765 0.27146529929868085 -0.7913122766037017
P 7.188453903249828 7.63514270606954 10.514020036070177 0.0803767985868551 -0.2938104997631005 1.1291074094778684
P 0.9848061191256438 6.713357321196499 1.9702951802709083 0.45870023059237136 -0.12271772544691123 -1.1562366615944926
P 3.895219904078707 9.130049679659368 11.660862301796545 0.6409641910340316 -0.18488340034237835 -0.7858913626984465
Ni 7.673342737180668 3.6508515099365924 3.752679748965798 0.06863816999368824 1.293860357618959 0.16018178383064025
Ni 4.72407672546336 2.70625791136598 5.228680502279846 -0.479476029687142 0.32461745784162804 -0.5392585490624132
Ni 7.661919996170364 7.331899678612494 6.363277328764906 0.004063371436096227 0.3934834275754062 -1.1896851710609253
Ni 7.937910562407887 5.29074157721429 5.617961180296063 0.03531847279563595 -1.3042530137071926 -0.6419836334374813
Ni 1.0436621182790577 1.7822830125146183 11.915660236140072 -0.6668605991848192 -1.5089081973598593 2.2642345427872552
Ni 3.898089564952421 0.586031335816197 6.0929468890883625 1.1043191467895948 0.05676918647024417 -1.2510185798630842
Ni 0.8182064663692549 -0.23069464642048257 9.618784604527447 1.1483510881988286 1.8552180525732564 0.7488484510125362
Ni 3.305541862853511 4.252474048694586 13.435569595946173 0.3339387352425539 0.2994795251234197 0.1713750814432984
Ni 6.476833909053304 3.4092223375375683 10.50196466527635 -0.014766873896529406 -0.047977042099910924 -0.22563564255907592
Ni 1.620939125014275 2.241559191439485 9.853331863841698 1.151736973951926 0.13031019308218847 -2.2253054698222257
Ni 3.6538236586986534 3.8494730375529413 2.327653676191285 0.5495807569240277 -0.4605599095089294 -1.333203635303272
Ni 8.511404834355027 8.899396028394223 11.868463631848234 0.3504706714593061 -0.005192342834216864 -0.6922921518840465
Ni 8.998427279779634 7.791324930829501 0.3648932191300277 1.7930068691518348 -0.40746997166248533 -1.7676203107579298
Ni 8.026040829305487 4.010956681264667 12.409382594338341 -0.2882237497039424 -0.5700133137467667 0.3957372566065894
Ni 2.123763339405828 5.0399350802678375 9.534142652665945 -0.6951108522797641 1.0224878751444004 -0.593727626644571
Ni 0.03455053057790163 6.913311191361358 9.784603485916247 0.9122489988907901 0.5490755351528349 -0.23790006174872574
Ni 5.527395428488108 1.1556627460807336 10.742581070996893 0.8964020045562046 -0.01518544949118675 0.044637950424348934
Ni 6.794276167586779 6.934526184249172 8.45226466423847 0.23833509240361536 2.965612459022654 0.8305277704608987
Ni 0.7464183591226103 4.034212114838661 2.6707337458487825 -2.1077605468255056 -1.1973000072937057 -1.7110030764845179
Ni 9.175917668234998 1.5872858293134469 8.245685417946019 0.3349697476102296 0.44343764800634594 -0.6388432880362869
Ni 4.7799419416931945 8.1971862857641 7.748580959432301 -1.3262963666604772 -0.4494267757102453 -0.5467252897531035
Ni 4.606047946410732 2.2688023355782505 0.8105515528178151 -1.086014434943136 -1.389963308691819 1.280456682618543
Ni 2.045509178112568 2.9491262555059263 6.636483951271695 1.1908174848931554 -0.11247239356981921 -0.02275760541148984
Ni 7.701033101195857 0.3124837081536357 1.0247968931586156 -0.5690604629151941 -0.037624495220993266 1.2474835701266322
Ni 4.574565530526708 6.676368510584016 3.798526308255683 -0.11167766558266572 0.2615601243698269 0.8375383974507771
P 1.7094048068191927 0.6120912106985936 3.675975018202728 -0.29937205301127795 1.26065995960759 2.038440263163128
Ni 0.8328380099928929 6.989841692714238 5.78999921309137 0.08329602911617912 0.5847704174512831 -0.20046505683071927
P 7.096634072371738 2.336984732571235 8.692335089026543 -0.2918286934463813 -0.10080267054137478 0.4488187098126012
Ni 0.6838094398395471 9.158709020073474 2.0923144650125347 -1.7738341528781258 -0.2470490752378455 -1.665913640345047
P 0.6436071680733503 0.4429983071311467 13.540911306129527 -0.5498039286784273 0.15099626067663027 0.35608338966039316
P 4.095667579523783 6.0626058155972915 9.711621860624398 -0.9681386109695587 -0.18264011283415643 -0.9537088086974738
P 5.088560924748076 0.02988546824196459 2.2974756516134938 1.1893306159349841 -0.24369635671552867 -0.7268110115965225
Ni 2.928246677525429 8.766152456462457 2.1329648883632304 2.6364199802158335 -0.1188037351044857 -2.8963723937789085
Ni 5.658812852591149 0.9770077225305183 7.8070950217218655 0.2270443499811445 0.8893587245561779 -0.3271340536158947
Ni 9.19417914652227 2.5364354803751183 0.5802444969568991 0.36228077672035675 -0.2605149709347642 0.24261057985051762
Ni 3.782259616958873 1.209105521313278 3.4637365770573756 -0.23267198058056704 1.0008895801483342 0.8602607787489571
Ni 2.371532468024909 7.57610036530095 8.290603995992326 -0.10764926114956301 -0.6330292524576712 0.1698689292114171
Ni 4.027270889673346 4.487935313631276 7.638861153000382 -1.2538856169982342 -1.0050210858182047 0.7707244251500209
Ni 5.850586325849771 2.314893934092092 2.9200224903396257 -0.7302606607080198 -0.9856295686654702 1.893976147178061
Ni 1.4411660517730025 5.353352359913506 7.211589146482034 1.015223223162187 -1.154414263673773 0.2155170660678353
Ni 7.712968281647894 0.05895848704176079 9.282889867551145 -1.1891352120947263 0.10673626241699036 0.657748609581222
Ni 7.53563628356543 1.8886654406187309 5.493882820706739 -0.8326841546822692 1.3678713618887863 -1.0622474144305254
Ni 5.338053713307537 5.414258116833858 11.521756422651332 1.1791104808688726 -0.1285343321286883 0.6299724679092182
Ni 9.139171101722246 8.362937152463362 7.752917128817451 0.8342170463870279 0.0760534886211529 -1.0644626769142893
Ni 7.44256796386566 1.5479211631074674 12.855623245573554 -0.5149474831208745 0.6665934615663617 -2.2826724377774688
Ni 9.075945391692947 3.3758578713402634 6.695721019028143 -0.7514393516681639 0.7962624215201254 -0.11989285440360642
Ni 3.512912129302384 5.152410879188213 5.567601427086609 -0.15333416478118755 -0.7446457257850981 -0.7382927869838769
Ni 6.032912279218958 8.415932707819483 12.383555646474916 0.9067378392645737 0.1791246434817302 -0.6105320997964194
Ni 4.9206950807165635 7.977843570540154 10.074433643912908 1.030997198166992 -0.11078780677854468 0.3753964881667083
Ni 5.3405227397086215 2.96101485055417 12.545965408014066 1.0597701565346265 1.1082812167611364 -0.8703428455753075
Ni 3.999431452366016 3.813602276631516 10.009087366302905 0.47133848818167207 -1.5593380718756369 0.9298520566845342
Ni 5.8103272198909455 7.441794646162679 1.1485649939586708 0.2507481213559875 0.234041607234584 0.630477689680411
Ni 2.879686052610502 0.6163211653630941 13.341327324070791 -0.5376117574876097 -1.6873083039707393 0.719138325542613
Ni 2.0079799768160744 6.767228682143949 13.646853036313745 -0.8723565335712266 -0.41243708585977357 0.534745234573092
Ni 6.890819758409586 6.811624571959687 3.9918231242183704 -0.8038096377397641 -0.5388134911051946 1.1766648475418573
Ni 5.813168929522383 5.130385300274382 8.924823273493098 0.0934796545174003 -1.7779646301067316 0.2583087073120648
Ni 0.5099471226316644 4.892352521048259 0.28427065590787787 0.4015898587326245 -0.6858438251555414 1.452422089347673
P 5.471912212569385 5.322857554589914 0.24842318768834962 -0.1954596331963279 0.07625917687405576 0.14604688709115493
Ni 7.467556374460792 6.385023395255972 13.106630059756323 -1.3935368849756902 -0.6239869397497447 -0.6784063950408896
P 0.7275382266729542 4.634958848005325 5.099774031441306 0.36736461900116735 -0.35709511875435923 0.2883906142991098
Ni 2.1835324124736055 7.5339405748673265 3.722393646251204 -0.9171374373313431 0.811465354512809 1.7567766831752067
P 5.870683269046528 4.742040057166349 4.8264854186238395 -0.5002348595010482 0.19495955363145778 -0.2747059177231656
P 3.4046103825619567 7.294771111788629 5.607596859659961 0.19596485496752056 0.915315810741572 1.0871601185118052
P 0.3389022906452464 3.932702519971407 9.063138132481885 -0.49117017819561865 0.1771019566247466 -0.5647304680812726
Ni 2.254286323756022 5.325335898071759 3.605024516516301 0.52405227363562 1.303937796459619 -0.12306765258716225
