# total energy = -381173.9068835071 ev
CRYSTAL
PRIMVEC
9.17823483518724 0.00000000000000 0.00000000000000

0.00000000000000 9.17823483518724 0.00000000000000

0.00000000000000 0.00000000000000 13.43327443148883

PRIMCOORD
 96 1
Ni 6.828505666415967 2.0012681881501866 9.75423594310525 0.3709037425026773 -0.20463795726148626 -0.17325352941293387
Ni 4.066802375765748 7.21129312338582 6.861098495707811 -0.020583737688622615 0.82169680243283 0.6206131381815054
Ni 0.6030641722753439 8.536767889565779 3.834474638281161 1.0927478970122275 -0.2671928971755721 0.6104860770498325
Ni 4.309970526270694 1.4669297195876077 3.4330480222547117 -0.06437091007690204 -1.2807104505005622 -0.23187853814499418
Ni 5.188667183056838 2.0653781576254286 7.833707767908071 -1.0443101132258144 -0.7680777315557933 0.7694951807286102
Ni 4.31000723920955 3.5128041284464095 12.9559493128714 -0.7424343199560761 0.15295672683711076 -0.8073474756896936
Ni 7.245748216501075 7.349425555827106 3.622672187086836 0.6898637449482119 -0.0062732346032214545 0.34910438723939874
Ni 0.2650196917113395 5.821552357740486 8.185458106370055 -1.6833161520922106 -0.6148335553852508 -0.5627224365123084
Ni 0.1190472111776047 4.831220832131528 5.810831261771405 0.5331331528909656 0.04633539273142987 0.343810228719995
Ni 5.043834639274545 3.424463619326982 10.639609765645616 -0.9626642181185485 -0.29547323217750404 1.3566130153661475
Ni 7.815661522813982 4.892072528283404 1.4627894179082543 -1.6107372522832193 0.8023461658203601 -1.0091518201571266
Ni 2.972619124371199 8.24112777120257 3.3694547873938516 0.8350860792555423 1.0389231378822883 0.6263685526080438
Ni 6.031091456254411 8.912809344021058 10.460839781185921 0.09558718777870635 1.6679571531376371 -0.6346025104820618
Ni 3.714651866270248 5.625119778397734 11.360802407803723 -0.786190124885788 -1.6094465584962538 -0.43211142436024935
Ni 0.7596980902525204 0.280402413091512 7.807889393658415 -0.3968950243601165 -1.7368596325363053 -2.0830771851462124
Ni 8.68994344870283 2.7049450871806555 5.777906180382925 0.10481410569361305 -1.505720543660497 -0.06003654436760628
Ni 6.870826506680868 5.316630131435337 5.38408281399331 0.3084364772063914 0.48863789869206814 -2.968434244742165
Ni 8.286963875362822 0.047965454613831435 2.2996287352825373 -0.7041554789805357 -0.9334066068050118 -2.1409624874987707
Ni 3.7949981329540368 1.0705584752414683 9.888932044469726 1.0907007846752121 0.2088838770220338 0.7008472405429091
Ni 8.893443268775137 2.5853343323916294 8.323216066835021 -0.6338113820393343 0.21848977554291402 -0.34884804825421856
Ni 6.666564893127324 7.601349742248928 6.1926054416288645 -0.5843428429955613 0.7971365965949626 0.7071492715015371
Ni 8.556748906537518 6.222907383536168 12.665992357442917 -1.434751411540787 -0.452983125602936 0.536946870210101
Ni 1.9759270821056425 7.581047487062209 1.331290095694564 -1.0527798412597225 -0.004513828709953517 -0.6440058060738328
Ni 1.8798768558267014 3.5271864222427878 4.785725240479155 -1.0861977545985357 -0.3827830104387666 -0.1804186797028054
P 0.07801683071345006 6.505890716229175 3.5360406652711007 0.9906869285837194 -1.9935811978669085 1.075660859622954
Ni 3.9061098423981706 8.778853008374508 1.2264682304997332 1.7053458781987403 0.19859946437689022 -0.32635166692391543
P 6.359240881973568 1.763533552595755 5.270988605851016 -0.5638578356683321 0.7125115642547148 2.9803919313246734
Ni 2.4303506610159773 5.316088615587228 6.8949101945696345 -0.3669254745812197 0.11069550417505453 -0.0007003685011342777
P 3.5567954074292056 3.03786719495094 9.059037897303305 0.040020763367311724 0.1553283123930809 -0.6169531728314148
P 3.185251287983643 4.295551519535461 1.1637340784080765 -0.2435922270374966 0.2944105952409446 -0.0003905505701993274
P 3.8104909931507738 4.466514497547677 5.3800131847212525 0.027055461455895338 1.1660045396145338 -0.12060453575865038
Ni 5.9429528682986845 1.786093653522046 12.141651739953979 -0.11704818586595972 -0.19733499584216982 -1.4640136508400143
Ni 1.6332485108346875 6.242915935212048 10.04170835039673 0.8061639969045535 -0.2204553839097171 0.1937375082988986
Ni 6.102250309989779 6.7893237824231525 9.017085104250423 0.7172233679080874 -0.13660065407659053 -0.6538865555226545
Ni 8.045842471199032 3.718782071891416 12.699105592643031 0.06110072396606252 0.5282400864647225 -0.20710030275904978
Ni 6.076184123402852 5.267159446328457 13.088965797283265 0.8390561196468839 -1.7633782476521247 1.8363664670843922
Ni 4.302829859663431 6.557665138249194 13.305403257008011 -1.4997787242547653 1.0567483389891672 1.7829258307667486
Ni 3.532638293662729 7.907425513481622 11.474931002998252 0.8673215422504805 0.8641842821730795 1.3695667473133382
Ni 1.3663821582989504 5.4518714199418055 0.33081478508001766 0.2766008207530333 -0.5764372149952395 -1.1544834263488117
Ni 3.5550698993030285 1.2240552725934999 12.373590320286707 1.295460612226543 -0.604970546548242 1.0195151656693215
Ni 5.169044117238933 5.2334661466944405 6.940542541919242 -0.9596519136547861 -0.4588922919985194 -0.4567032547670005
Ni 3.758165877047932 6.1735376590111395 2.342736150262404 -0.5265603847694544 0.2725585323628596 -1.1721579608104395
Ni 3.2508664879519324 2.0228278614926842 1.4140401420498725 -0.4682760472062645 0.07310906128084829 -0.25158372988340544
Ni 1.7392754782474278 2.7480368991615087 7.070133709135953 0.6197423055407778 0.28910949474300535 0.5459596152316726
Ni 5.794559169447474 5.5146872583224145 2.8062783053608062 1.863236809112675 -0.7614242307950178 -1.1833312038184394
Ni 8.383656578071724 4.2232270299914525 10.036469414022147 0.11312905331721161 0.7925680033876737 0.05738136613294634
Ni 3.7610019515744675 3.713651438686454 3.3079844782222727 -0.5146782886198878 1.26175113578924 0.07502016226063209
Ni 1.3452079708144289 0.8193107247180458 12.123825772493017 -0.5286735744577153 -1.672002269741288 0.7497113132334636
Ni 8.967520801149464 2.191569706704182 3.4649515661195562 0.19594608591444318 -0.8871316349978722 0.3734828160837632
Ni 6.0933749570216245 1.0951745007436298 0.858220932963334 -1.1413828844111116 -1.2560407156680238 1.423574054767729
Ni 2.066764071067198 7.983265266920981 5.834944320011256 0.039871896494273265 -0.7556032532378664 0.7449941102634525
Ni 1.0976067329427621 4.609750028489785 11.540001933648018 -1.0092757473295004 0.9179892438086771 0.6242491922721959
Ni 0.8916388855559404 1.070503405833186 1.4696134354178954 1.5309908881915115 -0.04777392495016934 -1.3602277293005993
Ni 6.747884052690766 0.9033576556384011 3.505856204768133 -2.3295691023290073 0.14597875285738085 -1.8302786090190994
Ni 2.5719065750054764 6.14702173892324 4.351695699102677 -0.5634767981798295 -1.0363918868200022 1.246611451934324
Ni 0.2630170008968087 3.3690637945950477 1.5279411170235018 0.8099586880602955 -0.19211385665254654 -0.6554801252620195
P 9.097493782930265 8.621593134789856 0.07785254031207471 0.8755058778334858 -0.257499324036892 0.35363441389926836
Ni 4.379082633664907 9.00150780429432 5.251940097526188 0.7030632743576214 0.5400882440525603 -0.11486943304708604
P 5.21249388037362 8.765305933937077 12.67278975807189 -0.25194188455377253 0.8697455783109408 0.17215592547338093
Ni 9.091197513916661 2.2580476607355604 11.05322048825451 -0.18284657241800767 0.603253049636503 -0.6255517131337033
P 6.64065473653053 5.03183868650373 11.118506189596578 0.927022557655539 -0.9632712555749281 -1.4328868475282224
P 1.8793353399785928 1.1151463394806556 3.374398184610654 1.1471943488865661 0.5757409602591632 0.3890019947652849
P 7.360439437483555 5.7379937089069 7.253498317893329 1.284955598930161 0.5318733123419356 3.0966952686048086
Ni 3.1943560968196403 0.42149849752185437 7.257152173132855 0.7121053299552317 0.3786386492530899 1.1117015552965952
Ni 1.709694027765151 8.539888489368439 10.334432543591396 -0.316835499903364 -0.4881015665726239 -1.8977831796289768
Ni 6.522907163388386 7.556771056244455 0.6799061889454394 -0.5225715753250355 0.2634023197848883 0.5661132073614121
Ni 4.244988624497651 5.314106116889067 9.096583302046666 -2.609790293443447 0.06360677821736789 0.16413536916174956
Ni 8.796383436677688 6.986004174103174 1.4958356519949556 0.19060719020003303 0.02285556444193483 0.06258887847581478
Ni 8.070651239630182 4.408939431188594 3.6515129540277167 2.2463813166559183 0.8482331581604619 0.019602347611959788
Ni 1.5368495116366256 1.3435375320965344 9.527617067612589 0.8228548272966731 3.2893202605658187 0.29212925540593565
Ni 5.321668982293162 3.4046661670495166 1.6134033317367107 1.898409757469382 -0.2082526711959381 -0.016418550567339468
Ni 1.356341169522155 7.30820610372785 12.15281430901279 0.052087978944490944 -0.28137278822037987 1.4832969245496583
Ni 6.723433235413451 3.4415810270680454 6.86108472835574 1.086881925149754 -0.8021872716449927 -1.1724325546280647
Ni 9.07272172743797 7.079998475806245 5.882027746269099 -0.5265508716877577 0.9897258502220311 -0.45248047493490456
Ni 3.896793934163758 2.3391373644311595 5.652103788456032 0.48788276569359845 -0.4381074940426842 0.4034454238841245
Ni 7.267858583926394 0.7399951737926062 7.229399027005549 -0.5980985020187571 1.1083547503115492 0.6681932019533138
Ni 1.6900984966513872 4.042223063202442 8.983677247716003 -0.30927002885128024 0.1333759764917058 1.0298085771755296
Ni 1.5009167227324638 1.0015381501943934 5.703996609703858 -0.4353044773762503 0.5115266303647836 -2.800512926175422
Ni 8.169298906333102 0.2875834639315161 5.16662565239187 0.7224661043642654 -0.21563842213704798 0.605644432686815
Ni 8.218732878501127 6.729848821478332 10.420862144243427 0.004149760502315433 -2.472208249290194 -2.1124810922296264
Ni 1.5981234065853318 2.8017203940019795 13.208763788060452 -0.06308587271689135 0.9996585359547107 1.1476046969511076
Ni 6.085059476371007 3.545487822261919 4.0738824660239015 -1.3430702436847062 -1.5934779509821395 0.29689556644632736
Ni 1.534398922968066 4.988425636307897 2.490824213897648 -0.46861337594102526 0.5288098429252636 2.093068749141285
Ni 6.188801063340033 4.234727358087727 8.916577927194506 2.0445600029076205 0.5005297650336478 -0.13586866100657247
Ni 6.062756366016699 7.0200370684215985 11.570200161503056 0.04012720703818896 -0.15060828120959224 0.13713415798255738
Ni 8.103261507567982 7.933078679506432 8.226846437988044 0.2327552843229927 -0.21711166424846481 0.37487044045990925
Ni 2.3881491378023534 2.8893633572831647 11.197399541725188 1.8662043763814313 -0.3084292781175398 -2.49093153673131
Ni 8.115431846798357 1.3544871661099864 12.927752858007421 0.5887183463554377 -0.3219363114650391 1.3724607810316813
P 7.526593020505787 2.5237575556973706 1.4020708061597276 -0.27226645504373753 0.4835316878137544 0.33383511978515407
Ni 4.102046797066382 8.01552676193966 9.281371455008138 -1.3276449102685717 -0.8805020454964965 -1.0543921800521647
P 5.444336089241852 8.228773867277923 2.9103861038949104 -1.5059048917571614 0.8999398425061339 -0.8038484613974994
Ni 8.41856140468795 8.565945497720653 11.432240279874387 0.130223289795337 1.999378521274976 0.22438351531952969
P 1.8220723335997764 7.265490599370258 8.172360765433595 1.3099732040204213 1.5791419939754416 -1.221032317913639
P 8.612066127157028 0.6795418130273054 9.512947495069673 -1.106624912104636 -0.7543338996071396 0.1920763185463918
P 5.435240458640569 8.819861361075349 7.789780736568271 -0.2853569696791085 0.024907047654324846 -0.13695289520968673
Ni 5.088918128188273 6.771077451812304 4.519894192819124 -1.5282495780009486 0.14729258657279795 0.8884817212678634
