# total energy = -340898.2729612652 ev
CRYSTAL
PRIMVEC
9.02462550108336 0.00000000000000 0.00000000000000

0.00000000000000 9.02462550108336 0.00000000000000

0.00000000000000 0.00000000000000 13.20845164396689

PRIMCOORD
 96 1
Ni 6.358615886745997 1.8392096895377383 11.268381365403064 -0.822230563449113 1.299011305692279 0.5251961574320761
Ni 4.571730976917383 0.25527868422801414 5.87600417417946 0.1834512958815421 -0.062438211830563424 0.5291931944066113
Ni 2.715130833688806 1.6676876538096228 4.8026323422509005 -0.02310264745573441 -0.8609655181254655 -0.14945514144175553
Ni 3.477892196402703 4.208950049092773 4.89670323544372 -0.9678992412652427 1.323187131607534 -0.35240208415406404
Ni 5.1116382330191525 4.780578864469738 2.5703379343081347 -1.075426889235277 -0.6021009383099308 0.4777240799930418
Ni 7.156979397778711 6.009895325735257 2.561000154114097 1.3718326605293794 0.42810538852464974 0.6647088429491391
Ni 4.989336505765263 4.57521448243096 11.481750590422523 0.36275257415045264 -0.6412817222744503 0.02649470385641889
Ni 5.62080761404516 7.874482262693149 12.261999872784635 -0.1981189251960459 0.2723518156686922 0.8272472999374141
Ni 1.7445503907503972 6.632197414321385 0.4883098612226835 0.05517870205467272 -0.8365544362709529 -0.8460112108084785
Ni 2.725752818117512 1.6420577168703483 0.3205095811261722 0.2063382277820446 -0.07534437836927023 0.40045008870122645
Ni 0.5487631212843445 -0.009377488547042253 4.790943647066483 0.6356839164716988 -0.0011847643367205402 -0.2784890389146817
Ni 8.765727221253684 2.4724766983285207 1.223200472440257 -0.37590145282758486 -0.4833378266353934 1.140477341877707
Ni 6.916617517341868 0.6857461095990831 4.839444692873786 -0.33316868984574877 -0.09442196382601158 -0.4335417290488727
Ni 0.9297169378464949 7.265292955224193 2.6464588470177794 -0.9122497702217385 1.126281767103615 0.2947831480890149
Ni 7.468987781511644 3.762691333701865 3.850844779834445 0.6644075096586364 -0.34834205515207756 -0.4930044031908799
Ni 7.548603029285686 3.7098250764517706 12.602223748714978 0.13035081651213679 0.47300379169923695 0.03328884396011686
Ni 8.141295321006407 8.611974673495087 6.91296073901518 -0.9795715353968483 0.48904516143281584 -0.13495386250178693
Ni 6.840657242969377 0.8161456334781877 0.2653772403671155 -0.6384578796724101 -0.44692226412083674 0.7075107686060137
Ni 1.73456013011949 6.4876770586363355 9.398421166313605 0.0941010901514831 0.05346454757704341 -1.4080152810975235
Ni 0.13376029448339538 4.85188243198988 1.4208993374240273 -0.3761806746309005 0.289618830279256 -0.4878647679714695
Ni 6.483345238308571 1.903925280309406 6.945624469211662 -0.12784553359177983 -0.05779865617602304 -0.3808634248185505
Ni 3.226294656990721 4.418673325336364 0.38445356640195694 0.8345091237061499 0.5749084370555388 -0.4126024077930443
Ni 5.994770053090812 5.469780503242782 4.804455316638835 -0.42166323244373183 0.948548861763089 0.1908643005161616
Ni 5.342244493092843 3.079978400794786 8.939215722918092 -0.09535784537671965 -0.07986772016092052 1.174196845617339
P 0.05859869948383674 5.661012321462226 12.348489177941298 0.6938150162864761 -0.8247942104112311 0.9295874901692378
P 4.092180417382466 6.195919934935701 12.509038171301645 -0.4678446160958007 0.41626854379072176 0.8284081530147345
P 2.4534888858918187 8.432474868663338 1.3620822419986658 -0.0983619223103661 1.3439171650660338 0.7923867406148031
P 6.357171946636742 7.753443983034859 5.809631662132423 -0.6378248740741015 -0.3437171547855565 0.7721570438314895
P 4.621601058440773 1.0252245514480232 12.529617025246232 0.9178483473554386 0.45224470477501466 -0.23779258963658403
P 3.9808616595845967 6.12605128289913 8.194509928807857 0.28764936525771106 -0.1444538315724222 -0.006648101444136938
P 4.687210087155043 0.9996216883857975 3.7625198658138914 0.3527388986681925 0.5626568733816955 -0.435399865303534
P 0.16817209467464436 5.423682715254819 3.579873174006535 -0.7331431244621374 0.6559058999455285 0.5359585381549028
Ni 1.5341412429549106 1.1458657475762697 2.530924686563454 -0.10567491103201156 0.2223960525758557 0.7031185530755891
Ni 1.8191298973934125 6.236413430374618 4.828507749008749 0.6562594266302053 0.3831799887668691 -0.5023382789972961
Ni 6.030164635018922 5.613461568739326 9.134172906619414 -0.4875840035062571 0.06718523959724558 0.3295105242678712
Ni 8.596425243443548 2.30719067894725 10.21223303159021 0.055293373255666065 0.015177479071386763 -0.43826227445299354
Ni 2.3974098618986317 5.074285307317865 7.093599451608104 -0.20277699279334754 0.3891315783646137 0.10169741444150228
Ni 0.5403133642574985 -0.03258431349047325 9.137395600450757 0.13941909736199215 0.21457064299416595 0.5931702114792043
Ni 1.4017409595619197 1.1401892580217614 11.492277816281561 0.30903400158107425 -0.40473148968539974 -0.9432315633152337
Ni 4.040126376443828 6.904641839060735 1.5711584525807964 0.7123778668903279 -0.309739255178215 -0.2773279287270449
Ni 5.585277662731807 7.982543130619513 8.071935657858347 -0.17283829625238623 -0.47689232812036586 -0.42140663634823555
Ni 5.216693900593129 2.8239948933009416 4.891736983930452 1.2440544898404253 -0.7952110974374756 -0.18485460398697195
Ni 0.9530185213595957 7.211758875673568 6.76839345527658 -0.42648816463620093 -0.03000451678189026 1.0313296418057465
Ni 5.139749942021209 4.523223613872101 6.990374880585176 -0.49317795265426667 0.616615586986338 0.12837620928426924
Ni 8.067176070273216 7.191552738769682 8.985406464550588 0.08676316172917316 0.8174002319400051 1.1850949805870816
Ni 4.641653776708051 0.3149116058151047 10.291405170243227 -0.2278483339396786 -0.8240876712625098 0.2767345181174202
Ni 8.04309836895139 7.139895781361089 4.662385146826678 0.781183415699816 -0.4538585862293539 -0.304906609676262
Ni 7.251422105549663 6.056922650168552 7.047342830208122 -0.6311322925452743 -0.13626435378309437 -1.0062639570863703
Ni 2.3311871586379294 5.263044378100211 2.5978513106274184 0.690631733462488 -0.4803723162491662 0.18644483129222728
Ni 2.1996803131875398 5.357658553759138 11.554291434123785 0.4064412732876549 0.07419946613154962 -0.37545459509815343
Ni 1.0099819586697012 3.409007228565562 3.787867331969293 0.11493731017054398 -0.49391225971713 -0.23967695114349044
Ni 3.702515129648668 2.7988703353999065 2.6507644959310634 -0.1025232527769073 -0.606910186773116 0.36871007728546823
Ni 1.1536539995405632 3.253783666820661 8.140395565825827 -0.6058442074024468 -0.12098660168841742 0.35115921288589846
Ni 3.6685825370811775 2.678878912320825 6.990995774832156 -0.41552652341837476 -0.3874559904344037 0.08782734132762939
Ni 4.036218713523157 6.781663264880632 6.018774654944607 0.762412562850216 0.09974594714208629 0.22990238825522985
Ni 0.8866072034221217 7.461551489948981 11.453273384080312 -1.0059626237958674 0.9238027651666605 0.16730528224929894
P 0.1438083127186729 5.64540874365659 8.084867043999294 0.8260090566549387 -1.6999876992106207 -0.3342500958353856
P 8.476027712208738 1.4900469218685393 7.904730100594335 0.511307572375442 0.7886522132730354 0.6471582356598855
P 1.6376356502857552 3.2352290364167358 10.354409691985426 1.2976121113519072 -0.4927053838932225 -0.3949754387399004
P 3.9721889943033846 6.217930996976157 3.8587828405850737 0.033759098728316055 -0.7060048734844485 -0.4516302111194674
P 6.872162211228183 3.9645180624729686 10.490813299331325 -0.30478756759989445 -0.5601654744184095 -1.354848467266557
P 6.3783707923657404 7.651889870225825 10.210635672844347 -0.9701697824669743 0.7788606811039103 -0.5708952021310878
P 2.4958685280984496 8.360350060206056 5.798417662258922 -0.7478732315834604 1.0348307129804695 -0.2379082892788419
P 6.807004413798055 3.8370542493284923 1.542297699647064 1.0164475824875916 -0.07852509009009702 0.425488519727093
Ni 5.067390493296173 2.953137286822426 0.5841586056750234 0.4811593309268358 -0.7190460229391229 -0.8220801539141778
Ni 1.471546439218711 0.958695010914104 7.075939161609348 -0.11202476450943934 0.6164618350172931 -1.0033529540871624
Ni 6.773847939039291 0.869708591830998 9.125851299277265 0.6328443901403746 -0.8496624344078205 0.19312558574651253
Ni 2.8353027492815444 1.5366681381461067 9.181961006997772 -0.5644029095385248 0.6777438217562264 0.31281146634563545
Ni 6.404533182220303 1.8281454984505727 2.5262093196441686 0.2669854091504563 0.43470232501587713 0.24777798298407003
Ni 3.9897238420051493 6.773902086793387 10.307770426456493 0.5909474927962726 0.854038194878013 0.28548449639590834
Ni 8.265185382380476 7.282927073808469 0.4011265623510096 -0.45849762766326196 -0.3189504893638378 -0.25854036370689665
Ni 7.718157696614942 3.763007195600765 8.27808067001869 -0.13271546008957144 0.19718870007229264 -0.4651824958826053
Ni 3.091782611187945 8.342246661086273 12.32201904835095 0.5500882926880655 -0.18525029676349386 0.4990711782102501
Ni 0.04727730656471008 4.774063084726725 10.214056005978145 -0.29157801088815594 0.31976758594849447 0.1047552274312196
Ni 8.675769752447104 2.2474386323011455 5.741397369807014 0.3687725550922875 0.44025847894741593 0.08912446287249812
Ni 3.5915122337496976 2.622213287658253 11.347751143358533 -0.10394173039098872 0.08002507167439121 0.10116005388079351
Ni 1.123990054921058 3.433572259674261 12.466837216683533 -0.7628982442373828 -0.007853691716463895 0.7643051518872386
Ni 3.03897952631763 8.441598765228692 8.037224240094428 0.9511307635576522 -1.1928170318216875 -0.06470926725292726
Ni 5.7356640251107045 7.861351432324613 3.584695031508878 -0.9132599566538079 0.03369944913497422 0.01986408591377869
Ni 3.141363904689485 8.352074478454888 3.632113122234241 0.0059215076907575435 -0.08375959901615898 0.022663760146102902
Ni 3.3723311497904875 4.424385913393603 9.562192853505296 -0.08588178756548435 -0.34094216314358056 -0.7803694044389529
Ni 7.136809359377557 5.992432675038955 11.414030701761037 0.3464404672539904 0.09812538081952779 0.3079286843320374
Ni 0.6272692425619647 9.254392652728272 0.47068025495124954 -0.6056570310923053 -0.550460845536136 -0.3178973655089751
Ni 4.624723578927037 0.33132649746962795 1.5342802221904264 -0.2109811258706947 -0.0833065706391404 -0.0390843675959714
Ni 6.126592760440101 5.621448362468643 0.49720453229569367 -0.858564879103773 0.749253913981071 -1.5536106824735567
Ni 7.854745406324772 8.916862627564258 11.309710541180213 0.6376119867323471 -0.7960369357728807 -0.27083743590669485
Ni 0.0662958027287336 4.7933216359339115 5.934808635128865 -0.07342890651411225 -0.34074933040648414 -0.17098941596910552
Ni 7.8890119100425276 8.80294477756973 2.474709390722456 1.2625857158753933 -0.1289333673393199 0.42188691841876375
P 8.521647195035511 1.585590633972799 3.5413181681642927 0.17973193804842597 0.37472440180034816 -0.041529229592038155
P 1.8834845031377665 3.3175245980185815 1.5821612762133186 -1.014675063968201 -0.881618932709759 0.18690942963347165
P 4.787518801619844 1.131119509210504 8.120965546730666 -0.6161304198198034 -0.7301200213650975 0.12936865510452558
P 8.483112043369772 1.6936785757762107 12.380612333059378 0.2091139907549689 -0.20131634908742102 -0.06290898081939489
P 6.3605832551448565 7.840522596248611 1.3784339612734091 -0.7991415428401334 -0.8153801161861827 -0.5511303607993346
P 1.7529252433840756 3.228009335870461 5.971144485515697 0.07948025491451473 -0.14450499652533175 0.008663074991636693
P 6.933737232262221 3.835005659298487 6.058742917168782 0.5138398518789925 0.7084957582271024 -0.49144734311640526
P 2.3917333723441234 8.491631290014375 10.228783292629977 0.2770811028235615 0.6132955214741695 -0.369617419591086
