# total energy = -340874.35933113284 ev
CRYSTAL
PRIMVEC
9.21018707067154 0.00000000000000 0.00000000000000
0.00000000000000 9.21018707067154 0.00000000000000
0.00000000000000 0.00000000000000 13.48003975790095
PRIMCOORD
 96 1
Ni 6.450557063457171 7.794047035709771 13.425701508806322 0.3975285441790573 0.42370237436094776 -0.3147094546992967
Ni 2.7642165723746053 5.981307247893328 2.9238613480929874 1.2237690001185118 1.4764793874071926 1.0314612822876044
Ni 4.351030473995419 5.930715690907084 8.72062868490769 -1.16954392022636 -0.3909465200861654 -0.8670119814298617
Ni 1.9948528146303903 5.159012545674337 7.408009417316751 -0.5873309790896077 0.43977022645708774 0.32070192483730575
Ni 1.1815104141391666 2.1213086816285953 1.8232836098513685 0.8997122998763603 -1.0296044315845236 -0.6787082425520247
Ni 2.278112114668977 4.845921450063486 10.019268730726608 1.0404390603061822 0.9819390071877604 0.9178401198253225
Ni 7.9880135731447455 3.983497963247904 9.418004700332554 0.3320160642985443 -1.1976831016647373 2.513696598341968
Ni 4.548238997241272 8.761798220631068 11.83710543600822 0.4610697592658124 -0.25843777669076134 -0.27653962849779473
Ni 5.762335052854557 6.991729229012928 10.227333301345423 0.5609887416506532 0.4147621344485244 0.7567077991559548
Ni 1.7282455326204087 2.5686750929690048 11.574029339679747 0.5332503951951204 0.9693452296831498 -0.39447407362344966
Ni 3.056768951058581 2.8576262885505552 6.4530834177410465 -2.364388524001038 0.7351213312344307 -0.4201143998993732
Ni 7.286215746959076 5.6899061425796935 11.739470086053773 1.1281640717279924 0.7292229634721248 0.8441343055007398
Ni 7.7002873324292365 4.9309867368512075 3.193246422490927 -0.15699104480748444 0.33328901747369694 -1.630940980924604
Ni 5.224893013018704 9.23754121800363 7.219207952730471 0.37587265647217843 -1.0050509106148755 0.2106610235271146
Ni 0.9559068844872338 5.16798326777603 13.05053835816019 0.20795982254586765 0.31741811187971136 0.09263813245271142
Ni 6.755580035288675 0.6526762150386752 11.783509516034735 0.3613230407927777 -0.9579693837460406 0.4554575552853576
Ni 1.9707958062837543 7.14968393542365 8.846936267895796 0.37687590092571227 0.1736286533641655 0.2122769618639828
Ni 5.98658468502297 6.809864877246974 6.914262346469454 -0.3638656047089734 0.6518047332929613 0.28414006655287194
Ni 6.730196760019408 2.7982942641366852 0.464562751418512 1.890405656217983 -1.4981807836400263 1.0839284989483848
Ni 8.126516364690193 0.19376851841527604 1.12910813439605 -0.43330852999214403 0.6889965118519101 0.02684591654825054
Ni 7.883091123265389 5.03681178505291 0.6936247062749477 -0.7953316821757399 -0.02528757092219516 0.1763331967795221
Ni 1.0464890732656276 3.21180402820212 8.997212441435694 -0.5525856051886225 0.13001503043927287 -1.0515410837566148
Ni 1.4013852075002848 8.946241424746585 1.7347866074013356 0.3694942637496604 -1.4893621569071318 -0.21502032893707484
Ni 0.3144192045708761 2.991533196801605 3.9294719275432595 -0.29837292232280227 -0.6590776128052908 0.699281438717686
P 5.68198538179175 5.933211651573982 0.8032535616922555 0.05260734178307069 -0.844052801530527 0.5181433643503528
P 2.921812081493781 8.281625123329434 3.2537582718547218 0.1618036357047794 -0.00016763592611584034 0.656670803136011
P 5.775625352641768 4.813022662232635 4.706003052781867 -0.6789427271603339 0.8288439550005725 -0.49116786420277353
P 6.976560051085321 2.8603432937045588 11.78007135324155 -0.00021314445207060067 0.4101058666234356 -0.5552376980994889
P 1.43548131963629 1.2764582315378916 9.670419084232979 0.06771103019372855 -0.6581993239653955 -1.348128117823588
P 3.7973416643573197 7.367550908026894 7.020889601955609 -0.42057874113030147 -0.47181465648714227 -0.5167655101662196
P 6.6044132366694805 5.442631043004471 8.718309559830477 -0.6363390335571945 1.7833945428730513 0.29320269097577245
P 5.474240404660541 1.0445180932556046 4.8615631105822805 0.5224620463303647 -1.0733306688278805 0.12289153202061417
Ni 5.829366793569266 4.447571653738696 6.9051230779463415 0.2930260561885921 -0.14900211306473693 0.12586424149569292
Ni 1.944602034561766 8.572049948825022 6.865222705986428 -0.778278326237879 0.06157252139615847 0.3241351188885708
Ni 2.4320603897509145 0.26270492579387517 11.194876336041363 1.0334135209179687 -0.5801899971694524 -0.20901731727610454
Ni 8.840241382992591 1.7341676828374406 10.758069404053717 -0.7177620140203769 0.44472705624173087 0.26544788946000736
Ni 8.70102019686405 6.356327640641538 9.637594898916525 -1.1317060234429799 -0.26536741393105906 -1.5608429385559377
Ni 0.6123291490110687 3.582366690460371 6.407548253397337 1.0417374674026318 -2.0773235704918873 -0.9594084301854123
Ni 6.896182749461626 8.76268239857949 9.254572695735101 -1.4285815352846492 0.6996143965770725 0.9447821956318052
Ni 4.714059203318162 6.367361444622882 12.366750131561432 -0.5220514411555074 0.051365498956169604 -0.6797953049686164
Ni 5.088646717279124 4.594096518128677 2.656821187295758 -0.33465298770075913 0.1437642617045653 -0.7550034148703384
Ni 9.109289364547694 0.7451041252843991 3.387614524077476 -0.6935357944831604 -1.2224582517268883 0.2496942261701764
Ni 4.552153326700431 6.72848366524434 4.376429406582524 -1.4166529021678633 0.6440374306427167 1.0295769207806977
Ni 4.626378223433025 2.0256424696467774 12.336676108072048 0.40262549908599043 -0.3434297054521247 -0.8050355397270652
Ni 4.890600067019662 2.348652936616483 1.7231937450713544 -1.1673880502256218 -0.4307266281975808 0.29612732082173515
Ni 7.631118828339177 3.961411934911291 5.225834294126295 -0.7547640451660227 -2.2323855165974584 2.053936044805882
Ni 6.451017572805307 8.097485855383686 4.73323297053716 0.6618232938712278 1.7844633504571976 1.0359301166922352
Ni 1.9319932886097966 6.7923471016438715 5.503050790498638 0.3992007896751577 -1.147481798219998 -1.4009835710617227
Ni 4.3428518279725195 3.004749815093114 4.410183820782212 1.090986691346747 0.17586808421764552 0.029188448638498118
Ni 3.758806242105281 5.1217112884753035 5.84433887349587 2.3680484893511284 0.9057775322338335 1.8900097063311447
Ni 3.223731220318848 0.9714905208281633 0.37707334342220095 -1.2812156722717547 -1.0278360268301912 0.6277600336389317
Ni 0.20120390235028338 1.1755237926133957 7.533684260460515 0.3956146149857961 1.0258688758014913 0.5508737647038383
Ni 2.689144338441439 1.45600161618924 3.6846476587188173 -1.1157055342496658 -1.6593863807494906 -0.4743191680765508
Ni 5.003977468530799 2.3817082976257007 7.393113781941936 1.0260773922678716 -1.121742484472365 0.9226198006021529
Ni 3.973799636376155 7.653361429854156 1.436944818344667 0.7923456029642224 1.1241487799210124 0.0035974875432712235
Ni 6.762856082989228 2.241704245605328 3.599656053426797 0.3475830654988659 1.0931567024148723 -0.40904451523845686
P 1.3874594048126454 6.434162930663522 1.3664178116776053 0.4949311878999476 0.7874504796554502 -2.2539316181993505
P 3.4869675739004724 3.8954209453233712 8.25384167333768 0.6726849191760802 -0.03809629265108923 0.46193159304547543
P 1.1039237991651765 1.1796867971205471 13.33074816529542 0.3956727219172412 -0.008667960087643136 -0.23542151830124616
P 2.9559542445646003 3.2647165523029713 2.598425838895997 0.9207732343117174 1.0863808171436193 -0.7529316199429742
P 7.854382970502578 7.9902608587636506 2.945564232651951 0.4965867212254995 1.4251547689912873 0.022153910389219912
P 3.67685399851096 3.8969498363591835 11.506426567373351 -0.27094156558472693 -0.22343426403238295 0.535419377821981
P 5.271404457180462 0.4201042579307453 0.4343468910499022 1.1299409611227573 -0.19140988860698646 0.17640698744025102
P 0.18039901102018538 5.001030208702727 4.654549422295911 1.4618513530813728 0.8166625824430321 0.4070578238257312
Ni 8.078015520144488 1.4473071996964282 5.593583244267434 -0.36627138593698855 0.32005015018591976 -0.6832392976531588
Ni 2.653206188912889 3.364462877109276 0.20354421085751162 0.43572639540501734 -0.7359569397618487 -0.23469492454786675
Ni 7.58660599474833 8.78584601879074 7.092307233701966 0.039926403881292524 -0.6199752474871904 -0.6825101327966181
Ni 0.4249110545065911 8.860715628610727 12.028238919933463 -0.7823000458027624 0.2507838596899294 1.0323339147005446
Ni 3.5293528543029296 0.7418133254826176 5.756300538356581 0.3059926436515892 -0.7471684922069519 -0.8378065635104991
Ni 5.394452555002459 4.163649220238792 12.843310072517587 -0.42113281386155854 1.3793953033679858 0.4946874473202576
Ni 6.058009684918897 6.851900170544847 2.804036815707944 1.0449783429374326 -0.1944147368715813 -2.0170512559643905
Ni 1.113032674071311 4.422391002582607 2.1238608244359662 -0.7946894206060506 0.5803810301343358 -0.3272811207167202
Ni -0.052522012173631824 8.863626047690948 9.246471415282688 1.2500834696433245 -0.7638055865430008 1.2984762591244154
Ni 5.826106387384461 0.252220969974206 2.6986363571252223 -0.12678855308217518 -0.87731799134156 -0.6371507308252123
Ni 0.43638878949953824 6.724440393167705 3.256723952056719 -0.7846613469460874 0.983569600812648 0.7609246654507799
Ni 0.07736188641209936 8.46900637708606 5.451854124228942 -0.3302993387177537 0.11064433922214492 -0.6984244900340295
Ni 3.3766571646479226 5.422202848321147 0.7924334340484469 0.5189563471699514 0.047085383523576975 -0.78323129936778
Ni 7.991034514468518 6.367075928827038 5.503887075474854 0.0036275694502582684 0.9348212277643513 0.22503940373597373
Ni 4.27811342381153 2.307225515658149 9.732507717604793 -1.496643006839261 1.8585314332172056 1.1205690329895541
Ni 2.558534677123045 7.451658335370493 12.866981174030485 -0.2519375136783984 0.3590447862815623 0.7323861916914548
Ni 2.2858486717176656 4.443684954840426 4.501295595310963 -1.9023175771642207 -1.5893284475901404 -0.8835593442655815
Ni 1.068363267302098 6.738964858007921 11.204838074260246 0.7126408907437275 -0.08843232190147995 -0.06830392658272108
Ni 8.27180706402717 4.760386443740665 7.409668171988737 -0.4830161816299165 1.7547807357911005 -0.6144584314340192
Ni 3.0463614397907026 0.7889390891147893 8.117369728017513 0.22817306426894898 1.2794675792323966 2.003978996161465
Ni 6.704224032784524 2.050519184633096 9.67240019544866 -0.6429953625314475 -0.8178095515632818 -0.8378798399505957
Ni 8.885463400979567 7.233008496875417 0.4006431328785087 0.13187316669393415 0.16141874156153493 -0.33761464143224434
Ni 5.6556258267044335 4.547870589762764 10.477428560168633 -0.48186946961998306 -1.2554403630798636 -0.35991433337070916
Ni 9.15629815880544 3.043708905945438 13.276612528365916 -0.8340594377632411 -0.43095134261387713 -0.22622673917585556
P 4.797512707387407 0.33803780801808636 9.502579084155164 1.1632632294239706 -1.2423930429776022 0.2644279328359252
P 1.3661101914330505 1.4376180830116423 5.6871744011265495 -0.44431696528750575 -0.3368911330026585 -0.9218309861522704
P 9.19257708525161 7.374633541801229 7.603173279056879 0.39254420359058845 -0.4877410979094116 -0.915967585392958
P 3.37685057857414 7.089320370069955 10.659031342624846 -0.519275421072267 -0.2308009888100993 0.12472627123650777
P 8.32735370159936 2.5095549028552773 2.03291114919776 -0.8836321064850459 0.44688935400037233 -0.2270564341660025
P 7.2425870913166515 2.4054337392416785 7.338466058617308 0.3140733637771946 0.8467938546107738 0.4251483627788549
P 8.015505981228477 7.874580910511832 11.167161041433134 -1.811616770943538 -0.6768318514649182 -0.2456221129833318
P 0.24486387262838186 4.42581719213274 11.015254664800832 0.49861455028880586 0.3018544531134995 0.14369252792636542
