# total energy = -340898.39875200967 ev
CRYSTAL
PRIMVEC
8.98652118138950 0.00000000000000 0.00000000000000

0.00000000000000 8.98652118138950 0.00000000000000

0.00000000000000 0.00000000000000 13.15268212044833

PRIMCOORD
 96 1
Ni 6.4381235321466725 1.9433262272175342 11.155486413513186 0.10022802898482738 -0.30062392314050806 1.502117913910903
Ni 4.627645048118503 0.3233736755224945 5.823547028415734 -1.0360699847042092 -0.46246535406175837 0.6740432329761876
Ni 2.5990187614845146 1.5117575321674077 4.905831798992478 0.7159041348760316 0.397891841055747 -1.229485590887315
Ni 3.305763722800049 4.362551658661489 4.843146320225149 0.41378614368850025 -0.42964496509762784 0.03146284649497162
Ni 4.878189259720984 4.462436842017356 2.800916237768928 0.427357968835664 0.6113818493912245 -0.11100506499567334
Ni 7.014779612287261 5.976315193192589 2.736191717336873 0.3098621539093244 -0.45863338191017783 -0.8812522933989597
Ni 5.092517790808472 4.634492777287838 11.397864573283416 -0.008070178602644166 -0.4098888655166231 0.2926373053906057
Ni 5.78544148248826 7.912371324743465 12.345791588394851 -0.9683365859129776 0.13688990318223518 -0.42087570354542997
Ni 1.9497785494532078 6.542897383046004 0.2946096184027951 -0.5832992322223954 -0.8698769616824825 0.3475815228369691
Ni 2.4648140535909904 1.52837360990245 0.33304856426751717 1.3003765614709217 -0.7064926117541446 0.818911526378209
Ni 0.46037498881955835 0.016591814127749648 4.6501832433372625 0.2338264058999844 -0.22602850712212041 0.49840629093274164
Ni 8.470200642928988 2.4696398154859165 1.358685622973331 0.5827281902102738 0.34447794421098094 0.19907588979267649
Ni 6.748571894199015 0.6942024736493371 4.669899670893068 0.47074250646888605 -0.013321399699254475 0.23903031869842703
Ni 0.792286758152796 7.284851534499935 2.4588146520247847 0.4095057711455915 0.32813986917258975 -0.3317486695697706
Ni 7.468913462119806 3.7917727633985194 3.9375970432289877 0.906458103240626 0.19947569633425646 -0.5641823088872864
Ni 7.439302874701221 3.9390618461877827 12.685144197297918 1.359293390411788 -0.29246761258196086 -0.7584389229144486
Ni 8.012957456754462 8.87959060360914 6.812208146911377 -0.6296569935513284 -0.2694189582926134 -0.13927228737148273
Ni 6.912917394263082 0.6613189952025724 0.48564868109756465 -0.20843521952038943 0.2658407540230518 -0.42688617140556806
Ni 1.9178314665175258 6.37623336050728 9.126804410447635 -0.12198393260468023 -0.2290762928095087 -0.29214493913521944
Ni 0.09627619643407521 5.018900208977499 1.3956049480998183 0.00750993522379997 -0.8791722709414794 -0.6916858857586152
Ni 6.310640742125411 1.8087081393479087 6.84035483002329 -0.018434295445787608 0.7785089541914463 0.9820963587012312
Ni 3.4460792651229015 4.359190699725357 0.5139858784593331 -0.0687268730527526 0.36441684922675305 -0.1178421425221648
Ni 5.796800445309836 5.545537312009786 4.960099603333405 -0.16406286405260134 0.22814812456828445 -0.5386754228654336
Ni 5.303152861674703 2.658734194988764 9.132394026646228 0.19047092173248487 0.6367774066461936 0.05254614952783209
P 0.18720631139460972 5.529316641208407 12.303334768892846 0.4283355022575849 -0.673262131835789 0.4352952214048697
P 4.054152223447215 6.231748072338533 12.479120110469463 -0.5091270197843554 -0.19504928513178668 0.26911171146483975
P 2.4350327222692325 8.42104437185777 1.4769671139178435 -0.5825669820420613 0.6877348715306671 -0.14854419959171192
P 6.213370636444448 7.770950440310602 5.884299506468726 0.5300532284140612 -0.32959459934124524 -0.12487642366112685
P 4.722533725676272 1.032910748980959 12.532624959158847 0.24638547351191759 -0.3020282596872024 -0.019556324865372773
P 3.916972977030003 6.09998769821674 8.157069804292595 -0.009124330898771384 -0.1715745990486142 0.20833983159310573
P 4.620941103288681 1.1383496024505397 3.753854137112412 0.3486865829756898 -0.36824959270928187 -0.2410074970294559
P 0.18454270650511992 5.489847840011919 3.4874729791646284 -0.4612319958752895 -0.23753162266571354 1.572936379385362
Ni 1.2668029367635187 1.1112192948885635 2.5622216530466133 0.5845721853975481 -0.6660141920241239 -0.5712903806869774
Ni 1.7247021389870771 6.5817281412359 4.690259533368196 0.4585845309501134 -0.08457181050480919 0.3058990554965183
Ni 5.973313695105242 5.511631167448232 9.089134710799312 0.2861139024497911 0.3424532004714682 0.8831435968844016
Ni 8.610866659579406 2.3680921257044227 10.114780756026345 0.513101173940755 0.18414369396287641 0.16640899568727469
Ni 2.283573893634074 5.161399475956715 6.930463576944353 0.16010336518422105 0.19376938997809856 0.2907434308020025
Ni 0.6815692221188216 8.950736892104722 8.912731096562785 -0.3865424774811988 0.5318936240569098 0.4486839840069498
Ni 1.537701618928396 1.0617215360110004 11.305927069294164 -0.3680706439292564 0.33143705186662276 -0.8477361639193851
Ni 4.043017923656129 6.884286337657432 1.5976956345904536 0.6241121524736993 -0.26405126622279684 0.17444780683135117
Ni 5.558846349936016 7.741888030686412 8.062883872694199 -0.5176774804575278 0.4105226424458801 -0.6817010066317615
Ni 5.40395467019497 2.8658016169308147 4.83050677812978 -1.4627581811663581 0.3969438753201809 -0.12323837383707162
Ni 0.817207280146872 7.436597931814121 6.972763132325016 -0.23398375741345512 -0.9328173099604451 0.10029513477733694
Ni 4.932252171378104 4.444715422172301 7.239683481545976 0.8618034406457286 0.0973818177852839 -1.0961610364588348
Ni 8.130626965603918 7.098363246150772 9.037852228807536 0.4671835854730342 -0.023055082047250614 0.01870477549835488
Ni 4.620707453736971 0.36723958155173375 10.368785676950495 0.6843045056928796 -0.6274823544975128 0.40131423647373465
Ni 7.9366529050788275 7.149406686678106 4.647750592043117 0.5898182642878359 -0.3236170416015717 0.40919466766307594
Ni 7.221793115101994 6.1214564974103665 6.917758433244081 0.265599070325891 -0.4523136103397371 0.16383300742998239
Ni 2.336684234041917 5.163735971473812 2.6267745309233748 -0.18321398305975542 0.13688296120369975 -0.39822557024608196
Ni 2.4404515945646517 5.080691528883476 11.37917440645089 -0.6201652520108094 0.4209399811244622 0.5845649863086965
Ni 1.138700076778104 3.2732325159850926 3.678831063362694 -0.8859892938633127 0.5434335063757093 0.48573255211981503
Ni 3.5567123278574115 2.616803086978105 2.576926297718247 -0.41236380941967693 -0.4484515562811696 -0.03490246830413989
Ni 1.0669876374456866 3.3712754624909413 8.203958776060109 0.06246058042806662 -0.10293102973828724 0.10946445998143084
Ni 3.491973428991405 2.748329811548188 7.080773029515524 0.26169125063105253 -0.9655531096305694 0.05721501575841114
Ni 3.996979975448112 6.830286331648849 6.045630028663616 -0.036837480543323656 0.4961933424418228 -0.3076368641232315
Ni 0.9336636086316836 7.200423167641783 11.17734702503199 -0.7298076323310012 0.4439513544179709 0.20211313395710354
P 0.19768549378878664 5.474049535707859 7.840405465512656 0.42584616017682786 0.7056549463441976 0.9760761206490804
P 8.327602524216358 1.7501070344748895 7.932540672968739 1.299997066644316 -0.5007079424827248 0.5647646637533177
P 1.9104804921598921 3.1725924648467787 10.249306282727408 -0.5169508867041485 -0.21907264462957754 -0.12711611162492303
P 3.93912475183632 6.228171436893131 3.7762800008159267 -0.3487655158427413 -0.22022269907362071 0.3528075471225989
P 6.925058184430763 3.969166692273447 10.45375143777758 0.244526823036624 -0.0026500360283373717 -1.1478949744980165
P 6.372620778977 7.7861286746505085 10.081518046384113 -0.6099561726882915 -1.1548624069547853 1.4719280205910843
P 2.295202452092238 8.464476228912103 5.84235581732836 0.6994699005794083 0.48770998756116 -0.25468448029591617
P 6.627864941177333 3.9821522154357702 1.614136475161714 1.105936884898676 -0.008586199007114244 0.6407934697841223
Ni 5.325619164723707 2.9487472077877332 0.19708609282343925 -0.25647988163344215 -0.7467542874876688 0.3543381248345123
Ni 1.4094459880822483 1.2790156191009567 6.937277157333054 -0.51304306700931 -1.3232483238627726 0.9104556544357932
Ni 6.979561435627644 0.5839944733685141 9.101432765088337 -0.5979041266197638 0.4951728715971085 -0.23606789363599345
Ni 2.931627884864393 1.4021848789368105 9.144625580678229 -1.46921602097656 1.5061347483797802 0.015964493749056376
Ni 6.358359169801493 1.9815548884857177 2.5558295405031113 -0.483438870989632 0.021963648755284754 -0.22155838716590873
Ni 4.1218117417095925 6.884268364614994 10.266918067013584 0.4559416940106276 0.23180911835963947 0.3462067539766296
Ni 8.0954537215504 7.108724705116972 0.33335770059747144 -0.20305312927286964 0.06987049973889257 0.110174598674578
Ni 7.579321861823827 3.8388531480680097 8.140721524889898 -0.26775416899568083 -0.057110628970062936 0.2384266236761571
Ni 3.112158109644961 8.280513153025646 12.341135671750974 0.9208025448877561 0.6825751817065987 -0.26197278642721333
Ni 0.2370842001197621 4.923822814474118 10.05317365980537 -0.6900154400347278 -0.7666654245892991 0.5369131887586883
Ni 8.440590055510404 2.2771575174832788 5.798188862838264 0.56527322795862 0.946247724433738 -0.6986335207210419
Ni 3.5535850184729902 2.6787202181811574 11.587105433082144 0.5962244249244957 -0.03244192257878929 -0.5139624934997858
Ni 1.0804224866689904 3.2013762923131615 12.392878263629195 -0.8953985029923547 1.3670259831693552 0.3255826499683747
Ni 3.083545026081751 8.22095049038213 8.071577433322043 0.409952628875023 0.32249244107882524 -1.2013032149158278
Ni 5.638772469663149 7.809152142015127 3.7034667126341088 -0.9120710785520293 -0.18402259500397986 -0.6528444874113852
Ni 3.1852095406390992 8.418456253746525 3.708503657777695 -0.2842192565302396 -0.49780850944774274 -0.3920238123107442
Ni 3.693442248213643 4.347571127788413 9.529867860189189 -0.562184047510335 -0.18789801879898607 -1.4499396892454512
Ni 7.203640342238399 6.088538870182968 11.280568903716693 0.36613820279323395 -0.16178435243106976 0.06531039117203591
Ni 0.6795661265389725 8.834190698407715 0.09698163834981391 -0.2259133217004948 -0.1013783405391867 0.7354344915994754
Ni 4.515376438522026 0.34864107723564713 1.5872658780629845 0.21826069025124348 0.17284960910629585 -0.2383212084465444
Ni 5.935103006879497 5.644200328479788 0.36936669112441334 -0.38120512442868537 0.6687225920942225 0.4385911185473221
Ni 8.0332400351471 8.751631527963239 11.237033701668336 0.18408661547269586 0.25464282842470337 0.1860473387434925
Ni 0.15544075618756348 4.851427399529012 5.748392751456209 -0.6943423495448559 -0.6484982946275476 -0.7788889632386844
Ni 7.944444218976223 8.619835207756568 2.6044016876950558 -0.8111138847106611 0.7600000967539815 -0.22673890292558369
P 8.38477477221546 1.6512103684531785 3.5871838240088354 0.024046756536558585 0.3227060997515281 -0.4747426287672147
P 1.7703446802614313 3.235570005553744 1.4693123951429874 -0.6728427849101831 0.2713981935061713 0.1393381076124116
P 4.737846757834473 0.9192582151166628 8.034907933485458 -0.1543363807934568 -0.09182540674342894 -0.05381447471729442
P 8.560146733815976 1.5949547456184752 12.40796393680054 -0.7458585151462768 -0.06981393546934428 -0.32516741680782707
P 6.241588313073995 7.679692317325552 1.4469134910031314 0.1843216143016374 0.08145100548764038 0.20936621597509106
P 1.7029008385083244 3.1894511786547506 5.987574405628627 -0.13315743272299646 0.7220272170546339 -1.0535437160089403
P 6.80030729686026 3.9691397327097877 6.087508116199079 0.40336391991391174 0.30074425076845623 -0.23177569401854278
P 2.3865504402894837 8.433949016329118 10.154173171792468 0.7306075025244773 -0.21021776534210893 0.09549642783711294
