# total energy = -340876.3837291105 ev
CRYSTAL
PRIMVEC
9.17836895280626 0.00000000000000 0.00000000000000

0.00000000000000 9.17836895280626 0.00000000000000

0.00000000000000 0.00000000000000 13.43347072618418

PRIMCOORD
 96 1
Ni 4.964891924110026 8.938721906871288 6.138518970044724 0.892056068882683 -0.44379837377987436 1.2852242792105155
Ni 8.82713129505297 4.555766120375735 4.4144807309282195 -2.449102516510666 1.5269809957011702 1.888530550682457
Ni 5.711735819788302 4.159297287664431 7.327219651592946 -0.9071150200983344 -0.6955502538100279 0.9057842171020529
Ni 8.817475650733767 7.269580411326632 12.815947718921072 0.15221393513381526 0.7806689379572427 0.6460164087459583
Ni 2.989101116108553 4.879450485928029 7.1661117383467765 -0.25048869704701376 0.47706484914248815 0.28379579583957576
Ni 0.7884329218561971 6.682210679190325 3.600909173876333 -0.9026395008254842 0.2636424608201524 -1.0831201441144764
Ni 1.8196116789752772 8.395582735546995 2.081623828867855 -0.7836789284281599 1.209501434455904 -0.7791249905088904
Ni 7.29436200796337 7.837115687784423 5.428506033990114 0.9516508977271803 2.9399533636936526 -0.7376422978840714
Ni 6.615750108358244 8.713328696275596 9.731139158764524 1.001770440091391 -0.5069282123608237 -0.11515533971862102
Ni 6.579734187912852 7.988466994651017 0.38170267246345846 1.2734005471027101 1.8897019452827388 -0.6055153633081184
Ni 9.266756819388696 0.33156858463042566 10.254399818238504 -2.1505568160554254 0.9441682161968901 0.1462788005963029
Ni 5.687624244097669 1.2407135815410846 0.10349070106575405 0.6396788965637048 -0.8502365617437356 -0.9647375557078094
Ni 4.674176260453719 0.3647291144411181 8.821492105062744 -1.5479470564298758 0.19886763043661235 -0.627780602464222
Ni 5.7132961425395035 6.794388706632623 8.507994811401975 0.010388542323175657 -0.5541087267013682 -0.4961164664573005
Ni 0.055331798268360446 1.2185661768431408 2.1082089750375994 1.133219631874029 0.3550976287083562 2.1756055314939373
Ni 7.9108547053324045 4.981917798836377 2.00521390590458 0.902309114069259 1.3894125783946716 0.7708750917952724
Ni 3.401090571009755 7.794684087320854 7.737679072361057 -0.8955219159440965 -0.7917041127254816 -0.026911479678863332
Ni 1.8567932522995085 4.477079961869531 3.845169440044794 0.9220623854367862 -0.15201081798407368 -0.8630265144195525
Ni 5.059227201973874 8.676128766213115 11.819143789847882 1.0596899381159943 -0.6356630905360924 0.20177683366360732
Ni 6.635400996654265 3.799450147760751 11.409449845064772 -0.7636135251368527 0.7335043644562981 0.16025891692547883
Ni 4.0314609624953635 4.733064676757907 4.878687763453765 2.0643122458338836 2.1800370849027297 0.589174717166566
Ni 5.269191574070915 7.349652503570669 4.275041111511683 -1.715519990518265 -0.21987868547064066 1.42662698266144
Ni 8.846176410986759 0.4203940875087058 0.09645364545783301 -0.7170341347154168 -0.3508509376168603 -2.424099566708425
Ni 1.6133645463737465 1.8168673466069865 11.446405630508536 2.194396438948195 -0.7884634943009969 -0.29719304308208816
P 6.417937896982329 0.4771723967511218 7.652000832255642 2.4715065952374795 -0.9579357022946277 0.6820529906545415
P 1.2555825395231273 8.510661127632705 7.13399295343174 -1.1605872252537044 -0.9976772438586238 0.9229239621061331
P 7.66734339408452 5.446618627620833 7.932827721016979 -0.7117991115687226 1.7141135970890413 0.4431190883246627
P 7.564270308813942 8.982025452401706 11.717787977440539 0.6953080558922348 -1.253119685366487 0.5916625165854261
P 0.17194206016098593 3.477032397147669 2.7170808725223825 2.7321665763905396 -1.0279188163519846 -2.214618936642657
P 5.715049211042325 3.4171435386088858 0.27566680963942025 0.45885706788520975 -0.31262351870454547 -0.4738458279845581
P 3.797256517539943 3.461924801568383 3.2667513713158245 -0.6990184148642865 -1.4450111415955822 -1.780672773066514
P 4.943469610572935 6.807926801091582 0.3029651150901555 -2.445415811687698 -0.4913982350460247 -0.22816946472452315
Ni 7.408026931203873 2.2025148821202487 9.209894069150332 -0.7409371665852594 0.14854522803297643 -0.27019286034416046
Ni 4.2546146510246245 4.775624774389223 11.328835311205466 -0.5733256659494513 -2.05769911139274 -0.15388900884339302
Ni 3.3007985315839647 6.51541217708683 2.427696990226072 0.7032753903684275 -1.0801510341838236 -0.23038035633291293
Ni 2.0291538460925813 4.028422922315082 9.702109812896868 0.6337075094716184 -0.10138476829708991 0.7353146781921595
Ni 6.02906875390629 6.557412394201538 2.385381037213474 -0.3293560009678779 -0.4905618551876584 -2.230512725054778
Ni 7.652703895330596 2.660166723416921 3.5953076151995176 -0.7589505724435445 -1.5117484950221318 1.1305325719601689
Ni 3.4420811675207434 1.801860713088073 1.744900672136988 -1.4324322764893072 -0.13862848313989673 0.6461717033769001
Ni 2.511871813468858 6.921600902701211 5.2314097354059275 0.14660558780810234 -1.9796108517297457 1.8361816047670956
Ni 1.2890835868283466 5.827456697712742 11.122859858330026 -0.5061591954052831 0.004850643224081969 0.5156537651592796
Ni 4.0484409453760914 0.91496408293573 4.357603295299256 -0.7778016437117766 0.822920390427286 -1.5182091630458112
Ni 6.359077015785514 1.4144417523337405 11.225707155720139 0.29265761710557986 1.2935327990762109 0.21291305278608494
Ni 0.7120340129358723 6.058228432615518 8.382002420590062 0.788939662606467 -0.7417156966224967 -0.911432930747398
Ni 7.876775420772328 2.928468809670668 0.9906672714764012 -1.3050847655798685 -0.8569337712582532 -0.751275315286474
Ni 3.6746885762484633 2.507723190624485 12.903103676455565 -0.2871526281269506 0.6092938565139442 -0.5049469202647369
Ni 1.6144751290378374 7.87055248650577 9.666980522908922 1.177757309275088 -1.0564030398346063 -2.870837739842914
Ni 6.8200514267053345 5.467673806392935 -0.04871419412943901 -1.6499092944969906 -0.5396583556039932 0.5847076825341478
Ni 4.968131888411051 8.788159939749418 2.351649612843224 -0.1817389411761257 -0.08972841500508418 -0.18669782784329783
Ni 0.17558403702967387 6.862125070773041 5.9724005850933715 0.765841643136423 -0.3961818003431758 -0.10427520247100751
Ni 1.4041069086993085 8.982392587166693 4.870989865268864 -0.8865731913912409 -0.13303376266093864 -0.04143615565759961
Ni 7.315756786393086 1.5358073272698822 5.977868139580965 -2.4754288131100206 0.4404369135068092 0.40442192886478084
Ni 1.513641565833689 8.377758342706793 11.750928314839156 0.6365452360307295 0.9944980747996935 3.1147372137081843
Ni 2.783166048057262 2.983190246392234 5.4653140476909705 -1.566310389428412 -0.6136657603293948 0.16278708266397124
Ni 8.878704551164757 2.939326820345209 11.526670468504193 -1.3533114617967401 0.4242914140951983 0.4296961300505374
Ni 5.885647557963453 4.206593423764102 3.195473074530179 -0.6459122790679264 0.8102564218063724 0.49083747744654815
P 6.622808274215151 3.971535390480082 5.346279778512507 0.27154808882047426 -2.22099630092391 -1.634319924699166
P 7.602966313043751 6.403702246469892 3.7597059737768985 0.7218084161756084 0.7380125367392968 1.015243020656529
P 3.0508164701031544 5.967243259482193 9.163091729309574 -0.5303561043664609 0.2888744959140638 0.3992563255034415
P 3.1465743951813336 8.165517735066821 3.7652001455349544 1.3781449759006523 1.3783262386735229 -1.0736906232704606
P 8.500702597132387 0.4345728321325697 4.609977239773968 1.0194765991219024 -0.13865856504688376 -0.3470451907175249
P 0.38940057064835926 2.5521464971881187 9.470731387794947 -0.0750517868295159 -1.4481059784708221 0.29882929313393053
P 1.1109406204867014 4.874227993896064 5.978324304526464 0.6124550278507451 -0.9141557289951999 0.66021995393985
P 1.88372258731143 0.7160568921232359 0.30896960417154584 0.1655121949046182 -0.10363731177669248 -0.33094340005965583
Ni 2.4277795955481944 6.4788088410174565 13.485996200132833 0.24287926013087202 0.6723486188825839 -0.8368917650057136
Ni 3.4783632606707524 6.880500165760725 11.064680012122265 0.48992139339018204 1.0980479690689025 0.21175837035635142
Ni 1.2942234735381886 3.042932251025022 7.6092415640143205 -0.003347833426310363 0.3908488181660365 -1.0616833143969393
Ni 3.803506986913876 8.789068598292767 0.41887873876621495 -1.1530173833262465 -0.3467903943942415 -1.0642626450883412
Ni 1.7113803502566065 1.7298105154590395 3.650774335494012 0.6515985308194262 1.06295241091735 -0.5942989257670088
Ni 0.9259873042545159 2.6705933507426 0.2261513438853934 0.6186195047902442 -1.0600756035901873 -0.13215058872503693
Ni 2.1707210114722266 4.305683096834553 1.250959394995007 -2.071655573572832 -0.13512149842790278 2.154459236433625
Ni 8.331884853821453 7.947256117281035 2.002017079938441 0.11127888748235029 -0.8133332609594832 0.8309298909953237
Ni 6.445234366759239 5.966967908408451 6.010310003089193 -0.11223765185119379 -0.6103202408959296 0.4576432500827667
Ni 3.657662701522112 2.8704156249568284 8.283575425770415 0.847817667889598 -0.7115456007970198 -1.171761496702969
Ni 0.2905045611664388 2.184919948508165 5.577859209898258 1.422612719295724 0.15708720406571655 -0.8668260906713008
Ni 8.070521614625994 7.629115486680072 7.819542782258239 -0.7335745555726011 1.058117965643184 0.04160430580434771
Ni 4.237478635868777 2.014450098754784 10.439875383673886 -1.3124993128763847 0.028985074378440404 1.2802743914044081
Ni 1.998020818021539 0.9868766050278929 8.976756150687205 0.7898017534964462 0.542239228957292 0.1032058806662287
Ni 5.661511783937848 2.0539262643601943 2.1953915498425554 -0.12484145665813338 1.2591751475319477 1.3797449733979206
Ni 8.512937363175634 7.1123457698510935 10.131160938164006 -0.5201843060397815 0.4827770690359169 0.4618832563060432
Ni 8.513350389786247 4.519199497782861 9.718323401955681 -0.2975478553183456 0.15425616237482465 0.2624168159431674
Ni 6.040238829131072 6.318637121422008 10.973896763109684 -0.19739953053151807 0.7593827748849566 -0.24839016264677222
Ni 6.468694278242017 0.4378825520389429 3.922049295507254 0.012711019808765205 -0.20828892375051225 0.20611814135143858
Ni 2.6767520364252855 0.9011460482184676 6.653678800929227 -1.0431130075939195 -0.45634072922125923 0.5713551724866418
Ni 8.08977783304965 3.5584812447604133 6.992658918627862 0.39819497411846266 0.3060440657148149 0.3075270780182445
Ni 0.09823424906802823 4.8986057422913145 13.265417961979969 0.3398468731968728 0.07264549138086844 -0.10343316618568639
Ni 8.824790810926167 0.9091422433999214 7.717528880784652 0.89547717874909 -0.23405523408133883 0.4758528311122579
Ni 4.065650387484937 4.807060688641381 0.5029489286009788 3.3316231350990884 0.6009328861437585 -0.9446816654981989
P 3.374032738830087 9.079132597741218 10.618003664624931 -1.2865921060923196 0.6758031530900878 -0.3674394381031607
P 4.335733077348879 6.385978815690062 6.307955335434661 1.51774302204267 1.2995106139262007 0.7394343567874879
P 0.7142102042553428 6.521901284058006 1.2955093630525616 0.07783937687698207 -0.39662762963134274 0.4702833074442804
P 2.1006441632050072 4.053635902300682 12.230651380370038 0.28458229629661314 -0.2546950218188775 0.1267427874459043
P 5.506525842897864 3.4479002535458148 9.51625701649046 0.07662221664042933 0.5350277988105173 0.029930211900529094
P 7.215391320014298 0.6677437927245471 1.8692409565064507 -0.7680491923107031 -0.45165257971697054 -1.1660721596276757
P 7.98368506433704 5.751276233977586 11.659191433274515 0.3630603351988586 -2.1369186564467 -1.4465944269223021
P 4.398017490229213 1.9330196078802886 6.247383606233001 2.458398082879979 1.1905652596730336 1.0139266158379507
