# total energy = -340869.46972083143 ev
CRYSTAL
PRIMVEC
9.26890625471432 0.00000000000000 0.00000000000000
0.00000000000000 9.26890625471432 0.00000000000000
0.00000000000000 0.00000000000000 13.56598121917710
PRIMCOORD
 96 1
Ni 6.133151715310738 1.0207104724009382 2.7871035098988437 -0.7468723011227718 0.539764027943922 -0.3492900208876436
Ni 8.429041206899772 6.197079360360313 8.69066627605068 1.7678650797788844 -0.36152924326631286 -0.6995537185424662
Ni 1.7905209268452373 5.228645518099958 2.5674434129042294 0.9932521182077344 -0.6471656918590531 2.1148624479776092
Ni 5.978360984220714 6.564322687097909 8.868976856250939 1.0870894131748696 -0.36467318821193323 1.2452068582773137
Ni 7.621311657791443 3.292630572936151 1.2500130123627946 0.11696385368226954 0.6975945379335664 -0.2762475511786726
Ni 3.280738566469774 7.731797017946719 8.678374779733405 -0.6857877751066254 1.6446606445035417 0.6454533371536367
Ni 4.971479719651292 2.5962947367763207 0.9188563175624914 1.923082320515398 0.17435833244133842 -0.24834491123113359
Ni 4.857379486135232 3.066117046805731 8.600519676448148 -0.4241978259401275 0.35377711012471974 1.2601984465901395
Ni 5.687632476953067 6.082135656393403 3.0209543020610514 1.2260601101455335 -1.8691696296573421 1.157530697815568
Ni 3.505305622329002 1.525402407002844 13.324995099357002 -2.472530665626619 -1.0222359070345943 -0.6601047685182245
Ni 8.739215879067231 2.7692710615429093 5.813877758070759 -0.5281624391492518 0.09075762760054691 -0.024653022661989803
Ni 0.6010857768843565 0.44386473862715825 8.179024515690012 0.3494309173408821 0.4115927355816073 0.046591217495977826
Ni 7.334123872636155 6.894963103831044 6.650749674701252 -0.12297046488766564 -0.8888126222447209 -1.3521184699299036
Ni 8.099540865611193 0.824640668202565 1.667991550164311 1.3862596345879867 -0.4348509347785995 0.14822409724813182
Ni 8.456282521790406 3.4110871922972597 10.660065967037243 1.452648346425866 0.032912948677936864 0.5012977535479238
Ni 0.9476714927009745 8.344842464311641 0.8602036069478467 0.7361654562282289 -0.38366618437466826 0.21239497549908584
Ni 4.202670307060749 2.1877213579470824 11.098477808233246 0.7181433086191955 1.0538219093709915 -1.6081026428738499
Ni 3.9231108315873215 0.5048318950833106 7.245970087835084 -0.7797369130612765 1.4667166515934738 -1.4627013597864937
Ni 6.302642931401289 2.804075803773032 6.89680946991686 1.4578592012028442 0.8761373407698976 1.171793378382169
Ni 2.4379076701376174 3.910069480770336 9.476556428716233 0.7466756117309334 -0.3344113040035983 0.7082728435830189
Ni 3.7518585233466455 6.959558110116456 3.844558706566858 -1.5978526830110675 0.355593080287536 0.5071578118731267
Ni 4.107395221738931 2.9502557211395453 5.98487702517618 -1.3888687900760597 -1.2951173699545113 2.4026694218591076
Ni 7.014420765045909 5.909863768486865 0.8764177043068755 1.144864158091493 -0.1556630700246803 2.3968972952620207
Ni 6.914344386388483 4.701643326627771 4.9606582718340695 0.4071382993546795 0.1701831180177263 0.595039146367143
P 3.6409189867947593 3.9626705226227843 2.2842264271021726 0.3454181966370632 -0.5930293150259657 1.7747268398957243
P 2.8067730554345403 4.897680689654957 6.08606567256 -0.4072457714668212 -0.37146321455057313 1.5693368349595618
P 2.047074977494386 1.4775192383315225 6.661900168683366 -0.11611847496283872 0.2337158484640491 -0.2949970638720339
P 1.461595257731962 7.673097035911202 4.479364763673101 -0.3979728308053275 -1.9249607684850332 -0.4369001039981444
P 0.9338515537755118 7.561925776707983 8.91510171344395 -0.6911210143940808 -0.1474334830260364 1.3639074921450318
P 6.207720064509496 5.891919166367686 12.62581741660123 -2.0273197277699344 0.6452188525453274 -2.6386712381438553
P 6.6709521823350135 7.855416417979512 10.707846250851373 -0.27092202520070113 1.313947358176821 0.0527171278880576
P 7.606518483730384 4.763494736721408 2.862679389185594 -0.23398247186187443 0.29206986292290993 -0.21117190172526212
Ni 7.471312951130972 8.325998778305292 8.46603989919271 0.36523523136299035 2.09181790745332 1.0231599615107605
Ni 6.849944027130191 3.8106233877245352 12.638922722869983 0.19088152690734222 0.29942373218481977 -0.34006053186957563
Ni 6.298610957268105 8.088779665683317 13.309896051396183 -0.4265717254889428 -1.4004469818319623 -0.16123285080297392
Ni 0.7343114711507851 5.653411675804302 10.584951679271947 -1.367140911480665 -1.2986109849300667 -0.40284764239912557
Ni 5.178686114472699 8.968398850141 4.525190235200592 -0.5456762796632989 -0.3790032316813602 0.6684739664185261
Ni 3.955292473404362 4.450168636495828 4.44357751740133 0.4213094486487389 1.3147595696654713 -2.750540965132669
Ni 1.8937023890305156 2.4758174958955936 11.498470960728952 -0.567886240101435 -0.018253804003865337 0.3787276094224703
Ni 7.2441227948586615 5.723373378694571 10.631428754894984 0.21861190294307514 -0.7497799616878701 0.9439897816374968
Ni 7.296121357817646 0.9053793281610005 10.754675544904435 -0.20990640474927721 -0.11106985679533773 0.24012766552766387
Ni 3.3533697143033927 7.029732997845952 6.320499478912961 -0.3665809467576074 -0.6023079121144144 -1.0157281878230635
Ni 1.0415747799269048 7.567598347212599 6.827269502252015 -0.713811514013061 0.37087571747821935 -1.4062391630337072
Ni 7.079766552721638 8.028661541021647 3.182932142904801 -0.18934503565815777 0.15483748879959142 -0.5640987480345446
Ni 4.9457492364473445 4.786731884197018 10.584477111282018 0.048304086422026486 -0.6454728775376625 0.1726655181199478
Ni 7.884483707362645 0.5919494161876239 6.5782659024738805 1.6992209962479252 0.39460519988467524 -1.25814824892933
Ni 5.015228956222844 4.885649649597782 1.0221045158713538 -0.6594787048984514 0.4789520388628719 -1.5068330599983857
Ni 5.13570619710357 7.954389796816595 7.347185615046458 2.5880796412392333 -0.3727611074263903 -1.849726433331066
Ni 8.800066247307113 6.422341584173538 3.547626520477741 1.0795488818234504 -0.3013823985730874 0.19956825604806275
Ni 0.7563835171354961 0.2613136339075157 3.6047257624378535 -1.633050828178755 0.0689101927081523 -0.7034805644006981
Ni 1.6549168312855334 1.349163427305495 1.612398505437859 -0.1503347158332314 0.4869527976801614 -0.5570112450601439
Ni 3.3789611639165393 8.308452739146405 13.1491120456521 -0.3157990882190497 0.6764276740479641 0.7617692728392622
Ni 7.9138939462697495 1.9400098436727768 8.639657632258185 0.6043524533482688 -1.4631088796375578 -0.015464671294502401
Ni 8.772389293831974 8.192711909258913 10.829654506641353 -0.3244199971188413 -1.2590622761031671 -0.6471988590898338
Ni 9.24096030154419 2.3430682234003046 12.943913295881835 -0.49862457759113477 -0.12183043774595147 0.47964623671641915
Ni 2.8291945391774607 8.885571905648758 2.738565029569554 1.0733826051117383 -0.5347454916834081 -1.2739893297266447
P 1.3335545895117467 0.4450919417886145 12.617854499410845 -0.14501947426790507 0.1452002228201435 0.5990099580894329
P 7.795530015969174 0.6095974133130971 4.168717377296924 -0.024463018138370773 0.8612385692811942 0.4848578628243457
P 8.011245266547506 7.760057912503215 1.1523882593564665 1.2844002406473234 0.6081589715785527 0.7156745353637287
P 5.573977150927565 6.884869265139006 5.1468650331011325 0.2826066606274811 -0.3598863083462512 0.251122988196903
P 2.4804334111101345 6.598089311850063 1.076224731425937 0.47606648978496074 1.563446951837688 -1.1096621562690632
P 4.211364540938739 5.649453852919545 8.575165510829965 -2.3557141361554916 -1.3805589846587836 0.991217604276209
P 0.8699415196474384 2.3653135979282123 9.521948115440429 -0.6032725900205288 -0.42698027378127107 -0.28248376189637153
P 6.353149200485692 2.928631363317208 10.669874323422839 -0.6897693854621927 -0.28387318604473044 -1.4908914490674645
Ni 1.99391780127874 5.692674761846059 8.105497064641039 0.10729342047204102 0.29519683858766577 -0.7276229659748567
Ni 3.786728147919141 6.070568061638892 12.5842111511092 0.4166246415785599 -0.6098391874944529 0.8495243661680595
Ni 8.402689706990254 9.127304975518689 13.080020693040234 0.2811501306866126 1.0848121871049188 -1.4936147615358986
Ni 8.664480689559515 8.238769103437734 5.107890210037632 0.38512631385996254 -1.2526165204778235 0.3572355009869654
Ni 2.209429135923899 3.6036394466484074 0.6968650906954739 -0.21348358057757427 0.09217687654557673 -1.1952084148719995
Ni 2.7330852523108464 9.206720962583319 5.060110853114108 0.6424724001484419 1.458229440058069 1.4115541474887172
Ni 5.676046344386449 3.3436559007595394 3.0326479539378886 1.2316211491730786 2.19034360903506 0.07367470397633119
Ni 2.945537847958418 1.507263157856546 9.043408399267895 -1.3524614550916192 0.23573185045281336 0.506078976986651
Ni 5.99517477980139 1.9953822884351604 5.001424774437671 1.0439488732316535 -1.3583258842921961 -2.0759783693179017
Ni 5.092207220995458 0.29692755163609064 9.340598260945294 0.5336219196019261 -0.3630960735328005 0.8862078376320222
Ni 8.072281012908451 2.6405723009929103 3.4104874940756114 1.1243765796611023 -0.31684835541917045 1.0292403633768854
Ni 1.6123076701585366 8.972551320052876 10.459358002249802 0.8623582847079342 1.467832253255156 -0.545134548227216
Ni 3.9825708639192086 1.9807003412467414 3.765604311023682 -1.4219396044880994 -0.9642323339366169 -0.6140213438966006
Ni 0.1496362924337871 5.889472175169616 1.1844197448954428 -0.11049778634195163 0.2641641376515773 -0.31968453931638496
Ni 1.452761990263172 7.230617998739011 12.064837269318875 0.48986688600316275 0.42571426258465395 1.2128814066717304
Ni 5.219951284221968 0.38152207651269693 11.962102568405365 1.6307571470485722 -0.48944933884976993 0.5666228000079789
Ni 0.7556976180875524 5.016137309016067 5.4214406177897025 0.8630974768668039 0.47172363943523277 -1.765202702455373
Ni 7.355015986880281 4.064174312812416 8.593139773448515 -0.8756493453898855 1.8830571862727117 0.10365376683692472
Ni 2.914644584082786 6.1963471167821025 10.360583904892865 0.8359553692343732 0.2873698863440793 0.6805725494542731
Ni 0.7608400071659204 3.663136554604507 7.617745909632741 0.7214284071283704 -0.8211237035381793 0.7177800117425057
Ni 1.5719137775782774 2.230803233282797 4.406081084853331 0.6907962840648103 0.32800462914630607 1.5726718128700656
Ni 8.560400143487067 6.24506448699822 12.565665923877766 0.39601467863769213 0.01639078265319758 -0.21985040333586653
Ni 5.209644260690704 5.241306843768759 6.756591312923826 0.07709349984989304 -0.38611490302547696 -0.43134317873565714
Ni 4.726335692353748 7.443042787668423 1.5072483276068604 -0.9453154424274558 0.8897407904859451 -0.2678251314429323
P 3.640084785249963 8.703196910144127 10.98995004103643 -0.1479998970524677 -0.6824455981072698 -0.959577865883741
P 4.487494521172446 0.5419594251703885 1.5888879252336765 -1.8559778135574165 -1.237989771703584 -0.5355700444672324
P 0.9019331488903856 3.1664992993629144 2.6751165869629348 -0.895367135533787 -0.026032933728651942 -1.1480867787938487
P 0.8542807759797914 4.366526028270895 12.46435585382465 -1.1386482590887679 0.4371970664132729 -0.14936052484542017
P 8.491791700880578 4.888634237346942 6.748994517522545 -2.7172356661123205 0.09453560658574041 1.0526456296747033
P 3.9096523799979375 3.823386671359922 12.449635904121411 -0.5983846658006081 -0.2652206039405497 0.8076806906593961
P 6.099987569452049 0.6846477456266259 7.426452372723631 -1.457213082978413 0.51683390151031 1.1204438202655993
P 7.04953138117579 1.7120410992919897 13.432084332334348 -0.11581817011360054 -1.0308316191234055 -0.686180896779986
