# total energy = -340890.23426431324 ev
CRYSTAL
PRIMVEC
9.09066896350922 0.00000000000000 0.00000000000000

0.00000000000000 9.09066896350922 0.00000000000000

0.00000000000000 0.00000000000000 13.30511292699711

PRIMCOORD
 96 1
Ni 6.346605189399498 1.959321005058352 11.185528360452102 1.7719130245960129 -0.08224624769542609 0.5994385609864192
Ni 4.668904022859516 0.5425065879858062 5.832203314050104 0.02196981940287184 -1.020239702540172 -0.2625284018203672
Ni 2.8397886715375207 1.7022277918126694 4.623300681243343 -0.24253344675567906 0.3759919556588621 0.4227528659634848
Ni 3.6587852334600144 4.481054436263964 4.808441248442579 -0.6843330449379698 -0.019096611620134853 -1.1187800594099313
Ni 3.733483261579239 3.0025480113752456 2.6934334441180914 -0.10686636023695144 -0.48903590546143516 0.27340931039892913
Ni 5.2527340654420795 4.659695175045864 2.3799517194180173 0.9567830767474232 0.27735955329592876 0.6055472449873185
Ni 5.42996575051113 4.8502446903686165 11.01620828471397 -1.36023698527198 0.42972235530278247 0.7221282614088725
Ni 5.846163854610246 7.86850137797485 12.168444231591414 -1.290897932556525 1.0857434406699364 0.11992525030343862
Ni 2.0807178004221245 6.594725912228523 0.34618086150728483 -0.6010817530167971 -0.05018176306071358 -1.0602522383773676
Ni 3.2259421142110507 1.8017615279544952 0.4679585559069822 -1.7045699192646644 -0.16855149595157423 -0.30704139663107766
Ni 8.023479105050003 8.939418562416503 6.7232334289741695 -1.1069164752031257 0.6602721473340241 0.48943185534827327
Ni 8.814503678105165 2.3066391092719427 1.079952400475206 0.057821796104474604 0.844894580705532 0.6069042732358451
Ni 7.0928491263934115 0.83388889606694 4.717380924982988 -1.0960882742393703 -0.28882435940241874 -0.1012346158724708
Ni 0.7368605483332507 7.656597880900599 2.516968102455448 0.25886252293300577 -0.38584365164196127 -0.25783922387481406
Ni 7.684769864488462 4.086401217967764 3.8494083832025994 0.21635396014683383 -0.20288009403011512 0.24612836319578904
Ni 7.596444923365622 3.8522164908922707 12.45869475136771 0.32237545588498673 -0.9893604964628122 -0.0930623644743236
Ni 8.343097940469718 6.79140253853489 8.817471781571264 -0.41889981076598176 0.949806388319274 0.5592619887675335
Ni 7.043859510531844 0.9967373244619937 0.3108527031919716 -0.4760762599769736 -1.086888095797341 -1.0374969469587227
Ni 2.0490640905631565 6.792211608086139 9.03190975719482 -0.5078383828799189 0.023963709904449054 -0.7125868975773405
Ni 0.21504705045427047 4.926524494913877 1.2200214302015056 -0.381286371288582 -0.015512750923618446 1.1712822430737055
Ni 6.272407148081608 2.1740153375509546 6.800256850253051 1.6769963805217698 -0.7570952644023606 1.788398938066178
Ni 3.82011733824666 4.559388732029251 0.5030758106988238 -0.35272038672543127 -0.12104522284049476 -1.6238061696520358
Ni 5.9685606235766855 5.689331631035602 4.657654319829511 0.27659387877449787 0.36755102398036055 0.3207872854622605
Ni 5.746257401034699 3.193170252050919 9.146280374399488 -1.7080018277643487 -0.8746766970639711 -1.188184932366315
P 0.2965539897407452 5.6992404603711195 12.507058929194157 0.5693954776571097 0.40269620442292586 -0.24609571018564066
P 4.125036561707171 6.315278743628675 12.386993916855754 0.3460949109891136 -0.5229058187360026 0.9048061694594998
P 2.3154025142989516 8.51479340804764 1.2159769915121732 1.029081212091202 0.5222064786761329 0.40583423583127526
P 6.1332926386123985 7.965326094720359 5.6175253447619085 1.7531126040600582 -0.5178191482417146 0.30402857794668287
P 4.961787200411562 1.057899346268753 12.594447531398135 0.4586413523299778 -0.956190951689379 -0.1092060641137216
P 4.181680520963698 6.23576266087842 7.855778077481279 0.7581301334247782 1.474972720954679 0.5658892642760641
P 4.756665342497217 1.2692574031960935 3.5527043974214543 0.5316097742679038 -0.3047245755724429 1.1685887554019423
P 0.16694377483143072 5.757202566649345 3.465915779379075 -0.4828729711838329 -0.6123233873688874 -0.7553507709074282
Ni 0.7215618612793572 0.4693367013448396 4.406360953479298 -0.3357673038108604 -1.7409091200153308 0.9178519468998645
Ni 1.8316880106815838 6.472592772666424 4.546862699055478 1.757829035699121 1.639860652011737 -0.2785031799820687
Ni 6.110575056493628 5.535217517526389 8.626130468968581 -0.19973666330512696 0.5578846488040328 0.8603160574669249
Ni 8.851648152109687 2.470098430631535 9.947235594396048 0.608895592634261 -0.35713908461841715 0.5060846334136058
Ni 2.4913796870301113 5.5288449584766655 6.677410093165411 -0.7816621551084474 -0.718690182261601 1.1424964291902646
Ni 0.3846516641357069 -0.05765302352830948 9.147358527756545 0.42347586017243843 0.33434368399045644 0.0674246093015613
Ni 2.0028198567743662 1.5504954336116266 11.577603464987245 -0.34289902975963527 -0.19498809287654806 -0.6544005190445955
Ni 4.303013681643664 6.913826579508675 1.4027447884830213 0.07946765650902443 0.6780577534522193 0.12910485992017764
Ni 5.990496408151554 7.9470265777915525 8.103665170114045 -0.7310726150863539 0.3360892059266534 -0.7260887887185172
Ni 5.426256757512148 3.0534557584201103 4.911210353722488 0.15407541382258624 -0.8298238024153386 -2.016299208289715
Ni 0.8132267142351055 7.754649837976654 6.885661868456103 1.1871076401417362 -1.8150173119846549 -0.33606452333630515
Ni 4.8015187039113885 4.316458781264978 6.862417936595565 0.7182826624105372 0.4624170173223262 0.5187550297924228
Ni 0.6844146600741016 7.335815439834144 11.00186502698408 -0.4267054228533296 0.8544431436259156 0.6266205207178498
Ni 4.515562616225091 0.14903970200913405 10.387394884148886 1.0665380713860795 2.1223649270022413 -0.26885280137649825
Ni 8.137730634489262 7.41444972768023 4.461470407789187 -0.017714900781259812 0.555543659375682 0.4094679759291206
Ni 7.4008046333383835 6.330514705065674 6.612241813479603 -0.0858697033806263 -0.01480338356141967 0.2225672880463973
Ni 2.4922614819342814 5.304659967427842 2.3106453671509914 -0.48666843367052315 0.06364508765447104 1.4264806868915627
Ni 2.311157171822175 5.606142917962823 11.331911768945789 0.8391931594453805 -1.1430515303627862 0.5634814261655198
Ni 1.0813714539240815 3.6284587612918595 3.7143483121587497 0.43377261411275614 -0.4010383571045287 -0.30950271368737664
Ni 1.538559385063429 1.1334973506303772 2.278248040558404 -0.2115161724385583 0.9917349102322598 -0.11702761704066941
Ni 1.4442618743319315 3.4308730680739776 8.145695878767961 -0.11940768723707178 -0.012920821826726134 -0.5897501300540617
Ni 3.54844269174027 2.2312229182926213 7.093580925257181 -0.6819529747415675 1.0732602206012611 -0.9220636709883668
Ni 4.080092293601847 6.983661099651291 5.765557800633083 0.314254112329433 1.658083859887983 -0.4326076472703775
Ni 0.8653598834766932 9.11766840242645 -0.31080452264566133 0.02022558301825549 0.35909749389636864 0.34084471833376784
P 0.6780711911655468 5.5900251616216545 7.83381138463142 -0.5629985729918303 -0.14768596535647469 0.07984458023246895
P 8.550628825699578 1.8154338943036876 7.776120180292827 0.18641114984081444 -0.9730597024202597 0.8436236844129084
P 2.151143214057226 3.4091918222343343 10.39040207749218 -0.32973832400796116 -0.06709062300091026 0.3820972972256516
P 4.100882653868205 6.183282228076633 3.6215589434334574 -0.42167403107700924 1.3281568169079836 -1.253549573815054
P 7.2393634405223555 4.009330525209485 10.28938928948532 0.9584123848207301 0.7997416383179775 0.1270934859171037
P 6.6158344459139125 7.59956302287212 10.121132822033658 -0.17007641723653288 0.3748956372708898 -0.4621989877742491
P 2.3801553504061967 8.702933896054875 5.58238627236419 0.6754892213940947 -0.5321815876109738 0.45876759349519697
P 7.042895899605638 4.251060507650557 1.1508341656998882 -0.24267280054702073 -0.46477471892122535 1.6702534053709814
Ni 5.358222189854332 2.735964139573342 0.6514809840037201 1.0215699913158212 0.9922663572556975 -0.35340609993854616
Ni 1.4044447436075551 1.006055260305027 7.038405109062751 -0.1483598514950477 0.7127871865136046 -0.4552140718159838
Ni 7.096276308649825 0.7982571094031807 9.253253914145157 -0.6232662595336362 -0.19321737412937048 -1.1077317720155697
Ni 2.6604479512337535 1.4932969435390748 9.193433675099794 -0.2013639144959048 0.29968778447948385 0.7605114891727612
Ni 6.587335198237903 2.1922057664503787 2.683335528864978 -0.24212309869113785 0.2866124393527645 -0.6510771110983175
Ni 4.175926127413805 6.99390628374407 10.282604014057767 0.5299994923579905 -0.9723547059334351 -0.5673699625866486
Ni 8.430204731931127 7.504101906493883 13.57267898074241 -0.5843613549383226 -0.8407854436331648 0.5170370186600515
Ni 8.07723223152791 4.090901099179765 8.206367913509414 -0.04864090093615494 -0.02204669538739429 -1.287182688488467
Ni 3.406282808117485 8.594009498717096 12.521787631294528 -0.5822538216770167 -0.6064656430365296 0.23557115650523303
Ni 0.2406945552288557 4.959950885250301 10.339389787752491 1.1086154601721037 -1.6968062161588455 -1.2680793920001128
Ni 8.683743493552784 2.5677413075974087 5.682174547241241 0.28022453354854965 0.4614986192731149 0.4186817812179048
Ni 4.16852632275407 2.6719658290026547 11.51008070200061 -1.193361591471248 1.6890319715300655 -0.8595074455227003
Ni 0.9270846177016804 3.539506564000073 12.656834975401619 1.5017877842649943 -0.09151533170217788 -0.7666785372154216
Ni 3.4836807649639097 8.616054371321345 8.134240726615955 0.11631516435467709 -0.5911686076681433 -1.2326287645019867
Ni 5.695376925997179 7.994170787822744 3.3394636629203647 -0.18158210388328727 -0.09607286916587325 0.9923208646427167
Ni 3.1174358876525674 8.633635725390054 3.337095543615867 0.31449425336469705 -0.7595887202481757 0.5205064652658906
Ni 3.33273020430677 4.825890787809117 9.161581788654116 0.9716430245783912 -1.6267302852773662 0.4411575937229177
Ni 7.606799195487783 6.033795265147034 11.328439133343798 -1.3230380076241794 1.3391050883893711 0.1926069942388812
Ni 7.986434628405747 0.059135711660991165 2.436778401123759 0.055890126299400524 -0.15996555405477614 -0.3349761753681328
Ni 4.836217787923933 0.39502957199756716 1.6068848541329297 -0.3519014903685617 -0.3287631045788854 -0.966784153824193
Ni 6.319996800899442 6.034377067970404 0.10442906146033665 -0.565951227862251 -1.1352117226033933 0.5902160139468867
Ni 7.863756048696739 8.834203158077706 11.4972674038828 0.9843499306220983 0.475169174781672 -0.6020376891721632
Ni 0.2747482017342242 5.179963259175268 5.66019512745462 -1.0664915344188601 -1.2774873155775741 0.7394117310796685
Ni 7.288253059023656 6.094939105615563 2.455725173693564 0.4344215605506648 0.6054536568322476 -0.44894829341193004
P 8.606845523507692 1.9007407332802968 3.490516948138506 -0.27457479146194 1.3427331720602618 -0.8051262996686585
P 1.9904474561086412 3.2947766607510003 1.5207607640028677 -1.3492511756844376 0.20159942754547858 -1.0952015007590428
P 4.945005825224986 1.2958294290196901 8.332020960152901 0.4427624763161923 -1.5113414893917003 1.2527507320628424
P 8.769759404720375 1.6910735408083748 12.017364583432839 -0.2562554243274619 -0.15057717086134068 1.1769049885771214
P 6.454347799752308 8.017624714139842 1.2311156827896401 0.7018121755593397 -0.8112038733213062 -0.18807928157185672
P 2.0856631244207686 3.460281382661502 5.811566586091791 -1.016939177412029 -0.5170614441400837 0.508400426030976
P 7.00769682879176 4.163790084145075 6.151605791544878 -0.2472228818115484 0.7772264879345969 -0.8842103475860191
P 2.3804462518178817 8.526774909941413 10.297705433591862 0.03323999300005243 1.4790078102560011 0.20081678374318318
