# total energy = -381171.7558832055 ev
CRYSTAL
PRIMVEC
9.20897599457278 0.00000000000000 0.00000000000000

0.00000000000000 9.20897599457278 0.00000000000000

0.00000000000000 0.00000000000000 13.47826722561465

PRIMCOORD
 96 1
Ni 8.399903182805078 5.026388138504128 7.701158299765785 -0.06294394782238837 -1.4452132303040592 -0.8483285460877454
Ni 5.8123834666002665 0.6725471875305359 12.769593702725563 0.13109335110511616 -0.23850092855751828 -0.6402352832878071
Ni 2.308156214041691 8.635901616017573 0.23887900096950493 0.5731341187639356 0.5348889592398078 0.1785500019251828
Ni 6.764886293463922 8.296486380019877 9.37189772870481 -0.27400426367045067 -0.5757916109914406 -0.9660603882842911
Ni 5.333765346283685 7.24201255963525 3.134236373764136 -0.4335358155116017 -0.2303217351808356 -0.4379683973616586
Ni 8.83476024819421 6.126722660391008 11.797298023303917 -0.9433007259902723 0.39524180502740963 0.8777432518044367
Ni 3.309871809746318 5.633103117836039 9.007728764667345 -0.19902395350881852 1.62459884075666 0.524889939045567
Ni 2.017097312097876 3.798693475698341 4.943801118997631 1.2384219741449962 1.5725340017406209 -0.8783142938165585
Ni 0.5395216844501461 3.9954985061812005 12.796995011424348 1.318901873968619 1.4491421330448204 -1.5444904653398432
Ni 9.142561068879209 2.7609431561024866 0.960222711616534 0.2415060339324292 -1.4090167257788444 1.2471416134061812
Ni 0.9902504203290633 2.8333809629331532 10.614553294253682 0.05984679695430338 0.33936941933982195 -0.40734990114485325
Ni 1.4075643860471525 1.7579935575863535 12.88278399195742 0.3385908893025846 -0.32970515677718054 0.2526949606697132
Ni 3.4214477654493884 4.060302071737698 12.979396282224542 -0.7739154212834929 -0.7297050453148659 -0.650578317085028
Ni 7.700868217015318 4.886862940018057 0.28665148593197204 0.8505126982232578 0.03614611090325388 1.0870493039655538
Ni 0.7711688764056512 2.3105413388788563 3.9356539743112435 -0.7099299195704677 -0.9308766412943066 -0.39671350447692966
Ni 8.118338735328898 1.9269230170958564 12.289444129666043 0.3607041762618562 1.6743964810050775 0.859880512591403
Ni 9.111361057495747 8.46373980586002 7.847505507824721 -0.5307895923594536 0.7084574487899992 -0.35673876385620495
Ni 4.345301467338444 5.313312210131776 4.545006404428344 -0.5806761927772516 1.0869423460740442 0.39171039483538345
Ni 1.8202001918529633 6.5934980373076115 4.719145381777168 0.5003976103311576 -1.0453863770091287 -0.7195173061485867
Ni 5.711600431009774 7.752898932575103 11.418194862554362 -0.47672160687045634 -0.18604965273633764 0.8477060820123982
Ni 7.0980946794992645 7.548616213413563 0.1325236138772024 -0.8184561840083453 -1.185469847427997 0.1137700293353202
Ni 4.251112058710926 3.6996417276344395 6.435778664532785 -0.13089434772043262 -0.28789824804372355 0.12038162111456686
Ni 0.377526584023213 5.429179548746504 2.9464837668910584 0.6216858024203938 -0.4566245790102652 -0.9080146490944684
Ni 3.6737276685928046 6.041318615063319 11.603089924110945 -0.6976624150570243 0.6343695685356494 -0.3827940661823601
P 4.116062422660617 3.112339270143241 4.077904108856454 -0.08518296172624684 0.4675864773384076 0.5060265264821607
Ni 6.631742915488104 1.5833453238533772 8.756224257320412 -0.7823879775308784 -0.6773399014495883 -1.0655427973523455
P 3.728180344894576 6.971986959344275 6.387364313928812 -0.6434355353926596 -1.2483536314364114 0.21613875881223418
Ni 7.386252753938419 0.43602015908385733 6.491672545610682 -0.2086277951471697 -0.9516758374278449 0.2602838287605646
P 0.6974105023871487 3.8208963173292507 8.596829771773848 0.28451699027631644 0.6810808565492593 2.093333315656582
P 6.853366136844171 8.967120863192578 4.371864759202549 0.4078088430591428 -0.6385324416640874 -1.3695320374206608
P 6.477768833335963 5.997668067850332 1.7594264742838939 -0.23490421234519543 -0.46286438927239 -0.3945915730379204
Ni 8.640810000334984 3.0364020523545716 6.224304655852549 -0.07777227108447252 0.7964490836096348 -1.1399764909818884
Ni -0.036206931746266456 7.79668761443117 10.026927601697679 0.534449557709544 0.4278739892401341 1.406826402995745
Ni 6.708168209015653 4.917068381971347 6.140995652611559 0.2681148947692092 2.0224716556490137 1.357429597730172
Ni 0.9653861845748298 6.37071448494968 8.459162944686001 0.6391531059672217 -0.5742476635430884 0.18341632887854864
Ni 9.164192953985392 8.357956296190064 4.3374821256425475 -1.9056191307336279 -0.49878964241408935 0.8938676681701251
Ni 6.21050592590657 4.038817530250799 8.351323070629409 -1.4466355645728828 0.3025843893009886 -0.0766543554299454
Ni 7.434295982801322 1.7829130471978187 4.423877056809924 2.0005535154196834 -0.36430114958449517 1.699436197582525
Ni 7.337141283835705 6.358006097786405 4.051203603246889 1.144316513118139 -1.396069421589557 -1.183570316412439
Ni 9.195521891035725 9.004564560443212 0.013400902173911272 -0.7004255796244583 0.05869082897298924 0.16037924455342703
Ni 5.524068839565622 5.452984752237131 10.27566941618303 1.717774076659764 0.8127295659372131 -0.4830161816299165
Ni 8.008383559437954 0.66911316030359 10.51397838152543 0.21277369899474322 0.14654362422191533 -0.7347474928347797
Ni 0.5177424557246788 0.8479800260362014 6.037536488535814 -0.06372350630089026 1.3612636267642815 -0.11286345836065079
Ni 2.119031469714028 8.379422419724554 8.923516360860617 0.14845832474612494 -0.9523967747542695 0.4202247002249924
Ni 5.0599180208675225 8.557818706773075 7.257669660979452 -0.9009996512292161 2.454139564713941 0.7604855210308322
Ni 1.1931978379408394 7.770801182318152 2.4828587807342783 0.410274530990816 0.2744032988810822 -1.2128117297760594
Ni 2.845076362713848 2.9516518443374564 2.2750637580480477 -1.106844741424926 2.5923695268638385 0.06064769558904394
Ni 7.880894492852174 3.1498382212511076 2.7103444363426217 0.5384625355236791 2.3248020199576676 0.2666210838325021
Ni 4.3021297868881305 1.9274295107871464 0.8493005932240374 -0.10426440383773011 -0.9580457455099306 -0.8053281312668196
Ni 3.3224328532903082 6.536623400263854 0.5355590619890178 -0.18092878657000452 -2.0194305548298446 -2.743443949076572
Ni 3.695156956222472 1.095002524664028 3.072546363062642 1.7200649295764698 1.1509898113732564 0.34027496187322687
Ni 7.901596271361625 3.3126068756792835 9.648714028049554 1.0662200259250283 0.7399940859456998 1.8240166872697876
Ni 5.3569259214399425 6.367030894467571 7.849365721018185 0.04577874889701148 -1.2056033849530787 0.3174865032238016
Ni 5.632964983192959 5.524197765232497 12.849344357560836 -0.13505464974570935 0.34273165094383556 -0.048817535723335276
Ni 3.3687171676980037 1.6420341292095733 11.521829918075628 0.7907854575659542 0.6889034379174717 -0.038427707848578976
Ni 5.747957469068186 2.521482147836809 10.857863654573164 0.28367341132909857 0.30223086261631177 -0.9099897705429684
P 7.504302619913796 4.307093425062772 11.63473749173798 -0.6992454432734281 -0.18786742267136677 -0.17811754237345453
Ni 2.909870719294139 6.140057257936241 2.5477295718170736 -0.07232821725076576 -1.1402842520302943 2.3428843313806746
P 4.483067751369307 1.7223640286481576 7.508715561311362 0.06682399960308491 -0.17604343345324522 0.6033242691940706
Ni 2.3048778185126144 5.189083121122661 6.874522838778162 0.42748241022867023 1.20585432462162 -0.5479087685382434
P 3.710913514509692 8.7627736811976 11.98538767870611 0.7630378551390408 0.10971359987775943 -0.24591341897150554
P 8.641408583788326 4.802867868049774 4.734349401492072 0.15124000125632017 -1.3340582699940833 1.009820564089377
P 1.8679395245010915 4.537566472552104 1.2051538517481435 -0.6684454271734359 1.0350986219298755 -0.9713967128955399
Ni 5.187213698952991 1.2418488592332895 4.961835057100415 1.4852918434925002 -0.4255553684092864 0.3618902261501574
Ni 3.8768500567524815 8.370922534687088 4.754067661342799 2.1973591211209444 -1.1087280744905679 2.2401972993323933
Ni 9.074101539769218 6.572483153607181 6.138703538434067 -0.6558655336258963 0.0171068348836157 -0.6086497951720421
Ni 1.3856654406310165 5.247072044287258 10.728350455017464 0.9815515419413547 -0.11433670047206759 -0.8854863860849653
Ni 8.68271084206897 0.793568790127354 2.6167250633422094 -0.5909364370526791 -0.4209248116158106 -0.9540523080798213
Ni 1.5795235987281895 2.9355453449544364 7.003348127811328 0.7586986043337385 0.11798329608571939 -1.5335280527910686
Ni 1.857883322484935 7.6333664214306785 11.652339528856736 -0.3881597013696476 -0.7915652731547722 -0.706135742635358
Ni 1.673795888141555 0.974438608184612 1.8107379688020468 -0.33572230950553794 0.19772734618458204 -0.07648414840066828
Ni 3.1050918058696926 1.4541894325744427 5.658082465792838 -1.456593190006227 0.5717320962100864 1.1533894219536844
Ni 4.780407175085117 4.437814842296603 1.3303508041564318 0.5400321940036441 0.3794760575527207 1.75072893431923
Ni 6.430710964927024 9.058197637862715 1.8653250961564147 -0.18918048505583548 0.978425080497231 1.114208380878849
Ni 6.405202100838422 2.566873191552592 6.526850834714819 -0.7121649795485735 -0.18460135032558528 0.5415342324704674
Ni 2.0184602405762564 0.052459853850950346 4.1586382823504495 -3.661836598971255 0.9682337417865261 0.11170106262143345
Ni 6.163024444592189 7.366536335882933 5.571053036164918 -1.3539712068679262 -0.005237080029223238 1.3185617170203807
Ni 5.951641604776383 1.9906399234601306 2.7247399079467023 -1.5642457935898997 0.48291642282725866 -1.341032387319071
Ni 8.080333290529742 7.57392248002565 2.170190095227173 1.1339673086733308 -0.8544287454482125 0.5048916415467691
Ni 4.710336075139206 0.5796626908313046 9.636705523077877 -0.7588958079462091 1.029731186970375 -0.28677853261698355
Ni 4.741425578808203 8.170332614983861 0.673990234101902 -0.34105503457236097 0.6751372373713146 -0.28813067576950374
Ni 5.916334390005373 3.0247158615500815 13.062152746893215 0.5796045569796276 0.9455540408008232 0.7772203172870098
Ni 3.2252413184198714 3.533714394367855 8.797278794141134 -0.2524355363607394 -2.899986079272096 0.09949475036322865
Ni 4.137454874385463 7.6106939220133 9.662920715641425 0.46268132672730644 -0.008499295720262782 0.3639874749988183
Ni 1.3703509132016496 0.5761789351328505 10.770348911899225 -0.1992718078535665 -0.6418820748626106 -0.4838965273523408
Ni 2.0751230711672926 1.2720266742579647 8.282974970131502 1.4774453508648877 -0.6595949187613414 0.7950594023509597
Ni 7.906845387798629 5.9040035708665135 9.605085582379457 -1.4516564148262419 0.023077707755069933 1.0598475467397812
Ni 1.6312227911445845 8.14709836801796 6.329354210118944 2.1836427999761168 -0.09055271067859244 1.2583961032740778
P 3.391555428687077 8.361059721171241 2.7237692818546666 -0.41674651186840483 -2.7039597749390207 -3.167463340457306
Ni 0.8841003934061383 6.53464347037972 0.2507024055194532 -0.14513028881415652 -0.49778794062245235 0.9687837007527252
P 7.244149042114873 1.4854999516723661 0.8024950507631239 0.283840275924266 1.0833363738903408 0.23732130642712035
Ni 6.186682304463532 3.834157243064842 4.425751083467697 -0.49911874361873393 -1.3790404911317282 -2.1487917537352024
P 7.859677011675228 8.136498836405693 11.83851463810585 0.7547079951171067 0.9183563973401088 -1.925556493087503
P 7.319625811093279 7.266950467199126 7.505225359329565 0.3459748404714816 -0.2875526917788467 -0.17732024328313975
P 4.101696419780393 4.053284831869281 10.772721144169704 -1.3662448820289568 -1.4513175434295844 0.5930830510820366
Ni -0.22167939611091914 1.656298833351539 8.386852221726967 -0.05344577852396602 -0.3813712176929045 -0.4916777139596564
