# total energy = -340872.6516218257 ev
CRYSTAL
PRIMVEC
9.20000971882411 0.00000000000000 0.00000000000000
0.00000000000000 9.20000971882411 0.00000000000000
0.00000000000000 0.00000000000000 13.46514417473256
PRIMCOORD
 96 1
Ni 2.2197507709454243 4.210384497167875 7.942092483054981 1.49069450256531 0.10786086293973683 -0.575672568915073
Ni 1.0865487605572328 3.0205472262868063 1.406205861987249 -0.13296459998590004 -1.2372073850116048 -1.147004087252631
Ni 3.4335632674347525 5.312932074813658 12.24820492247115 -0.6879531581890603 0.8031398653662492 -0.973498332619575
Ni 2.327096485602815 0.8728536923066783 0.5348600512911593 0.0036579084675614423 -0.14796852959390003 -0.7123688680292636
Ni 8.043218991069553 5.090255036969342 11.048272480807293 1.307685179317193 -1.4826616049585046 0.12583030293396394
Ni 6.917818589014364 2.062863003371506 6.895096404744495 0.7286560352250613 0.5089830380073235 0.05068055707400304
Ni 9.223101851318184 3.0986645097249195 7.44751743479277 -0.24929904761428678 -0.13199657964567588 0.6694689833419438
Ni 8.365099734874672 8.43723701192546 4.6629927806048235 0.11459792455325425 0.3898702563028511 1.455393770381487
Ni 3.779364036789169 8.133949487980008 5.677039943722133 -0.4815743069770673 -0.31155419689976666 0.7928608520377441
Ni 0.7201666492196097 5.499959074579693 6.448713767957243 -0.8122562258452204 0.37921611902311464 -0.19891031074908969
Ni 7.822621155446061 9.102241322225439 8.72356891776039 0.34337571228573766 -0.5267611879263508 -3.8765247413798916
Ni 6.9738282488390295 1.7562726758982854 9.847638998394647 -1.2748789314204496 -0.7599350478440009 0.5931249600635656
Ni 2.8546158490532876 7.449303156700124 13.041584329890282 -1.0321955893504673 1.6992806458412668 -0.3197369898208752
Ni 8.436050210657822 7.124993610300769 1.3028925116368808 -0.5559583783155974 0.4477054221437644 -1.8336159009224484
Ni 8.872149076460841 4.876226008362081 1.622011412492038 -0.5505333506452841 -0.1576947557427284 0.2832540644034928
Ni 1.125363602015883 0.4794529921101399 4.156878160017043 0.180809744493637 0.13330758514761556 0.5205216347745423
Ni 4.452979556286896 9.15919858306225 1.3978973331127986 0.6942402767493527 -0.5901656203249256 -0.08640989215481247
Ni 1.038570709311236 6.3765452108730445 11.43585325478749 -0.8698273393914696 -0.17873306447026638 1.0529739595483993
Ni 7.10629919033301 3.8211228813923483 3.3834811739413997 0.5006914874224925 -0.8775630174728305 0.46595536949288785
Ni 0.3972463043040795 8.367077736987403 12.869648106242908 1.1423141379761297 -1.3585742528575764 0.8524559379925577
Ni 5.198741552845238 8.728306922821117 4.013097646443157 0.541587454305906 0.8460315225234526 -0.9839357259028152
Ni 7.546639260666115 7.218162109815287 11.672974308059652 -0.7187806850928783 0.5913048761356914 0.9731982848806529
Ni 6.597087846437577 5.627977211317573 -0.049834613229015515 -0.34596995537547515 0.22539550152381183 0.3797354818616944
Ni 5.466857439223394 0.3782262039884565 8.248666250510514 -0.14999070223025135 -0.40026059839823974 -0.5541940873263229
P 1.371473064888685 7.91960765903864 6.154109213286186 -1.1839955768753156 0.4779038001040157 -0.35165389313412987
P 6.384457219323966 1.7302550481085097 2.083448025358643 -0.0534843450713853 -0.630355819390566 0.16834169393361328
P 1.688008602984518 7.854020788984429 1.550848416481892 0.4824659655534014 0.9458378905898291 -3.339507680053487
P 8.71510490871987 5.795214989946476 12.948661470638138 0.5871430314485179 0.279053396058584 1.4366023487065969
P 5.566051945174371 3.5556473978344414 5.789365623698691 0.6639562810538306 -0.0878733640742164 -2.495316296062567
P 3.1805997972410935 4.208572095232025 0.6861836529219179 0.2598377423620815 -0.39562078563338315 1.1036604301596733
P 4.01948429326482 1.0706879436160825 12.50954960161689 -0.9459926710001386 0.8279461257766515 0.7615201329429336
P 5.15579590697442 7.149704836695159 7.487697557709696 -0.2546556839405098 0.07475379597312289 -0.47851546554608554
Ni 0.37146327676488367 0.35665126094397187 1.9304435819325547 -0.8162987713457103 0.49140569124519234 -0.7770454822720424
Ni 8.211027170307709 7.276407372027829 6.820957205555428 0.34934581382624347 -0.16638662708977153 0.8559904335083773
Ni 4.26402975446709 0.4766092690727214 10.353955099197632 0.31934746769194033 0.020128652429075012 1.6711435212854187
Ni 7.312572610656403 6.70728556414123 9.32405999915293 -1.2567269431017711 -0.23620184811069644 -0.32917473819500725
Ni 9.137808560215282 0.5166017117891832 6.689174424796481 0.8451892291278154 0.5314069142284783 -0.23875315377764045
Ni 8.554831537529743 2.7166525016927947 5.166764158689756 0.9913348465803636 0.1457434969181232 -0.5851555687048439
Ni 4.310775004396316 4.460146363941859 2.946672067379763 0.16409603128338193 0.5933545595758684 -0.23094265659428617
Ni 6.07722289116288 1.6916334068562193 13.24019598203004 -0.3378594104531988 0.5352563698815556 0.25288779340680967
Ni 0.6944885017924377 4.915776850606862 3.8903492753339837 -0.2749591713845523 -1.8376777296966478 0.34838602101613547
Ni 1.6269481377650201 2.696881680575317 9.77022827571122 2.208978707637744 -2.6561827646650578 -0.3994581571016024
Ni 8.05964100861013 3.360763589676445 13.302067888116248 0.13169961723054738 -0.1694236141438824 -0.04202673805374698
Ni 4.729577851725227 5.6322000158280074 5.887365048373184 -0.34393518433363346 -0.31794158848334925 0.6466545565505896
Ni 5.8248390215883 5.246986404376208 11.045578717930049 -0.5198477486359693 0.09791712146346364 1.2317317066090143
Ni 6.0127492222976935 3.733879188206195 1.2977211861133189 1.5524490580652877 1.3079410040817412 -0.31588522017495274
Ni 1.2112088937083847 4.443439146096657 13.076782647486075 -0.3750897555595669 0.8931212769224037 -0.48263128748667206
Ni 7.507686419060065 -0.05679166065993072 13.489246688044421 0.14067353859438353 -0.5079610245007122 0.9098876977474651
Ni 1.7168598338009027 -0.13939670889148523 8.139356333755133 0.40811943232102615 0.2886268986796319 0.5014245089337751
Ni 5.120541469318685 3.2366002570559322 7.729989016504437 -2.3340284236519415 -0.30229925396040197 0.6070582823152061
Ni 0.33260611526103084 7.037887917262015 8.897174943191304 -0.13090386080212937 0.0593343760942591 -1.3445607121873038
Ni 4.344253840155507 2.358477719121529 1.64728567948782 -2.254065058453421 -0.4474655382188165 -0.395270601382816
Ni 3.1058957174486688 7.90580764429866 3.1178676902360927 0.24048813419087617 2.171499222635047 -0.29610983732023843
Ni 1.512822015865386 0.7479920789403226 11.508672252566434 1.257652540239834 0.6097941931891305 -0.36523111759793225
Ni 4.498685205105709 1.1958724773273537 6.136995355006646 1.2170460795723814 0.2794295484510801 1.769536039723404
Ni 2.3336100925600856 5.849292647707545 2.052006991776055 -1.3913555610536554 -1.415288417720169 0.3064628984197883
P -0.009783290449663102 1.3229154130236092 13.125337539348203 0.5607511717185504 0.9584337249769687 0.3913401559801583
P 2.516947888385632 4.458968762684047 10.361442067194561 1.352660972696935 -2.0380625681087348 1.880711825968987
P 4.53967124888345 6.480358121757 3.8256088061838245 0.6249421045741623 -0.24225268229046668 0.37769042640720757
P 3.2444110653987606 0.8422314595986629 4.402981182882966 -0.7681072992421482 -1.1893419287888936 -0.370435287506691
P 8.31564968205641 5.1309926804817625 7.966935269589892 -0.40512641113097325 1.5049499840430598 -1.0303598216933094
P 3.609697455566029 1.7187274357957134 8.776890334713707 -0.26001257737704897 0.09701440714353615 -1.6885627452031309
P 1.3174690072062303 3.5892550337312055 5.716815266206686 0.18830528153973378 -0.5308417857536277 -0.006322856894234272
P 6.511858955403461 8.727147721582957 10.377519084366638 -1.7267461982513874 0.1604862024449365 0.13116637043489668
Ni 2.4424646088290474 6.280717908518624 9.664648042939564 1.0268091282275735 0.4723615301295478 -1.4658018530886885
Ni 7.43367234000464 4.97499731386103 5.705397134010826 0.3920168703322087 -1.579530487663112 1.0213560755328022
Ni 4.6955470153764365 3.2896751137458944 9.947186784722964 -0.8361410028826182 -0.551102849995509 1.8953298329924775
Ni 6.492879335131075 7.011097488646801 5.231639867984367 -1.558190331424439 1.6184955560723995 -0.5506295099035162
Ni 2.419013783780908 2.8139702056391336 3.2594668814800785 0.034165847248431476 -0.7149638824499494 0.6121472668023392
Ni 2.6990988829435403 6.6139054644007 7.123626488840528 0.7087628958455601 -0.9732646193422141 1.1378530168809824
Ni 5.164232315985461 5.434197404338775 8.93542950405151 -1.3548682647608987 1.1209248736670758 -1.8481338920329657
Ni 2.6329692123095567 2.8822986786216873 12.0538758749057 -0.15708360452129075 -0.7627696890793185 -0.1650933621996447
Ni 8.847263049879745 2.503525074048545 11.120687598154847 0.4464836339215214 0.34974947702256537 1.041732325196309
Ni 6.991768268001003 3.789309247411781 8.938028506827541 0.756064509145001 1.3244369448542352 0.1340030685527434
Ni 3.6941167457354 7.8536343885717095 8.920388407985914 1.3460542660136947 1.3948116379230557 -0.20095973707895068
Ni 3.3402107677237014 3.776263633477587 5.198030392085637 0.09305645093705264 0.4506909871346496 1.0084835904455083
Ni 0.5082858229068713 4.687129006385049 9.56825033997589 -0.7305164854725678 0.31718054194760853 -0.30730416337416105
Ni 6.612957863388553 5.998894007498754 2.666354207968516 -1.1392686662815863 0.4895331568128279 -0.5067497778014305
Ni 5.3103836720916755 8.576239960396364 12.61249127157026 0.15768472844039938 -1.3671002880507166 -1.1712346776652216
Ni 8.587390372306269 9.040932456740622 10.713716883463993 1.8699522734596374 1.005697800170255 2.233026492615567
Ni 2.1503274967934987 1.5150944182925694 6.26029572670542 -0.30517169041219055 0.9584311538738073 0.29625947552422527
Ni 6.863722531233643 1.3879042824390877 4.178934263575461 1.2046518196730867 -0.6647234982371584 0.6597784955270573
Ni 4.256688146625422 6.405690842003882 0.9738514001836781 2.199275364307051 -0.4407917257430667 0.6253537381902843
Ni 4.79106151739675 3.5519397938742996 12.568271424338452 1.411709442119659 -0.38523095775862687 0.48095878488025556
Ni 7.378499881074201 8.73536333035816 2.71769670280812 -1.455610000157351 0.42572094745287326 -1.7572196842498964
Ni 2.310048867394026 6.43678687521797 4.619150133775908 0.39713028029937414 -0.9574369082813381 1.4871553790638
Ni 0.5166467918373338 7.2354581282893955 3.171876347923461 1.3553732294217753 0.5675280854310677 0.5992914938855937
Ni 4.755521879436389 2.1865203354515526 4.121128761832633 0.8684011484679044 1.8470637988972383 -2.26564350731964
P 6.196381418437693 7.567771683237938 1.0969732916918136 -0.3364273059923625 0.6249737291430463 -0.4579047312742695
P 9.164267788476735 1.6655513789976573 9.146643329651816 -1.5625421806352318 -1.5337951904095262 -1.3282730307708737
P 7.109730793998351 0.06110094526273512 6.413434490274976 -1.3655830800752415 -1.5052268918535303 -0.5533571932473245
P 4.499568406049068 6.82890049403976 10.902013484586107 -1.239167594061769 1.510475027626347 0.013681097031518374
P 8.173123129821898 6.247202272720125 4.104889824487608 -0.5492411141964217 -0.9505900605628338 0.290018636820836
P 6.754932415033467 3.3340651611594967 11.404613701420105 -0.379206863051734 -1.3554899575052979 0.39381381433163143
P 1.4262775234260587 8.17800833503985 10.226547843112241 0.820445189413916 0.9849065744565166 1.1518750421916872
P 9.337641973660018 2.305761662814806 3.138079191824267 -0.2184391248106367 0.1278535040115798 0.7533278269401285
