# total energy = -381168.4908273514 ev
CRYSTAL
PRIMVEC
9.24570206910290 0.00000000000000 0.00000000000000
0.00000000000000 9.24570206910290 0.00000000000000
0.00000000000000 0.00000000000000 13.53201954801674
PRIMCOORD
 96 1
Ni 5.15148334775087 7.467587213516229 13.320284029199055 -0.5583428193873738 -0.4850990323008743 0.7815001756092863
Ni 6.810818760446673 1.328866280323519 10.632446537742702 -1.8836683374941494 0.478338316538273 -1.3883250017574478
Ni 3.350836623212805 8.422242944539581 11.988462822464598 -1.5700642000438896 0.3750817851397669 0.07110180104283238
Ni 8.06123525792659 3.129827358735088 2.7663917507343845 -0.5358497804911804 -1.9412749322640244 0.7376785504386456
Ni 7.399927165095548 7.668819921069673 12.045337759313439 1.8123230529819434 1.3910660548376945 -0.3551238539606013
Ni 9.056978889357366 6.8647859239655995 10.051110994901322 -0.32577214027136153 -1.2028127095818186 -0.6636356644896184
Ni 1.5679231554212378 5.413978077828968 1.5560738635305649 0.8661524616430437 0.6812590339983364 -0.16538929617350873
Ni 1.3995034448403263 6.7475874033615355 5.334308786870215 -1.8987270315994849 0.8928114589914689 0.08820323660980939
Ni 8.509522372947783 3.242088674384705 5.6969400187828345 -0.8099789997752694 1.1982585145522333 0.24173460500346755
Ni 7.089622909138337 6.362429942701698 2.8095312724515273 1.3617691056457901 -0.1483796489893896 0.38828928496897647
Ni 5.997446604159094 4.1052581825162 2.2605649328789106 0.5490449390252157 1.2529942155322162 0.7956996070381199
Ni 7.82020904826839 7.785371242522405 7.2373303977361925 1.2886286769063744 1.1712372487683829 -0.2998068265558514
Ni 7.804426634678052 5.395810273080863 12.103633760584561 0.9617417063042792 0.07785660326816268 -1.0613894373056043
Ni 3.304830009255262 3.344309157486514 9.560154964403026 -1.735352708973476 0.4324664937068229 -0.8961037565894954
Ni 4.851839386386313 2.5844603710140928 0.9371610133926338 -0.5308453852980536 -0.5351532686447881 -1.787871090587166
Ni 4.392059863577896 0.9729714670060498 10.45965545917965 -0.7365925164633185 -0.07257992825025565 -0.5450170488127453
Ni 6.83556950513404 5.900829016567388 7.870547273688778 -1.5086459448374083 -0.5384247403072082 0.35765330525067435
Ni 9.214017140576996 4.91629117615682 4.029741136398348 -1.440141986428739 1.6777957364946134 -1.8877551059690136
Ni 4.192278731263868 8.363625192833226 4.998308875464692 0.3612924446651584 0.9405727855361478 -0.6709877339793153
Ni 5.368304309149253 5.560346788753782 11.651934981465631 -0.021258395158144035 -0.6324091023751689 -0.4948016043006188
Ni 1.9092097593229276 0.5238661073435291 3.5778935014746125 -0.919552474530739 -0.8942163097587955 -1.2045947411829063
Ni 6.989057406723505 4.509840863418159 9.926764621955904 1.0714095405457675 1.2688381245430083 0.3757127338555465
Ni 2.986287832671811 7.365412958925228 3.3814084619812967 -1.4673491429711503 -0.14877559887622765 -0.8093753047529996
Ni 7.7879785305320555 1.0297400782800286 12.520176681803136 2.2024997847816197 -0.18060534179231474 2.079186077621922
P 2.929889049484308 5.266740270900938 3.8731614720059477 -1.3376611568539931 0.3674016428866898 -0.30501073935429407
Ni 0.34765042069971563 2.073968171847732 3.9118223755958734 2.270764373485973 0.5884303828013736 1.3756134677280503
P 5.254258572982392 5.0857464053798624 0.170840235406893 -1.1601277691187826 0.6313773186765449 1.3151997425266833
Ni 1.065151117560051 2.646646963754937 10.318111155642908 1.0249299089269897 0.535515022859581 -1.383908874967623
P 6.563634913148656 6.843788934355957 9.931230296100095 2.7241583613740827 -2.351712728305582 -1.6936553292346896
P 3.8820669323282764 0.3657803180689575 3.3184840622079346 2.185796613094326 0.16582509815934668 -1.1375629964443892
P 2.354519758247994 6.632321234509305 11.025484110355114 -0.4060044428605523 -1.3843914710309964 2.3187437295787294
Ni 5.97682868833809 2.9741112429246073 11.993063483860354 -0.4165194834592633 -0.7200014448738568 -0.9789004774717528
Ni 0.2798128547975273 2.0473590410258247 1.1793993346042575 0.2966965630616439 0.9209449840028914 -0.7567407092764192
Ni 4.596537812590162 5.9691085270329145 9.196022230459317 0.16093408861563252 0.2857056112677789 1.117941879779352
Ni 1.422275609265051 4.556550150740006 11.619079454263154 0.5330249094478755 1.346066864419185 -0.6526249152014116
Ni 2.8967154701274618 1.170783264759596 1.4653014088456027 -0.46759881863358177 -0.06925009254607428 -0.8965565278561979
Ni 8.17816565316796 2.0635944940220963 8.841239675111922 0.49729403170516934 1.0084655927233794 -1.1185383757127705
Ni 7.179176780278363 6.659725495717135 0.5194494354207962 0.43408937402222664 -1.4223579229724408 0.7211967507335386
Ni 5.265085290213961 0.13066950865393168 1.427776802051373 -2.4124488698433746 -0.16428912113079447 0.9601537929918691
Ni 8.252972629359778 1.183976881744607 6.563178175461859 -1.4450530505771113 -0.023807901052875127 0.23972760187576778
Ni 8.834638243768335 0.19266563993024058 2.4858863928449315 0.8764024215058261 1.1815815681171844 -0.8026346435950564
Ni 0.2572256044160404 7.188736836313754 2.038747594032244 -0.44078041288915704 0.5515720763224436 -0.6395670535761888
Ni 1.4865794678009667 4.333072283785064 5.378504167774246 2.4365213374115458 -1.2784018569720434 1.4555817180225772
Ni 7.695993039723454 1.1059154183918054 4.263249665628719 -1.6178147279552912 -0.33715312841479356 0.07658776385806809
Ni 9.030961483473819 5.225042154150833 7.401216015976915 0.25101268787128383 0.7035450990900464 0.0070368522421233645
Ni 6.510268720270251 8.984363144577914 5.637222953089431 0.5766256768569618 -0.013199529409409527 1.7830988660095035
Ni 0.544496967147561 0.051074183312473216 7.728312316200543 0.7119960580708771 0.28427170703472976 2.0392681583810623
Ni 2.618401343650376 6.010131707525202 7.9260825082943605 -0.5046558713868793 -1.2216429549144443 -0.2640908612114807
Ni 6.172560203105212 8.33990996678799 3.636500158338374 -0.4804723321621403 -0.17493117422567292 -2.0765527537641333
Ni 3.5371097846683184 6.26237295390577 5.786535495582589 1.251478035998006 -1.2857973781051661 0.48292156503358125
Ni 5.1218508723220255 5.964494921654134 3.9975882825601743 0.49689988159054427 -1.1812887194671138 2.5772768941967743
Ni 2.5379822262462937 3.420077686703168 0.5068022394335527 -0.9348700787244159 -0.6549268238617107 -1.921194102353749
Ni 0.4699322283523846 6.639301739641529 13.070320923831177 0.35934431979985215 -0.08875730934106649 0.09153872874094557
Ni 2.88018415466201 1.4115505947572635 7.847028981099588 -0.3021804689943505 0.8118268516172857 0.31617729749407486
Ni 2.75437788534523 8.497992982351912 6.84579432715487 -0.9549879325202134 -0.78576229331975 0.3229927777540115
Ni 6.982428238273434 3.928304688839867 0.08075288725212657 1.5066453694676116 -1.010230397933286 1.2070719990788048
P 0.8214704668111732 7.19823217243401 7.585955315443771 -0.34243957362471344 -0.0776228899908018 -0.21694968474930376
Ni 3.4587154760376886 1.584815053271003 5.29621556939303 -1.5050870238415563 -2.134700565749459 -0.19705911647296384
P 0.42008217600614506 4.18679602988187 13.435536329498042 -0.30203545877605403 -0.3970706307060323 0.4849391096842423
Ni 8.49145627092346 3.171987760593287 11.487195984915367 -1.020669590988739 0.11664992198627651 1.2031983750560116
P 8.881023931514516 0.9158293293647309 10.436191716233216 1.2640836405771585 -0.8529768434930342 1.0725513674596947
P 4.131996753168372 -0.2687688635651548 8.566756043040506 0.5337134508744679 0.6471083562585566 0.0615018160592231
P 3.6994273318223847 1.4567805697332088 12.69270980527587 -0.04486137928906467 0.33875698256680364 0.5569528810183828
Ni 0.7797085547161514 9.286568165441313 5.403119000639834 -0.12178107256525479 0.06909479791513262 0.6610396216276679
Ni 8.692014042219085 7.915069952449338 4.007277778425831 -0.3519511126595745 -0.8375168001842221 1.795972893758694
Ni 3.8320384379303123 4.545492290954391 1.9580964095038982 -0.9528991683119846 0.49173427822920474 -0.07411976193354977
Ni 4.793119931956177 6.626394739423537 2.020141543001665 0.37631488621591963 1.7548511840177197 -2.996758545608155
Ni 1.341015132964237 3.5550372011602143 7.978235665049126 0.20742888974306212 -0.6090891967023059 0.14090210966542185
Ni 5.044834173313518 7.809502525164927 6.950762632939192 1.1920238464964308 -1.3105465600253883 2.1757045189656465
Ni 5.54733808581201 0.34854448009877004 12.51556215185414 0.0678077036725929 1.4340602990110334 0.9789945798474559
Ni 6.08876640441204 0.9309035221694695 7.908125505555546 -0.8275722873770005 0.00267574705995023 0.2208608468782519
Ni 4.130998217334889 3.15680631764347 6.7771468377433 -0.5162795716687367 1.2742801214941861 1.2186519906069206
Ni 5.426820358131828 1.9210165209836554 3.277292609936301 0.6771486113743886 -0.8684327730367882 0.13324407889953183
Ni 1.7224650670571584 3.3890583559500413 2.6562005477988135 0.18455609890994668 -0.29774068805544207 1.3652151552128617
Ni 7.423734848162404 6.4129114765055935 5.327109158596755 -0.4959933106158748 -0.7139747790638027 -0.09312432806051059
Ni 5.724753864596435 1.9500850085806243 5.719889700689067 1.5363650080192313 0.2790999330258032 -0.40483819046659314
Ni 1.8756108776666343 0.630213871890404 9.97110885866474 0.6005803879003463 2.050270423028837 -0.04628037112377836
Ni 7.373188594443374 8.809961464698263 9.33449511173788 0.8895255891513455 -1.0303531368250902 0.00344322135359407
Ni 0.7097324579039188 9.11813920915824 0.2099292150069137 -0.3972783758414642 -1.437230726319215 1.2503547210268402
Ni 7.322882728980554 8.923914743843506 0.9237630663898451 1.2741978461930248 -0.002286482041331546 -0.9887280050851359
Ni 2.8207620268675697 7.8598268820320705 0.828833744012899 -0.45310088212772287 0.4279169266629275 0.676217614919687
Ni 3.181372148287601 5.8213991892946275 13.245046203286494 0.08385575827439105 -0.4177129895467322 -1.015899166183289
Ni 3.8953807434413923 3.4448469227948597 4.160135123127856 0.4576766744238634 0.6286136398884787 0.28082617168829055
Ni 0.7352487467302913 8.564848654684509 11.423960929549365 -0.4258153069388924 -0.6183377118837673 1.0262005481092973
Ni 8.508551574220785 4.8602899581622765 1.5848021092879763 0.8692442131944901 1.7350899422303925 -0.7169973679402103
Ni 3.7843028776684964 3.4972423169462665 11.847243043073737 -0.8659292898886443 -0.01699344923420299 0.3152064489403733
Ni 6.479887342966294 3.4652429417639796 7.784118449879469 0.08937797364420091 -0.08240514187079356 -1.6605549471362953
Ni 5.3943217150328 2.9849656972626613 9.703094444395996 0.34445043340715514 -0.6234056133249779 -0.2910799882058148
P -0.00063055688744061 4.5123556944061916 9.709792031042067 -0.08450727581546091 -0.0879083310772099 -0.666724073606955
Ni 2.3829780295022784 7.887240388942062 9.435593166597235 0.24099952660965593 -1.379250036039373 -1.8768633987571741
P 1.4606637646412008 2.2553780939660926 6.203524059645367 -0.2446216967432755 -0.9243234135568209 -0.1912841616623996
Ni 1.5678399441017807 1.5763737271972014 12.543113419726343 -0.09190999603743526 0.5481926183272495 -0.8140223166067079
P 4.83431878078954 5.0817152792372795 7.301769243523672 -0.024506469781796505 0.5746302436934878 -0.6149482265862442
P 6.825288284330023 1.8985032362194636 1.4869798067045763 0.7180132107992344 -0.9345841720528808 -0.46546840255414024
P 7.0546556635620865 4.428922478097334 4.147442623200019 -0.1717484056223171 1.2031654649355472 1.301615061863713
Ni 5.39716939129866 7.86781516869994 11.086743359169121 -2.6125354602887523 1.8047969198082272 -1.0590669598200149
