# total energy = -381167.5414925097 ev
CRYSTAL
PRIMVEC
9.32207307577432 0.00000000000000 0.00000000000000
0.00000000000000 9.32207307577432 0.00000000000000
0.00000000000000 0.00000000000000 13.64379623598177
PRIMCOORD
 96 1
Ni 2.30880714609319 9.094838164742834 9.903772237245514 -0.43623855915474546 0.2802530727936399 0.5464272988967106
Ni 3.7539615154908854 1.9309648825845465 10.010330057276311 -0.9833346019837067 -0.4180539178259187 -0.3872071076483912
Ni 1.6429780808828662 8.402608988749511 13.344246420297823 -1.5642995296459703 -0.8700304565412114 -1.4588053671661971
Ni 7.857510091177113 1.52523097661025 6.890144591135488 -0.1853523695589969 1.6098713047384985 0.5081942235574409
Ni 6.515485815562012 6.7734089317851724 5.804097915104984 1.9144015049119483 -0.2933099059775981 0.011122078055090523
Ni 0.9582438515948869 0.5936575759158425 3.744103423275836 1.076570773031733 -0.21417237911448278 0.11121178168984072
Ni 1.481687573549733 6.877583097745626 10.427161891176864 0.2485179464738881 -0.15349820116287757 -0.5422543984659435
Ni 7.323373951472234 6.6070472167310115 3.401234781103554 -0.10924051689608283 -0.9184024200866958 -1.2991578585724723
Ni 1.527058102921503 2.496441831771221 9.352099413781813 -0.23073131191442842 -0.9946806231241451 -0.3967027058436523
Ni 7.049034664666848 4.237823715417267 10.323618829559635 0.48157302142548675 -0.9797165456151449 -0.500398381662106
Ni 3.34589709126244 3.075165446714478 13.290094498144422 0.20939269833765226 -0.10161539625065727 1.8651173139648394
Ni 9.24434557178299 6.460066091478353 12.542673988856347 0.881135051094805 -1.1681925484047881 1.1432456486514633
Ni 1.565800638378473 8.713611988729166 6.2980857507419925 -1.1181773928289258 -1.9951320872937963 0.6433360337003178
Ni 4.718274036619577 3.3998905381745606 3.8109576021216514 0.560708234295757 -0.6529835840924109 -1.4386502323745611
Ni 6.485804335077173 6.6337363117775245 8.87129205718297 2.734416291656665 0.6363454613150975 0.3853996221260072
Ni 2.33183266644418 5.965427575144786 13.54884914328066 -0.7542644798217849 -1.2635275109633723 0.36687019586325204
Ni 8.737290054191318 9.279480464982537 5.519529517578489 -0.5022197511415609 0.30816702559508863 0.08570978076399433
Ni 1.0930783157069222 1.4099635437600484 0.20462696037268144 -0.5326171324864956 0.686026887700625 0.5643478879308732
Ni 2.106480873341004 6.115746002537387 6.336874896564045 0.6736310851394334 0.47959352910161285 0.31107931414587714
Ni 4.649505103976153 4.960163187254192 5.687621409384529 0.6693843940479375 -0.9245463282009044 -1.7166952417732888
Ni 4.630040615517501 6.945224059554041 10.019758401925296 -1.5423451368620662 -0.10175372160073444 0.7120893891156317
Ni 9.046754912123234 7.5080815062230535 8.383743909585826 0.15659869446507224 -2.683415889349398 0.8459055384685495
Ni 5.481173848151707 0.9004609820015206 8.328514355791706 1.5530000454727513 0.7929521261999698 -0.41098389835301474
Ni 4.938302926030276 5.8099260751549595 7.621028675099424 -1.6305193200061532 2.1800977629373355 0.7190835610452777
P 8.26926605632013 4.494740047754636 12.037157545519714 0.24061437535609528 0.5652698855245104 1.3679346110265538
Ni 9.151012976740837 6.832911723850101 6.188157069108394 -0.8160290626240915 -0.6701788649247749 0.48426393799408857
P 5.476177217014812 7.0253938874967625 1.4712654959171794 2.0257253866996208 -0.7672588351989238 0.22696078912840265
Ni 5.026424482256153 0.99574655134065 12.952929100243692 -0.39693821889322606 0.5532715755120536 0.5044383560594344
P 8.250398180534543 7.989641154114336 0.16889825112197643 0.09671513073556247 -0.3077728754804635 0.3179014792740331
P 2.862911166199618 6.506228997056533 8.626713488483066 -0.29682923198476624 -0.058441174856028386 -0.6100590168147428
P 0.5705863774070705 0.828074152820356 11.079116915116591 1.4002893732081754 0.055329625810240195 -0.5157908049577763
Ni 4.851812732582304 3.2815002108637996 11.578207653522883 0.834337631125292 0.5018705953322583 0.2231157043506996
Ni 4.360520840461696 7.208731097514143 5.785897499747382 -2.6193774229112505 2.1475720223954884 -0.9587664257260392
Ni 0.6217384564637326 5.668044123842378 4.255049974144634 -0.24117718983810074 -1.079687978504476 -0.8894854799420293
Ni 0.8277618633743 5.163570820476303 8.093486250897303 -0.22055102894731693 0.3745842766780581 0.8405882400206943
Ni 6.136552869510428 8.517839133307646 3.669239719294162 -0.6086449100760356 1.125729494144571 0.6797863061075519
Ni 7.684427161477988 0.8019751449957939 13.74353224836654 -0.2896710236734301 -0.6651153343589383 -1.4747667755914602
Ni 3.8747289714208786 8.711980625951261 8.23542227023338 -0.5008555238041826 -2.6320365064361573 -0.8068507385589331
Ni 2.6660196620161076 0.753508755175213 12.099346026820726 0.6577578655526027 0.18883210057748123 -0.4066137943097772
Ni 3.0124838277508905 4.018950763060626 7.5907393954539035 -0.3077430506837926 -0.07604320420850774 0.25395428699811107
Ni 3.2235821712116928 7.376696209127158 12.062521041783267 1.540636895921708 1.1036725143445314 -1.5327346103554957
Ni 3.6701747232177264 7.723020543766693 0.8171374967572863 -0.8481645097060554 -0.47957655982074826 0.29287024733701816
Ni 8.15856643924806 9.156923171033359 2.113205816815176 0.7835894540381472 -0.8854210800646687 1.527070470091183
Ni 4.683111177200979 6.082736541985622 3.270950420830918 0.05160486866048532 1.372079486432863 -0.47943412070561303
Ni 7.5799080788159205 4.713929950593842 7.939352299019011 0.8919077162302769 -0.02962399351401995 0.1626220178410167
Ni 8.297008545617519 4.502057875072663 2.324575432600761 0.2688137206084467 -1.126895232317898 1.6476847760418463
Ni 7.311367121426858 4.01220158219661 5.675205340333727 0.20760809563340377 -0.5061915913051154 -0.37583254726286236
Ni 7.479844947055786 5.8258481758673035 0.6455572852284355 -0.9369053639868896 0.9343196055375844 -1.4258862478406733
Ni 2.494596061313935 2.6928112998658027 4.537872347395121 -1.010714793768872 -1.2917104011554916 -1.1110104427668415
Ni 7.157636815310184 8.813889528168682 9.642984447984356 -0.5491472689310348 -0.7202472423360756 0.9249834157383231
Ni 2.532583508856561 4.661353458780245 10.048219623052264 -0.45596226283591795 -0.4855137512407896 -1.330860588992392
Ni 4.7485055194123955 -0.10144279856659072 10.637030653206777 -0.07250922291332028 -0.3559257810366063 0.4131490243251336
Ni 6.587881034608892 1.1456920958125865 11.465059127869353 0.35563396082780047 0.1292925504509515 -1.6145939070251485
Ni 8.521344232761887 8.497311928525102 11.676906033793387 -0.2416500157094612 1.138344354695104 -0.18225033359490547
Ni 2.9177715659022816 5.0665746507386284 4.294603529954048 -1.710687602126628 -0.09550439825691294 -0.22053071723234277
Ni 2.733791132846756 1.3004571520341026 7.687024291020411 0.47775981832698367 0.5277317793697363 0.011960514795985852
P 5.404882002583891 9.03624893583353 6.314499124702311 0.42176196280512523 0.23993586123183194 -0.1853675390676485
Ni 3.456643318699593 0.6221215936647146 0.9500721223885396 -0.9740716886245419 1.543260449587484 -1.8667283672057013
P 1.3016410553072104 3.8313160773825943 3.2902014338174896 -1.368580472140669 1.2846264977255166 -1.5235532009665438
Ni 1.4520993137950593 8.711029774503569 1.8105041228567995 0.6572477586854035 0.556099531879152 1.7320064182090622
P 6.248221982176223 4.956686054019003 4.125024767501861 0.8819830009173972 -0.7833904506534637 -0.012736730840378066
P 2.402260928084558 8.028793860784036 4.121968059759719 -0.4948021185212511 -0.40034673035414275 -0.04414969793402074
P 3.5492208258274016 5.195769260675624 11.704030469649775 0.5866362670154284 -0.044256912935846354 1.2096883536557297
Ni 2.1736277652795404 6.352163096311261 2.4045961073752156 -0.16896981443591547 1.8193532203558476 0.851802877789591
Ni 6.803118378489063 1.8337729493135233 2.660144891601049 -0.8398901855124051 0.48168512152331877 -0.4099873387677004
Ni 4.874129775384033 5.4458431914188115 13.337629612870643 -0.3189003528521927 0.5332609367180816 -0.15706020748252306
Ni 8.495009376490003 6.45035249139506 10.345340191895604 -0.7072603431581046 -0.6880760569201699 -0.6331423809967677
Ni 5.730623200002782 9.241026913789081 1.3324999136140458 -0.016322391309107374 0.14916434967421408 0.9149023773532371
Ni 7.610074307097623 3.049697543233139 0.1812602521492835 -0.3426174939634744 2.2086012696936677 1.1376434719733375
Ni 3.1907405079742275 4.513906229876756 1.7224608720442631 0.583360167367318 -0.8333760385429712 -0.4253208838009772
Ni 4.9754700311474425 4.572467492567008 9.472655258654331 -1.7217356324106734 1.341020046023897 0.40726351207863415
Ni 5.6934933831776835 4.507725695466753 1.5716558324401966 0.7113404267647491 -1.1123803265311745 1.6466439934821577
Ni 1.1231886115505252 1.7855778318177251 6.077861097797943 -1.473111242265908 -0.6564694857584823 0.9337382791128176
Ni 6.4279422278631655 6.125002821042866 11.597199512879593 0.30337834595719365 -0.11485143532495705 -0.3429293687769384
Ni 5.491148466279465 3.618008402616859 7.277587657643923 0.5626324479016633 -2.555130954227354 1.0360386172456415
Ni 1.710758873786531 2.951284418396942 11.748454808610358 -0.7130355550789849 0.15467010998379166 -0.486944055929413
Ni 8.757779970681794 2.241921272199118 4.25799668142518 -0.5637791599115968 0.9527724129261333 -0.22148588205676048
Ni 0.4864192445548343 0.11202894468423641 8.410963430586984 0.9287199999626199 2.194090734782318 -0.8911980917577619
Ni 5.7378478065906435 7.808625140278087 12.99103587032093 0.4181958427204217 0.688420327633466 0.09135206665143622
Ni 8.340831610868534 1.5036969879419149 9.473774839623625 -0.21987277193336974 1.3908161436104174 0.17967794488203895
Ni 0.4210864280253274 4.095140065825259 5.955217108569709 0.09328142246366515 0.035792841328893196 0.12772289197098646
Ni 0.6925284145371544 4.342016525523754 0.7021161666347228 0.21789482227139245 -0.3192374244766373 -0.1825007590428147
Ni 9.287525413995859 6.911701884986365 1.846823851536757 -0.6434761588226079 -0.8548714894125858 -0.9836577896510802
Ni 3.180747245700437 0.4526565605033293 5.390595925685958 2.60130591012152 1.2013708349289698 -0.255439870404702
Ni 3.7399504397469427 0.11297047405891254 3.072801368997469 0.2113207685983006 -0.5442336336795014 1.0224940457919875
Ni 2.5058757696640157 2.2756392103001435 2.203759501891082 -0.5228525969005641 -0.009911859797073253 -0.028082617168829052
Ni 5.833072782455166 1.7291513238482734 5.240364193572413 -0.025270087420698414 -0.6765264044093574 0.7225170122068588
Ni 8.497973795709282 2.265440862419988 11.857523062904525 1.312457661005172 0.4108401736862989 -0.39700223936194207
P 4.907213812519931 2.4618662629526686 1.3643329285511157 -0.48243434098451754 -0.5263043028945903 -0.042212628812307945
Ni 9.155040112284006 7.678675442426749 4.06257713257099 0.8532288116028401 2.1762729898746067 -0.6926634191805361
P 5.666403438991457 2.6769451315915567 9.501171480012095 1.7691665721991272 -1.473912655121281 0.2788425655993585
Ni 7.376919938879556 8.564617295704922 7.3796969844312 -1.287402517808757 0.3179834974648782 -1.0417773195016318
P 9.364861331741535 2.9531954433653445 7.814921268393496 -0.42559136385354446 0.1387117868823224 0.030766334648579273
P 3.8409737450277865 2.840258528769291 5.972353875396117 2.1278912561371093 -0.8465508853620324 1.6975374378979151
P 8.930723069285671 1.932130141711621 1.8319253144416339 -0.4095325106184689 0.1802433304672057 -0.08164306689378843
Ni 0.12833138597565838 4.086750200110323 10.183907056845317 -0.8017216448624838 0.7158033476321092 0.27284289637249787
