# total energy = -381173.781244194 ev
CRYSTAL
PRIMVEC
9.16496868117486 0.00000000000000 0.00000000000000
0.00000000000000 9.16496868117486 0.00000000000000
0.00000000000000 0.00000000000000 13.41385807412651
PRIMCOORD
 96 1
Ni 8.38035579384767 7.487660340717009 8.647578788282448 -2.562398434423045 0.5633258744242621 -1.569359460667381
Ni 1.006139436569069 4.431977267989883 11.24177910501702 -0.07348701344555732 0.492240528441662 -1.1707369120931967
Ni 5.783406902978894 4.581787847508724 5.956638560190162 1.0722425779700242 1.5999519887422573 -0.6821951726593606
Ni 0.7500243842838592 8.694677562792869 4.0790068257404535 -1.2802952173400144 0.5029247476283856 -1.607133336982045
Ni 8.554233581357243 0.15143644497868808 2.1039505567658923 -2.242752718764396 -0.26920555673022667 0.9256357046103414
Ni 7.039447543006929 7.869527929499101 0.5167218557647295 0.14923248390798813 0.010509127061439966 0.05695250612564385
Ni 5.330464981383354 7.480355860607103 9.148828343769207 -0.900533510226075 -1.4412169646604729 -1.2435420689803809
Ni 3.6820170384874156 4.709969100729728 2.205922748794553 -0.5559002713841523 -0.47852832106189197 -0.3970929993035355
Ni 1.234814572356089 4.164076065866104 2.4114224280521896 -0.04162821706374766 -0.10816888109845887 0.41970148073167074
Ni 2.6166077488810067 8.635645998943556 9.075360121112965 -0.211779453402274 -0.43487741714116074 -0.024090208179984317
Ni 2.843660685195689 7.744719384785557 0.4460929404335167 0.4054285157524244 -0.42717824872469007 -1.661808617037738
Ni 5.841540299888719 5.9055667717178295 1.7564506843754375 -0.003954870882689963 0.6588685821182781 0.4878812230317016
Ni 8.897553311491576 4.326415157693906 8.660066974728819 0.2299108728956621 0.7085541222688636 1.1305395139387047
Ni 6.835591142649802 2.513162746370963 4.687217982254408 -0.5380352181782734 -0.4427956435469729 -0.425488519727093
Ni 1.0131506376783261 1.9175130960535407 3.3999568761104464 -0.17992528500615465 -0.7057608757944426 0.16275005877844875
Ni 8.366709155348737 6.9972336968510636 3.121767080045163 -1.844234299868243 0.4324520955291198 -2.2171995528856394
Ni 3.3220353951287294 4.497241010602979 11.093113230097586 -0.7592781309862924 -1.1676212492823503 0.7683507827115219
Ni 3.9657003168335985 6.791855911678071 10.90731823369603 -1.6605505762609207 1.4411786552233696 0.43520446146327624
Ni 7.895813059932237 3.531830695248992 6.768606218901649 -0.5015718331449168 0.7546766276585389 -0.7812176113718611
Ni 5.725933383820527 0.3706460010197727 12.56788684779065 -0.5340178694887642 0.6019083626831505 0.8151831696840283
Ni 2.7424885949406725 3.5160944438704376 0.12843420635906308 0.07778769770344023 -1.1477363374329652 -0.21264514383667893
Ni 0.8683542125736989 2.0899794783724914 12.224209683874276 -1.6466455361440546 -0.465947656183404 0.6165806199833445
Ni 2.63941019118144 7.307082961036369 4.9689225438430915 -0.46732139660247907 -0.4886083310057133 0.48223996558552423
Ni 5.433497560298735 2.8428633329126756 11.885630992084803 -2.2086668328242802 1.2998134898786002 0.6663831453277684
P 2.5028429915356383 1.9896780601506512 10.997284316635637 1.5541860953610522 0.45253986741793023 -2.4730371729493923
Ni 0.8774486110844384 6.489815200885036 9.582927089573069 1.9838475155189124 -1.2214933167104576 0.6796240694980746
P 6.757936362259299 5.9490087236889115 4.429389997306035 -0.703848232152762 1.5438590024034315 0.8279324989298967
Ni 4.52437848313175 5.586525043855942 4.123473421220052 0.19210588623274658 0.426820094054323 0.5907284348069309
P 4.5007970184858435 2.150294137849642 0.3160502820552711 1.0115737993350578 -0.7547442476716808 1.1175125055514172
P 5.090966017478644 7.362063608689222 12.97369608449132 0.023850581365352473 0.5540768450221684 0.09060670384497943
P 1.7770874445554556 6.273256153812313 12.090058369996319 0.7993230627233201 0.5366272820871533 0.3403621222703944
Ni 4.1589803432298345 5.4392623256552355 13.245098304685342 -1.0838943032763397 0.9703194206709612 1.5201935404656914
Ni 6.51540379369163 7.841345650530519 11.105561090681366 0.36974314653567286 0.4461131379559801 0.8645558065798853
Ni 0.5703231756176568 0.2034256468249247 7.894632611954627 -0.8430027629994579 0.943042073012247 0.2905637106910286
Ni 0.4397516985413665 7.418858920158589 0.5967705259980264 -0.38787070937431906 1.4217655408040804 -0.37754773018175625
Ni 9.082676515682271 8.987919903566445 10.226362887058682 -0.3044353264667982 1.3226716254236963 0.42222039049878257
Ni 8.055091052190768 2.641728928280318 1.8883355014765077 0.9520751297487925 0.5043766495835637 0.44152577569561374
Ni 8.51181810588843 8.23806048872045 5.981708415764361 0.5553814227662047 0.29057219533146084 1.158812649851785
Ni 8.673928073496976 1.4790243302087176 5.830535005389378 1.6216814099995491 0.09202723834158989 -0.3786458483419414
Ni 1.457660788005217 7.3862499612739665 7.219660156930513 0.45375059989657984 -1.4144515236411705 -0.06280202292788539
Ni 6.751566708963962 5.534687980491292 8.161581573823174 -0.8851372302756627 -0.6253917905170714 0.6382028262388105
Ni 4.271874428542026 1.0922259882282201 5.591768322489413 -0.2663045810333478 -0.11418397694428722 0.844242806054146
Ni 3.8884487950689888 7.330526951150722 2.5987736361509373 -0.25646959722079704 -0.7615720692267917 0.5821869729948231
Ni 8.241396537352829 5.714486337826459 0.969041475980768 -1.726979397308116 -0.6329325789788067 0.5641200881907833
Ni 1.5396597635928275 7.000496425733279 2.721470572059811 0.24070873484211447 -0.6507053295811955 0.0672618584714519
Ni 6.410464901272033 1.0952962527662609 1.472332070012666 -0.34062720300632304 0.6658326721409371 -0.9405774135218381
Ni 2.8981647544724876 0.9397575677659996 12.8313210441358 1.0549714495944025 0.053163728507172964 1.1623085788201855
Ni 8.213837476260625 3.2696117737627817 10.960543789829376 -0.35851539614065353 0.7282271752177587 -0.19700589463752524
Ni 7.556232637056174 5.8256390790723005 10.438476924277824 0.9379823991011523 -1.092190224736545 -0.44548681722589084
Ni 0.40609884971381016 4.225435531783066 0.0657403209891505 -0.7717292122654515 -1.775941686139432 -0.551140902322296
Ni 6.379633946328843 7.307266260411775 6.568994115582033 -0.5903499684215897 -1.0169923992474679 0.00904848335551345
Ni 4.485537345483343 4.997666635397291 9.137157672537144 0.30305258718665873 0.7799562281609341 -0.7332567672218663
Ni 6.39576429136452 3.708338828795632 9.714020969869265 0.07004276365069873 0.7150263602567686 -1.1869448893116268
Ni 3.875819468103556 5.9596309224936554 6.796802245323385 0.048811365075748195 1.2589689450584125 -0.10050725078814304
Ni 0.13872463329432286 6.350810119546342 4.902671734093436 3.158950417890289 -0.7337581323383169 -0.924931222344149
Ni 1.4137972474707023 0.27367696544280234 1.3617209784211481 2.4338026529288017 -0.03096662358484344 0.23947460532469725
P 7.578091087573268 0.18083949778746997 4.423997329681608 -0.7031733175729245 0.34078275474758085 -1.8461711118796396
Ni 3.2373327537538894 1.977717775905448 2.2753794646200483 -0.727857707693482 1.1630130610863776 -0.23366828305556533
P 5.796503643351611 2.703592467479644 6.853730448839921 0.4512800268689003 -1.916736323692712 0.05083276638115116
Ni 4.296968113035027 2.691787987703536 9.610304684283623 -1.7194098124909745 0.31180127991356626 1.5173645556573288
P 8.349744798154967 -0.05455630959878938 12.70118032059171 0.01714180188660919 0.6182901464752835 -0.44568916304468403
P 2.097439762951492 5.331793901855043 4.474259851411525 -0.22513787698705098 -1.9455298508856367 -0.5577023575898976
P 2.9337065033635965 9.182657159997152 3.664732823883562 0.35385398610924224 0.49962139428676533 -0.08824874513576414
Ni 4.289993571800851 9.173308891851477 1.448173212334233 0.5087917479321237 1.0183244877953301 -1.9897664521065086
Ni 7.651273363203879 4.572980312520494 3.177890599303668 0.47570113602574204 0.49501423453205723 -0.8230720855138018
Ni 8.319894494870194 6.057375314428591 6.681670991134371 -0.29729434454664283 -1.6016689714333643 1.7946721726693995
Ni 4.2852186230715406 3.32375840925754 4.508504757221641 0.09328759311125225 -0.6131029458473893 -0.13617076562802355
Ni 2.1542075795145474 8.501929104585308 11.394455570270326 -1.0947073347314438 -1.2135432086254456 0.25319838266869293
Ni 4.288362207359743 8.267278409160072 7.130163320391944 -1.2774322939699225 0.6043552815617462 -0.11557442953391063
Ni 7.741529975653503 1.6598125041710738 8.410744080799256 -1.6053451347333707 -0.14352746310341088 -0.299701925546871
Ni 1.3991516273758098 4.996429364613304 6.740048176213485 0.5213760123550375 -0.7742720332919634 -0.5360510978687091
Ni 2.0079438429098 5.6565637351983495 0.838777941855159 -0.06272463272273068 0.37090271406141284 -0.6783973961798252
Ni 5.701792856079635 3.5660801835434928 2.7341603878191276 -0.19165722873110216 -1.1120098305656332 -0.09991024063409244
Ni 0.1534701515488111 3.8962481834924887 4.46737787636193 0.7288347268947706 -0.45780651513350834 1.8596051258973587
Ni 1.8085141224687136 0.11057626471019098 5.846939382991286 1.5813847672630312 2.0220677353423757 1.4995306127997012
Ni 2.457467231154029 2.6334254665744528 5.593941336584845 -2.5691560648618528 -0.2835605399003181 0.0828226890241864
Ni 6.541973038156645 0.45708448747970215 6.430026610615299 -0.5001032190191903 0.7678802708330066 -0.2538401300177499
Ni 5.036159504232427 0.9890925946563659 3.350728162857815 0.6594545365287352 0.6166986336184476 1.9682779432154296
Ni 4.8196187870972445 7.822273350519586 4.847365730049239 1.4315737851437538 0.9530770886507457 -0.27701194014852293
Ni 5.011074984708197 1.1234968616723833 8.272259569686714 0.9566030995261331 -0.6673804762440313 -0.8937357705779511
Ni 4.2201381798338495 0.31627115780263465 10.569811843252678 0.285299891188928 0.5265752971677898 0.4153149216282009
Ni 9.013380186810256 7.23124284446238 11.675663390551659 -0.28732669181096965 -0.6287146842427173 0.5768542479280001
Ni 0.4485464025733181 2.1103715338863434 9.625301322682416 2.356627134888064 -0.39548066051109304 1.0118105979362124
Ni 5.861932355402572 3.9323581604473548 0.4563714529093751 0.8197715603856592 0.022270638472742292 0.3724163224924618
Ni 6.271762263902759 8.161963753020894 2.8232952080912708 0.19280059830692603 0.045141372423328704 0.7821596635701562
Ni 6.491858988920805 1.6090110822774644 10.605546056487963 1.6802647668603965 -3.332814841414344 -2.244560975617728
Ni 3.894030261050083 3.7555475829312956 7.0258036539986275 -0.5805944316967226 -1.7427376885836372 1.01158228397549
Ni 2.1966963747335218 3.817090348223662 8.877157589990217 -0.21052012707387613 0.48279455253741366 0.051110959743202296
P 7.432514723626292 4.745190075713878 12.437275961348648 0.6041022850106758 -0.08581313911107802 0.4314563072747537
Ni 7.623521837767499 2.4172055233462304 12.966747205169701 -0.16217001790526267 -1.256876324195442 0.607743738418005
P 6.667120686714689 8.988772245662078 9.085970405458307 1.714864873432769 1.314404757429214 0.3035614085022772
Ni 5.463256213895804 5.274558671884704 11.492886418366155 2.9222736870257027 -0.6233937862504361 -0.8143125941536169
P 0.9635314967560814 2.30369738512643 1.1132760884997774 -0.07388064933955019 0.8560431411231838 0.3361655676905436
P 3.033861282085113 6.554153281652334 8.767579390379108 -0.5208543355236126 -0.063141151434859 -0.8483959089905713
P 0.5398414059846139 2.488371505847381 7.494107896246895 1.5368491467445016 0.5132235584512322 -0.17423929036497088
Ni 2.6232431862706824 1.477887874081204 7.885027724683383 -0.051095533124234586 0.946407132829738 -0.6247533856021241
