# total energy = -381170.2169080162 ev
CRYSTAL
PRIMVEC
9.22818730517410 0.00000000000000 0.00000000000000
0.00000000000000 9.22818730517410 0.00000000000000
0.00000000000000 0.00000000000000 13.50638492058827
PRIMCOORD
 96 1
Ni 2.0335695284425577 8.425741186337696 8.289678944868939 -1.3295920066926135 0.6284897127161047 -1.6599669358433087
Ni 7.532332674291277 3.365778353957285 11.32733248313895 -0.7637788470701233 0.17104700867991834 1.2798745848628281
Ni 4.908555960812072 6.172254722663525 6.491844387774001 -1.2487038156869785 0.24905042193859048 1.1823711538980155
Ni 3.701001491434672 9.04064300100297 3.5117009137213295 0.6833441986621392 -0.586787190770996 -0.30079927237610776
Ni 0.2881280056213582 0.4096115565492697 11.327183909320928 1.7200716144446893 -0.34087274335822587 -0.4980085412736907
Ni 2.75027670710746 5.521030762176775 0.025502096030907848 0.3850365823596337 0.2470387908252004 1.2412373321066041
Ni 2.422048535720693 3.1007724948222823 0.37158773296115577 -0.029055522605059638 0.035912140515576854 0.7694411875622232
Ni 5.463409959709979 1.956486478633919 7.363410702934024 -0.9093608787097177 2.8502627439050396 0.14301658490526337
Ni 1.227275105967974 1.6558967286738095 9.034110367103828 -0.6621343973537436 -0.1341539923083109 0.31033549400131716
Ni 0.7727056657771713 2.6204637941829874 11.388503369319546 -1.2462862073844214 0.8928713656951268 -0.8273501440638654
Ni 2.9161810611670442 7.101413232909234 5.010652935535268 0.45012662999074743 1.0004087838571738 0.2187337732329201
Ni 4.940577771279687 6.074860432267216 1.0040960064711437 -0.8316510854320645 1.9458615231934422 -0.15066947346483084
Ni 9.4857461665028 2.3884394770108806 6.877492187141051 -0.30679534205854264 -1.1126654618717613 -0.1843164720953148
Ni 7.1072269910056605 8.462515513344451 9.45879155376653 -0.3811935544644596 2.123016187432995 0.4594671906653829
Ni 8.137877106877541 4.631202786862756 3.40017826833196 0.18147334621956487 0.08165695085085936 0.368577665472662
Ni 2.691954562394112 8.528100241584603 10.454118013699526 0.20739289429880411 0.896722878230733 0.5507056145570903
Ni 5.26848295610554 9.133570848671232 8.079276270903064 -1.1922089659240436 -1.5194281230545768 -0.4582695708128559
Ni 7.2975214445078675 6.49883104849591 6.6736396806304805 2.420006627585974 0.39781187974743104 -0.2183794752172949
Ni 5.248347051079508 3.2869142639699 3.8500357960084224 -0.29183486409396836 -0.7280579966297461 0.4885319692418231
Ni 4.185665896552559 1.3133002694201625 0.6845792440415605 0.30682876639963935 -0.9911070468402738 -0.7378726687273227
Ni 0.4023425132912468 2.189784285674766 1.6854075493350147 -1.1592733915382873 0.5109159933639782 1.2441210814123025
Ni 4.439874776365628 0.9234647185861945 5.32040812127533 0.6573328622000421 2.238230662524326 0.372148670653372
Ni 2.5287171545089198 4.896826934557221 5.364101743235576 -0.7477529039555122 -1.1513150559231589 -0.13462373285587784
Ni 8.475942526090957 2.1292381477848488 3.8938503072243247 0.06244489669878279 -0.14424891465046769 0.09524600238920371
P 0.9553665626168976 4.203217909091291 7.893658662802868 -0.045787233537443725 -0.8232209523868402 -1.614529115225484
Ni 1.3281853357845028 1.1103908836674572 13.562706783295893 -0.3062189007297823 -0.8494348917780468 -3.300325096316755
P 9.167539806691774 6.485376351187041 13.259096647581877 -0.1280162548416892 0.23844667828081514 0.2832736047875186
Ni 4.370598773143618 3.761316924638223 5.9153918161384995 1.5322550996159159 -0.3223913967245867 1.152328584789338
P 2.839116467733315 4.084709525798757 11.956595203121138 9.795903044499258e-05 -0.5374214958536745 -0.8529912416707373
P 3.9558102034322933 8.413393871523384 6.465614187752921 0.7810157797737001 -1.3614808849814102 0.5487513190441968
P 7.844171584758596 0.6863169117392699 5.51080777611452 -0.45144226347837735 -0.44783294886056424 -1.3559010769007873
Ni 1.6956333038535054 7.881333495638446 13.684804931508282 0.6120562497504298 -0.13053285061595585 -2.138195723386911
Ni 2.9863706549470646 6.972043272982584 2.4955611998031304 0.9879574454676985 0.7132281307057652 -0.7844685142089909
Ni 4.627917552128903 3.6571399164627505 0.8005720234339588 0.40270597461493873 0.5120745324484536 0.2731149190869619
Ni 7.188527322481071 0.7314519765799321 11.618706042288105 -0.7845721296663908 -0.40907125471133415 0.2964793048445152
Ni 8.902561632119136 5.509938480856293 11.153491887868372 0.023735910164359122 0.692864993668381 0.8541952892811676
Ni 6.322886426485674 7.540721096687547 12.624525874175776 0.7099132073999194 0.19212876905088203 1.5754568318143705
Ni 1.4243153644995263 1.0145653851384369 3.997431174490228 -0.2737551237741221 0.4395683948589268 -0.9626248802401808
Ni 8.578818359835326 8.92679485237503 13.573241682094112 -0.19807598777325242 -0.6909757470654682 0.051438775396266255
Ni 0.5296241343969108 4.281934348079401 12.861401449492789 0.5208088269976578 0.684577299738292 1.3111006327566452
Ni 7.33347446283116 0.6693868790349805 7.567155239651375 1.3371214823004391 0.7045012923557286 -0.20708230503692082
Ni 2.1953396545224613 0.20593438560033775 6.018175368008322 -0.9183463700377797 -0.06315940626730412 0.6385758933075131
Ni 5.513186802840327 1.3533413747858616 9.774300514384562 -0.21077003830115315 0.8049697194861362 1.351171532635602
Ni 2.743863116826483 1.6855930359028533 11.668138674026396 2.379473443358618 -0.8127007695818068 -0.29771086325877116
Ni 6.700799159128242 2.632478894248933 2.1929375573280177 0.6266182067250047 -1.3768540250033705 -0.8629257271756299
Ni 6.936320959345659 2.7038496960231475 5.532984956205519 -1.0361805421401444 -0.4820898131609052 -1.3001119949556257
Ni 1.217124099767866 3.4735358988651592 3.4630775940228116 0.7002355751008393 0.674727917748038 0.8805467826915028
Ni 6.608508056394351 5.164407457992068 -0.3457146637945712 3.2525894808036884 -0.7488016569350007 0.7571271460815606
Ni 8.192037339048845 1.7239176984019884 9.588992973382844 -0.06759121678641263 -2.802613774568509 0.6349334114589194
Ni 2.770551034945312 3.6186583747768863 9.685806810788257 -1.763287744820847 -2.440213184440836 0.3551282248359755
Ni 2.8853773714434436 5.2125509119429445 7.7435345092907255 1.111237728286299 -0.5537310316469755 -0.6903815651248949
Ni 7.567344417494195 3.7221709534556244 7.319893339354161 0.20284718390965065 1.8020034162234901 0.8317770694869675
Ni 8.66338546966968 9.15848695479877 2.8191199083378473 -0.8786022573706224 0.45772449694266326 0.15675013244127195
Ni 3.418508217073119 2.2858589452650615 2.834423011593883 -0.6021199644733243 -0.08457695271113176 0.004129705897657404
Ni 3.9862724502200724 7.285829331002834 8.526364419524386 -0.2979522898456159 -1.4676548471370272 0.2605764203003189
Ni 6.670364596902828 5.788343668175438 10.458831771851358 -1.1622854388917339 -0.5350823061975365 -0.1919012264211082
P 1.0151190763857156 8.154478616108445 4.628111344065451 -1.3488822223807932 -0.5082806126236602 -0.2576728735002788
Ni 4.924520725108605 3.2741978216574013 11.431290783271747 -0.28962680069905605 -1.5752701697248612 -0.7983992653574702
P 8.531662321942097 2.171106434266567 13.221683730003262 0.08183589963088488 -0.050962092870163844 -0.404162247445491
Ni 4.86795193601164 5.34294520067706 12.140551737479496 -2.9869181624789656 2.34814583688993 -0.7101818876802737
P 0.6569546648960846 7.715346087891771 9.839171903734469 1.3517374324414009 1.5684870853647568 0.6246605687780016
P 2.7354470098678476 2.4577247084203457 5.116650665095542 -0.1959761678214302 0.27459201785312065 -2.784273324388108
P 4.873461163922062 0.5765577729724832 11.908012487447422 0.4408076665826667 0.726950108277548 -0.08622014474150959
Ni 2.220320357962182 0.35770484775438977 1.8676227247206818 0.5509400991653995 -0.5520700990047847 0.453924920690915
Ni 3.8326600418500734 7.852716886341596 12.44659350058781 -0.8686492599229685 -0.03105738352643684 1.559025939951857
Ni 5.997989630770033 8.2389442158808 5.472057694173726 0.4234498920305094 0.4456518820488454 -0.48520213353764186
Ni 2.650326208786214 2.423349710151798 7.1354366372357605 0.35412600882370626 0.49100537048298015 2.2128433327994728
Ni 9.019344344357652 8.405660650436392 6.666306040060275 0.6024464945748076 -0.08424450907237749 -0.6788573665353792
Ni 8.87269921751591 3.865327825439512 9.536345241135356 1.1541072739563156 1.2453683235558424 -1.3479681952069558
Ni 6.498388095498087 9.267314969451382 1.253989785830422 -0.46470915579061256 0.3807047877534992 -0.4946511947656836
Ni 6.298099514982502 0.7131257191137552 3.525328178135602 0.05977866272052931 -0.07751361810644716 1.3721051974644756
Ni 0.9500695830179322 6.16954163555186 6.8609063658288205 -0.8929544123272364 0.6111517356582894 -0.6821648336420574
Ni 8.152263851119331 4.262361362488102 1.08128333479802 -0.2008702626889379 -0.8196815717750141 0.16612566011890098
Ni 8.081105297656572 7.099678333667762 4.280875874978354 0.0021116470263641053 0.4160245461007157 0.33879991998959713
Ni 4.757536673116828 4.341391559849671 8.907947202317667 3.7787521159140924 -1.650155863290158 -1.9910800287116095
Ni -0.0829383347486102 4.299357165993769 5.478729673703433 0.015324546172212319 0.3290713798479236 0.22939948047688233
Ni 0.995813708230601 5.9850147992088045 3.9959989597972667 -0.14638267316401887 0.29147336698949156 -0.3311650291521587
Ni 6.325451862598065 2.306982266348741 13.224695810388456 -0.05800023066386786 -0.06044740665277976 0.7000419710327944
Ni 8.278099415250852 7.768888031503613 11.201830979393286 -0.6372690015706315 -1.1576916488734643 2.0824112694274395
Ni 6.034856239651335 4.728717043695976 2.3986938389104804 0.7154454500720583 1.6962449443387366 -0.7064455605662929
Ni 2.0295737232746967 6.496210243258792 11.552740189906077 -1.466964505938222 0.08938748672589768 0.18259794674231133
Ni 0.9511492809501254 5.387351238708805 1.6525875006525745 0.10709287442546071 -1.1082693896865947 -0.26740835562048787
Ni 5.88530423376138 7.616752133126357 2.821227626352488 -2.0128901826081655 0.5158309141670923 0.9619458518952853
Ni 8.323668204901882 6.599907385686623 8.98627052052021 0.11767039283099089 -1.2975987416154686 -1.70927220983634
Ni 7.575096094956095 6.717631373045513 1.884275911801332 2.0002411263855873 -0.6867532243436882 -1.937802657444708
Ni 3.268808560183889 4.755801773875356 2.9207425542258747 -0.18271698881867884 -1.018713752813949 -0.8933228514102486
Ni 4.94684371056139 5.7994636340582835 4.184994084505861 0.07457844673752317 0.2846064646663292 -0.10752404842560837
Ni 3.6226634081322016 5.565270692834336 10.16735024290898 -0.14376014793950725 2.7324853931825395 1.5476225832109216
P 6.130921671054176 7.050575148221602 8.280589180226114 -0.6553842231141036 -0.7242553350542044 1.151814621267397
Ni 1.2985720822425513 5.737201053301803 9.36658350471973 0.49746809538918846 0.017636225024524464 0.5256085623791464
P 6.836545796586051 3.1891785306377685 9.167904320096232 -3.147428019072986 0.734350000286045 0.8527688412472861
Ni 5.1040827966010625 7.615875455318166 10.742789559561961 0.5892845032715528 0.3137635458462596 -2.694459291647753
P 6.461650681241152 4.9787640109670015 5.584120188529191 0.2302453734169454 -2.090515129481496 -1.5796420735403118
P 4.314952802792117 8.314310822822874 0.9511548178625983 0.2889544572223798 -0.1485547411146732 2.3243651895305644
P 3.247602185413118 1.3244110071155537 9.029856172687238 1.8957800331560193 -0.6487554049436762 0.4837695148561733
Ni 0.8352718539009101 7.586612872899491 2.087317260634639 -1.6628987647781233 0.24022253923431533 1.9667867033818835
