# total energy = -340859.27692052774 ev
CRYSTAL
PRIMVEC
9.39986301585981 0.00000000000000 0.00000000000000
0.00000000000000 9.39986301585981 0.00000000000000
0.00000000000000 0.00000000000000 13.75764967642843
PRIMCOORD
 96 1
Ni 3.3397807680255984 6.476543292286567 1.7082051660948907 2.2185339554263472 0.47683833495397876 2.220226769747738
Ni 7.4572028124843905 5.230676033891908 1.7619836630032248 0.9866220144857267 1.2448034521913076 1.4874538841408256
Ni 0.4740350973724559 7.105892328066421 10.395253170278098 -1.2088720284020213 0.8038415194189641 -0.9965233327598387
Ni -0.08464482745051016 8.014924891254962 0.18255850168767426 -0.5679739147192348 -0.04939320572114719 -0.35071029827393796
Ni 4.631039965448845 0.8589143729809168 5.7735350490898965 0.40251057077468094 0.7034139728288209 0.3695827096984086
Ni 4.677390690516137 3.6530218067890274 7.519491005479405 -0.5064520440553536 -1.5252496148323602 -2.298452583429861
Ni 6.895795987368984 1.3856338231940062 6.546068439901195 -0.03251185658477626 -0.681792023683671 -1.103113299406952
Ni 4.252216081665236 3.133322174357373 1.7359263024355829 -0.48818384187378505 -1.036787579596524 1.1842526871914443
Ni 1.7551142430317834 6.976399813662238 12.111354221397633 0.7998928191838611 -0.2822809018569461 2.4807152583199406
Ni 1.4005984052883338 2.5407642028471162 2.828063499359336 -1.7144743228625698 -0.13574499094451462 -0.9643102383624039
Ni 6.225942941385325 9.252407471742497 10.173782055213609 -0.5813099697065085 -0.8168225050596641 1.2876025496347052
Ni 1.8002429858928812 4.440589338681774 11.9100937520373 -0.28070430139844554 0.22632109866187475 -0.4228495394423492
Ni -0.004876648989030936 8.06849471120193 5.514395862526288 -2.09064574152209 0.3746992049893676 -0.6379590856591206
Ni 8.950540267359807 2.02656349034334 5.381593656315942 -0.003274814096529844 1.5686318384727371 0.13465895696918745
Ni 7.168232220308621 1.537902205949041 12.2957757759566 0.7230132351169871 -0.21378465675776084 -3.1883954626242828
Ni 1.0043753748611324 9.039932965674543 2.1183061544392188 -1.1050835357594453 2.935299152751093 -1.9451626973542049
Ni 4.4819957357455396 7.787100408704571 7.0707030004732525 0.367571849915967 0.9534092751791837 1.54247240646855
Ni 5.625724081428537 3.061845615158084 4.933630959292127 -0.18772164112212186 -0.39046752356721787 0.6211283872550271
Ni 3.3282283362454925 5.792881847372903 6.909063894169326 -0.87269900451231 -0.07959621166708872 1.2683503862733123
Ni 1.970277109953368 4.321906666870856 9.197552690506399 -0.83287004544083 0.5564348037313837 -0.2003799533160807
Ni 1.191601848576472 8.997144788731465 8.03792071640293 -0.25737462553356966 0.4563672115838205 -0.5767354629619487
Ni 9.016282910053103 3.2676556182707137 8.753992889370137 -0.24248151047182112 0.1358473208503338 0.05508768500276318
Ni 2.2838565437892817 8.00204707877429 0.5506543216872015 -0.5715965990734866 -0.5655791892348131 -0.5723725580075626
Ni 2.2412563641086956 3.028776896685819 0.10026551999093347 -1.3232141281907277 1.0258776175522395 0.7500884940672243
P 1.9013009143452166 7.499248400240626 6.362183617526642 5.07654549003887 4.064402448463903 -1.3247812155675314
P 4.911484881770622 5.2603044024605765 8.727660112812945 -0.2937894167171779 2.366337420197292 0.5039753003800869
P 8.422841351409136 0.17562234268804836 7.531983423571968 -0.48509131899139035 -0.08645128691570918 -0.23896218446465298
P 0.21753069244266582 5.915531261422394 8.802625901204078 -1.16266956170403 -2.782689781951072 0.25171614169621165
P 1.5423483412069663 1.8583247401396474 7.480969426408572 -0.7699813763364094 0.6311559466943581 -0.32968535928283865
P 5.303957366811115 2.5162963591338405 11.30164813187388 0.6215305077894523 -0.36029228553541826 0.3201175130887454
P 9.326797988510405 0.6026054852041178 3.8275979447113104 1.2011162957160022 -1.0541900913436877 0.4422932499892577
P 5.997667265404954 8.237165855109353 12.381292910705069 -1.0995147834224162 -0.2500816914165822 -0.6678090791410176
Ni 3.9324703376195997 7.984920528161309 11.527067189450692 0.35161018438038805 -0.01617352443606892 -0.3175384395076596
Ni 8.021814990925277 7.618175468492784 8.338277362781499 0.4311392902549671 -1.7799299813632183 -0.3828442026940052
Ni 3.0071572114992904 0.9796819344328667 3.6092786037524927 0.6603294829345209 -0.7158167173685478 0.08393289136922963
Ni 1.8413767869260336 5.719027122803095 4.727403602256765 1.2583791339932136 -0.17533612297357545 0.652620030105405
Ni 6.531325694576607 9.019215667347973 0.584269172207004 3.4677537915177954 -2.8790832676811577 -1.1762033345244065
Ni 6.566114588000668 4.278601497455926 11.93987909832015 -0.21433410150332763 -2.3258330323253427 0.6043239141031786
Ni 9.286152980359732 5.368252430583228 0.12360350015663511 0.41196888797410336 1.1974514452699054 -0.2151504267570359
Ni 0.12268795348830124 2.0805563041309143 12.694170174765578 0.4149845348719757 1.0842948811488682 -0.17007641723653288
Ni 3.8491593507464668 0.9828308885796002 10.924358305752204 0.04048844703234963 -0.06503142647903638 -0.46719207011346636
Ni 7.051673917563857 1.695754107400075 9.06223320095129 0.3489100118404055 0.9856000009791155 -0.30717380844388387
Ni 4.2642855059171945 8.955099200975228 13.73150992961829 0.41368612777552627 -0.280809202407426 -0.5502500150769105
Ni 1.6644431633321066 7.884501790401446 3.6691510319244904 1.6205771211917768 -1.7023248319842295 2.6207239096368156
Ni 7.815741791645159 4.189096000783697 4.668933633662954 0.26751119974693927 0.679514540503404 0.5353823539364586
Ni 1.3347147646481683 0.5701298980950142 5.432799410687078 2.1899466307069577 -0.509592132346232 0.9808259766292398
Ni 8.639367198483786 9.301925950682774 9.710658318956163 0.7111079990389689 0.7505808603226105 1.589543906035056
Ni 5.413860566463679 6.1327056990526385 5.2790026101879866 0.06709602231754896 1.118559715869009 0.6720159181335136
Ni 7.0050975957815735 6.370136841716347 13.213438353479814 0.03251956989426012 -0.8652379202485744 1.8127249164060524
Ni 7.925832988560214 7.643940493317251 11.68382212687509 0.9924021115026135 2.36880413657023 -1.5503438387968267
Ni 6.690681574127573 5.7009135865620335 7.56923884107992 0.36715430276257416 -0.6612730777947128 -0.8651916403916713
Ni 4.149043184009871 2.006184587089255 13.38191492022056 2.9036128773914056 -0.8096450134746185 -1.0091037405280106
Ni 3.4174330372977355 1.586095304188751 8.516095513495449 -0.6089711830672029 0.8539183814706972 -0.25410032565767204
Ni 5.345326164422383 4.649867891287373 0.649285205480771 1.0292925567710596 -0.20627729263712213 0.07699296971628676
Ni 5.885874693264351 6.913665127168806 1.6251498554987467 0.03941449724188051 0.7585913893319128 1.3122537725244818
Ni 6.66437135724188 8.382233942710961 6.283916597206158 0.3124363423944039 -0.551324993308644 -0.3498520640387007
P 3.9213596994063487 4.602398582508256 5.333111982278306 1.0010831842163792 -0.3403307548118268 1.614748944545774
P 4.828775486137462 9.48041995155538 8.534269208860508 0.8246723401213863 -1.1709531418690606 -0.554752016712322
P 2.2231334280045094 2.251088620937004 11.702160319844827 -0.3803713156734804 1.299263273802085 -0.7384689075504249
P 0.30729374536450854 3.534141737852493 0.9777079631767054 -0.848847394705693 -0.9828923722399654 0.7490402553083682
P 2.688257455134866 5.514702298064148 13.713130377250806 -0.9779237153807803 -0.5694484423822321 -0.7416894713702517
P 6.80182555571258 3.2869065379498488 7.337270898864215 1.0680555364718705 1.1020570902282956 0.7947220736161991
P 4.691753681370492 7.151970457103101 3.4036152385046066 0.7317025353608688 -1.138470338750007 -1.8310321993556724
P 8.321708224051806 7.325990123128409 1.9906494333032656 -0.26056742143925443 -0.3799010609052812 -0.17019571642321657
Ni 7.390783379646123 3.548476529117474 0.37331274403366793 1.422724819393556 -1.6778235044087555 -0.8719914369223241
Ni 4.117093049249432 3.614435368662636 9.816606056205904 -0.006354481463118089 -0.34436378723061983 0.8954617521301222
Ni 5.172020887994543 4.848346001162833 3.3071735828327506 0.49368625974925295 0.6440040063016199 -1.2921665148563037
Ni 8.452873914092164 5.382512022943212 11.634431486073307 2.76966971554232 0.0389925792131135 0.9064653023294775
Ni 6.866214618115937 3.134337359574827 2.7614767489574517 -1.056896177420941 -0.8185063205199904 -0.13769980067804025
Ni 5.082270994881075 0.5495310380438145 1.8475421571494441 -1.2905230657156097 2.0570859032887734 2.969697427725305
Ni 8.00674701033658 1.0272358419801055 2.336310599983363 -1.169745751824521 -0.1651149594661995 -0.7867552533606386
Ni 0.6178360834248712 6.206278427728708 6.807147758213716 -4.036856677635151 -3.129782280966765 0.6774142063309495
Ni 5.363928493545922 6.014831415470433 11.338202319592739 -1.8790161834341186 -0.7929513548690215 1.8880448692952903
Ni 6.067602247051813 6.862332474645487 9.70765882263311 1.1471750656128565 2.680944802101086 -4.250419191079776
Ni 1.6365067701258615 5.192051996313018 2.184109896242825 -1.6639768283336502 -1.638177607882359 0.20895329680738853
Ni 4.677475289284258 6.515580923842939 13.446080265881552 -1.8818050590331654 1.3530921466970824 -0.5265948375518157
Ni 2.2840915403673967 0.5179155384106098 12.941600891821212 -1.3449054971212322 -0.4225770025072529 0.4038809687596463
Ni 2.827384829241741 2.5546384008189933 5.6284613215704145 -0.2356066377288588 -0.9775676175929422 2.1410421916967706
Ni 7.209168624216157 7.766025915579267 3.849927319563745 -0.7622960918770098 0.11486840460582153 -0.19597771048332702
Ni 3.196103860166428 3.6761360702123644 3.7737649285968535 -1.1415024407081114 -0.17381223012988128 -3.1986521073552847
Ni 3.238929636562004 8.042504089662472 9.190673870671834 0.8567429954036857 -0.9461106846352415 -0.5876281986150524
Ni 4.082877547475968 8.250541860335627 4.9343321890812195 -1.700460010861349 0.4382699877624775 -0.188537709265514
Ni 7.51808572594228 4.938866683052516 9.72002716253243 -0.2102195651143218 0.12314967077800724 -1.8206611405339934
Ni 4.226159661083907 4.22152552856349 12.230990979315695 -1.2853528343685798 -0.23902851892621416 0.9893694953238767
Ni 9.133189007733478 6.128080966395346 3.7438141447230118 -0.3286021535209889 0.06817434298339226 -0.1502349570305735
Ni 0.8859737589576387 3.9396236334574035 6.722427731858209 0.6779798490264323 -1.1737242768562948 -0.03875629483259132
Ni 1.172614125064825 1.5247517974377567 9.840035215043914 0.03538634991909389 1.4476043562440555 -0.849411494739279
Ni 1.8594997230302195 8.949243086248616 10.65373154646405 -1.28666846785621 0.38972961695992875 1.2057612506871813
P 7.508497865555212 6.25921845684633 5.585041473825364 2.0149825463608204 0.9512024973358522 -0.5888978093560955
P 3.0245187586903857 5.974647000612863 10.613132597642686 -0.006882328942130082 -0.036813569283923694 -0.22430355401121374
P 0.7287300286507647 3.9089800796712795 4.481443963780126 -1.018030353593679 -0.19965798754839165 -0.31247902270688116
P 2.910818014335493 1.3164132311446155 1.418455325266094 -0.12275346378085311 -1.1517814540366162 0.2733838564776324
P 6.421836088901525 1.6397121234513425 0.370138410256498 -1.4054776022773343 1.944127571221471 3.033676758790743
P 8.2606279134683 3.1735535885305657 10.973569409168308 0.6522852724738056 -0.12298846260979464 -0.6301251914369986
P 6.342228648099475 1.0358367167390943 4.020054502269165 -0.5622496106409478 0.40661816518515137 0.4115719096460009
P 0.08662349863823379 9.38399615562346 12.207396382886694 -0.06011856255845131 -0.9325105773533036 -0.903644802161547
