# total energy = -340855.55221106583 ev
CRYSTAL
PRIMVEC
9.44675847126061 0.00000000000000 0.00000000000000

0.00000000000000 9.44675847126061 0.00000000000000

0.00000000000000 0.00000000000000 13.82628591566997

PRIMCOORD
 96 1
Ni 2.874743012066547 4.777811361009499 9.149088092187 -0.330997650336359 -0.7328955272277055 -0.6766225636675894
Ni 4.660586537517883 1.3083287879338714 6.083689659845641 1.2399738920131484 -0.08315436133199228 0.2956660649146005
Ni 6.038367892323409 1.9239645782574388 4.072795067223451 -0.4141779798102802 -0.5077298823265126 0.7590122789194154
Ni 3.486458397704078 5.672957835310014 4.520227547675343 0.07910127430854119 0.8274799847735104 0.33316277630847785
Ni 7.051419356711673 9.1338910921426 4.8568419961008455 1.3635357106279098 1.8820683399968814 -2.174431565790494
Ni 9.588648588964498 0.877340279619288 5.741185157632805 -1.349318281476947 0.5775330191625796 1.392956329881872
Ni 2.825223105164858 7.345241879482222 9.120578720374981 0.051445974485117854 0.8596588834989001 -0.29003997697707473
Ni 0.23620768869906722 8.35482638358187 12.090906866742055 0.4786000548400919 0.10832983215635537 -0.6643514596097204
Ni 8.449293966377917 6.347711438947349 -0.0628218872352001 -0.39955611613204733 0.41626854379072176 1.1941745742908467
Ni 1.803282241235487 3.392500939855128 5.368290434034479 -0.5654202950594456 0.04212726818735325 1.351003896709486
Ni 5.020848111268893 6.38666042333416 9.660951242809109 -0.14161687634425935 -0.9804950756523825 0.5894801642221268
Ni 5.055659415529237 3.5272778402302505 2.09408746941153 -0.7596761377556593 0.15720213237702604 0.09903863666241654
Ni 0.1126129160995133 8.359549762721672 9.532822970911173 0.6898380339165989 -1.4149292346085374 -0.89944002005158
Ni 6.907129570748988 5.366760059193183 7.902081990949356 1.5352008125078014 2.0236687612809083 -0.4130346102344564
Ni 6.376542945216703 5.3013979386565975 0.818483196834038 -0.9686453754026481 -0.23672403916275356 -0.383519631494475
Ni 2.473709229580762 0.8484492587727726 5.736553412048314 0.09591628898335094 0.5218583513080947 -1.0786379399734067
Ni 7.44208059860645 2.9776465500062823 2.48678165368808 -0.3077870165478506 0.5921008896744255 0.1430988602064245
Ni -0.02656522895807675 3.4295227855528996 10.110637719786514 -0.5157748641181763 -0.7488096273548007 0.8108665445865455
Ni 1.3321912993481533 5.625072217590698 13.857394929154308 0.8117610313763568 -0.9678668453654106 -1.0287269140755766
Ni 3.79360084964887 0.8108539948474291 3.166495750098034 0.8130501825014255 -0.1048110203698195 -1.0876206030879916
Ni 1.470132863746943 4.369201278383471 11.886457290027362 0.21253381506979524 -1.1652985146864447 -0.1616326573445539
Ni 7.641671707537941 8.88479896982598 10.633298515122211 -1.1533678246871297 -0.24402880035428295 0.06068497658488258
Ni 0.27388797344892696 8.144994988675286 2.5978207398582107 -0.9945728939016871 0.7525796359201942 -0.903670770303476
Ni 3.7941015278376886 7.843907908787721 3.425573095916197 -2.027676339778405 0.4939803939509041 1.0475808135572862
P 0.7923695229217265 8.50088271334284 4.787143813513921 0.3168506694120156 -0.31532754789926987 -0.038360344945753286
P 5.0098898716645515 5.276581304656075 6.930010563978019 0.1522447883717507 -0.6128918582778476 -0.35319269837615946
P 4.181135214553099 9.054878405891985 1.121727916312665 1.2993236947263753 0.6701585532098008 0.434754004189419
P 3.5102075480190047 9.316393015346286 7.956944039658161 -0.7767328361276301 -1.2337065709471977 0.15505448990640394
P 3.3387772255190153 7.592756393166147 11.25994733624814 0.3052542228236678 -0.8396004221861282 -1.7266999183944842
P 7.704539883888712 8.355638804793916 12.81522477704499 -0.7554875535956085 -0.41181796421853595 0.029548917301710397
P 4.992545623463196 -0.34366550880540014 4.5295052089817425 0.38430381795866714 0.9993515462372532 1.070210378031344
P 7.518637127704368 7.648775669764204 8.332342154200582 0.44899097372440744 0.4480836314187896 0.3153995387877858
Ni 7.073893194658852 5.420956111443276 5.320230051286989 -0.05290661819104437 -0.9660009958012654 2.644013990513008
Ni 6.357857257339644 3.032891192425411 11.369368192724977 -0.674740001932896 0.6063319456721429 -0.3225747163799864
Ni 2.0359464509038743 2.405824824583522 10.179257082577907 0.48034686232786955 0.8235472253780075 -0.9163550506393637
Ni 3.926469504851512 3.6172959998766046 10.807108476032832 0.8478716610559849 0.12180446960402247 0.8670598039486616
Ni 3.7597720082496053 6.559120442486625 13.139174901320855 1.3485361518952839 -0.8441019096009076 -0.9713722874155077
Ni 9.511090703488941 2.350514054856436 1.7148879793373966 0.676229441994229 -3.2744680260443344 2.1881031497403156
Ni 8.636226419214738 6.969563196218896 4.625472936992592 -0.13800833305739457 -0.9546811999130719 -3.695462000335184
Ni 2.6164025133941933 8.964907480037029 12.614342296256677 -1.4438544022833197 -0.5767830283704325 1.8650612639159232
Ni 7.588344757049572 5.577507789652888 2.7497028854502132 0.5818331891998303 0.09103222141817226 0.38843660918011813
Ni 7.16717993266995 2.2024361188236297 9.391891507516888 0.35366218181341025 -0.5372109225047651 -1.0536213633244111
Ni 6.186426934839656 7.533015093805926 0.3148245557777666 -0.06450717854445019 1.445462370200388 0.1427435337495348
Ni 4.83948924581704 8.949480923766433 12.302421673974061 1.8036854319116034 -1.1727508571994318 0.00021777243776091527
Ni 6.047134484006882 6.955260804183575 4.208500583937458 -1.8410152787103133 1.2665508711707285 -1.120195451700219
Ni 1.313883481802279 1.4794379206523536 7.78124000371248 0.6374523212260312 -1.839717385834496 1.486041320064015
Ni 7.644260119306552 4.37306500251983 12.837747738135224 1.2112929791386882 -0.18414652217635383 -1.410709540100235
Ni 0.051811690460320664 4.604132710038964 8.034316768671436 -0.03480965148001747 -3.084337518370404 1.6118579961512243
Ni 9.193093926280884 1.070402733903744 13.92859986968683 -0.7558783612761241 -2.6027043331309434 -1.785989814404053
Ni 1.9608069355478974 0.8340864074844613 1.0515942381690508 0.8436074864629922 0.04460426897293609 0.5947624956669886
Ni 1.0047572106187699 6.066500338480073 2.199278067530758 -0.4588845786890354 -0.5241098663464329 0.883362397763427
Ni 2.955966239754589 5.78254967811171 7.001548030401982 0.1276375313460318 0.36883863244353254 0.13715755502132507
Ni 4.415943838350956 1.658293395160112 8.514627746639665 0.7199628783264373 0.852778354328983 0.9097563143759235
Ni 4.031772519394266 3.471088521983161 4.851270298067535 1.228817875396329 -1.3444694380250781 -0.17811419993934485
Ni 3.909200830716394 8.18316933888317 6.148936529931216 -0.6593763749926321 -0.8281081052758126 -0.4136334201607199
Ni 0.16027842435091538 0.8870713853231089 10.574509448996574 -0.06689341938843964 1.6625570651679884 0.3740399741388139
P 0.6744654775098065 7.641974003802889 0.24871425198543604 1.045541157419438 1.3289651717418918 1.2550482698477676
P 2.9724224926776603 5.312478986118573 2.4820535511691375 1.2310027988627896 0.9533779077206161 0.1288922296887393
P 6.547746545517981 3.21818935607986 0.3625042341665881 -1.1590157670015264 -1.4845367104940304 0.4643204049926261
P 9.200537971805213 2.4785081827868014 12.3319824699826 -0.6847768173436077 0.9302562341014882 -1.1044009078701238
P 7.90226998143912 4.81243373010425 9.69432758448678 -0.40654617429663537 0.32239705315154155 1.0268073284553605
P 9.165811688369384 4.244589089917205 1.6520613687230565 -0.7868370144411674 4.480442935404219 -0.41378588657818416
P 5.952629114177716 4.188607600352266 4.023504716547957 0.20602172498289034 -0.34357163034662763 -0.6254038747019294
P 7.124745094477965 7.8487352022686 2.613195338958268 1.2114385035776167 0.14338708087080468 -0.964098893682546
Ni 1.1397797267091618 5.990387807021296 10.087575348798515 -1.1063156083943333 -0.08152248215552411 0.8197365933826656
Ni 7.132302501101648 0.9480010868749041 12.500386051129803 -0.03480759459748844 0.5857032136781977 0.5919954744448127
Ni 8.50492592588651 8.141367433495919 6.340775629018463 0.5967281040337916 1.4643283538669556 3.8607733920829057
Ni 6.429492025373888 3.268653938809509 6.704283108914344 -0.9720217480740485 -0.5104483096989403 -0.15328505671080697
Ni 4.402387740219724 3.9798531358895586 13.320243751293525 0.8061205452611279 1.251904324902147 -0.14423863023782255
Ni 5.3710961212435215 3.9409608320524256 8.83296366246996 -0.8585072863929601 -0.18614504066362136 0.7677000365014005
Ni 1.3410806988892614 6.482648934213224 5.47642558670946 2.7563753124262593 0.31476216231410303 -2.0668319269319437
Ni 2.7314073486901025 7.7207694146130725 0.9692846332788538 -2.817817478892141 -1.2764491041210468 1.1112382425069314
Ni 5.658674336791251 8.574775256605909 9.170712666564844 -0.4806993605712819 1.126637607781137 -1.0308848409588438
Ni 0.439314881062227 6.717712620484631 7.918313411025373 0.25294692877951924 1.444016896003113 0.1396165580847789
Ni 5.299574714308633 1.289085741318316 0.5897847362914287 -0.2739893512721152 1.08754964064074 0.9016881926558084
Ni 8.197207221686662 6.433317962477127 11.428973458765972 -0.5058961715518836 -0.5821396646966555 -1.0753826662609027
Ni 1.9937666751854386 3.5350903093274835 1.82324418615612 0.5099052927112767 0.7703179337402217 0.5488330801247258
Ni 0.32375079767616516 4.4290370453264885 3.8918093487236414 0.7380454468597611 0.9513865883222004 -0.9009425727390354
Ni 3.1084747054205293 0.40046697698900807 10.433784869608612 0.6812117257001687 -0.9178563177752385 -0.514346873422398
Ni 6.107281993973126 7.902553384187508 6.436923790112453 0.36745126517770266 -1.6798582754505973 2.188424023414844
Ni 1.717959120454096 8.291183573052171 6.856510061183553 -0.2657705629067487 1.3693859987610997 1.1009510016483104
Ni 4.55429161335577 1.7971985289034214 12.462488490939513 -1.7759661116194643 0.3792099483755276 -2.3612216962372816
Ni 4.632340730261864 6.610520254285955 1.9267901036588686 1.2631081640377666 -1.8414996745458994 -1.5320882350207485
Ni 6.878685381569098 0.6680586860445784 7.135248000333229 0.8225866612369511 0.7472700507818227 0.6371270766761287
Ni 7.0073880163704345 0.5871934904953331 1.7298478657489786 1.9471375616923885 -1.0470097715451645 1.043387344301229
Ni 1.0432999843995576 0.8076147014333527 3.508779198167128 -1.9540556289684605 -1.5594116054260498 -1.0173199577902157
Ni 8.178616001392399 3.436229983931419 5.085777570276273 -0.3434764995296601 1.049402183036741 1.723605852850193
Ni 1.7109401790523495 1.5589985188831856 12.426637098592584 0.34217989220542355 0.9737348741104133 -0.19506651152296728
P 2.374811117151579 2.234394502083533 3.594059808536261 1.2165578270820532 3.5244427595694074 0.9788531691735852
P 9.285105351924235 5.491202206010417 6.230691610110401 -3.418647778019764 -1.9750664268921727 -1.6891224743613427
P 2.8200935154190323 2.782769373456314 7.3798349636263065 1.764831178048567 1.7957294102893202 -0.3184344689593677
P 2.8229180961446345 2.6951884774460972 0.07979771186364999 0.2634761104456172 -0.5912555109549946 -1.234148800690939
P 5.50000658472701 5.690462678402122 11.8105648680365 -0.09218150453126704 -0.8075428795299512 0.25262117000898426
P 5.771024633010592 0.7881846090038614 10.699609090190068 -0.2417196926051321 0.9506612801204014 -0.4803872286475018
P 8.296105334115845 1.669317762072411 4.28432309991705 -0.6373867580954184 -2.7140912069460676 -2.469800668289966
P 8.795054766169734 1.8706376277690693 7.8846886196049475 -2.6934105386682647 0.33085598255217213 0.3232748277708046
