# total energy = -381170.3177169415 ev
CRYSTAL
PRIMVEC
9.28508079692267 0.00000000000000 0.00000000000000

0.00000000000000 9.28508079692267 0.00000000000000

0.00000000000000 0.00000000000000 13.58965429664183

PRIMCOORD
 96 1
Ni 8.49623898211567 7.998363660042996 3.113444538220302 0.3553953624544331 -0.4302674291729751 0.657034614233333
Ni 4.811909602324928 2.0643520329053495 3.845899072250536 1.2741011727141607 -0.14187398666038792 -0.4232316053721163
Ni 9.209927439171564 4.563598684248251 9.948618762031476 -0.22265650532609393 -0.004910035707107673 0.8603875341348086
Ni 6.388646327534252 2.988626124406857 13.319926709541756 -1.6409171183007096 -0.21773284277223148 -0.41900676865749126
Ni 1.198406819516159 6.02263772417395 3.560421832412002 -0.4163896427496184 0.8931246193565134 -0.5674856622289065
Ni 4.180124843745435 2.4283921991182766 11.453115700948306 0.7855818018778277 1.2553719717357734 -0.13196212686331465
Ni 5.186729747444 4.454239001598319 3.1686721993174145 -2.278499537346702 0.2328064492759023 1.4854797911335902
Ni 8.082272935990305 7.299912020717492 13.349171928801605 0.20221212142881304 0.662931182223426 2.8527024636947838
Ni 8.540853795762548 9.123966160348923 6.235517702105962 0.699327204353957 -1.2920521007656265 -0.656001030762496
Ni 2.037481008827501 1.276670766286092 9.680250212229515 0.2615680947896269 -0.12002706598862556 0.7573096944060119
Ni 0.36634658030447415 7.328268657736755 9.73371185094252 2.5944935151853765 -1.2185853990350433 -0.24237172436683416
Ni 3.7553881037948105 4.876385203982351 7.25813937032916 -1.8682108652884988 -2.747114970170256 -0.39823482621746253
Ni 0.17616398259302218 2.031603552628027 6.076492121808341 0.11695691170373405 -0.6307808227431266 0.4010591830401351
Ni 7.889811779429959 2.1659958133408055 1.3706255712416353 -0.5908338500365438 1.7709704581770853 -1.0987069428091398
Ni 2.178140699136875 2.983723601700187 6.277550334759042 0.35915097284212344 0.5632903932006363 -1.1329110994946747
Ni 2.4033317658127777 8.24633103012697 8.98013840044198 0.7979981732643096 0.8141603848464689 0.8123845238929687
Ni 3.100520634138078 6.4972353484708245 5.154542086052062 -0.9250114407627811 2.3587436670104345 0.8271565399958206
Ni 6.3448671711669204 3.0409754104299775 9.283106875649503 -1.0146766066300978 -0.2337479872535652 1.9622877870702655
Ni 7.214572842314069 2.9663976407709307 3.368141734928889 -1.0039041986049422 -0.8994652168625606 1.6809278543656923
Ni 8.618114953797026 6.250651455438542 5.252456049496476 0.6823306697959604 0.06058573200285695 0.6781665111159417
Ni 2.74601624599286 1.529002124385475 4.467571449239433 -1.3683786405425078 -0.29221564447215476 -0.6340538370674434
Ni 9.029546172841098 0.36353320079666895 1.5429965982936067 2.8182910760944493 -1.7874286037331089 0.8210877080939215
Ni 5.96449454767931 5.719284846617836 8.648578375668833 0.4404600534352608 -0.9384421123463902 -0.9057474503268464
Ni 2.2351139554401502 0.9580903560804723 1.2753727119785305 0.31548978450874693 0.1238371837633351 0.2986395457206276
P 0.61952102374811 4.4176836381586195 12.267952115120458 0.9190719353498945 0.06341780213501336 -1.6366609141275168
Ni 2.90460542748894 6.446668797977402 10.458054009804538 -0.2144104632672178 1.0501601442486883 1.1046112241087171
P 6.056379708105845 5.977475090754926 10.832259482569098 -0.3752383653222892 -0.062313513327241075 -1.4134588207105978
Ni 6.550476002258794 1.511824724750361 5.582928791298125 0.47862550876138865 0.17572178844776834 -0.00481747599330138
P 7.827629592750847 0.30783478609874554 13.204496441009967 -0.8418349679436018 -0.5845670431912254 -0.5820933848397523
P 8.87364037972045 6.368701973795753 1.7130574972216774 0.1328473576817454 -0.3477224192902076 -0.1588044438671394
P 6.701386421863933 0.7049242692096318 3.612551062018175 -0.7870709848288445 -0.7610511637263152 -0.7362063367684933
Ni 1.7024938607001263 5.4299153008727945 8.739139483561331 0.8303300526277959 0.591824238974271 -1.3928881956480978
Ni 8.408039998800023 4.5476097749662685 0.08812377416048839 -1.02871740099388 1.0718437998697088 -0.10875869216365786
Ni 0.3529119967736382 3.924051598049863 4.369101309450075 1.3410570699094195 -1.0780054485957304 1.2430008517649302
Ni 6.231709890435497 9.027252757862788 7.147329358045172 -1.203332843751347 -0.9966560016829609 0.8567836188336341
Ni 1.3051109690333105 6.844775925953157 12.630197475198537 -0.05478995125668629 0.9359036621952528 -0.4235648203418189
Ni 2.0185580139862243 0.5309376380838713 6.648493958609108 -0.09113995064063013 -0.6258733581391801 0.07410999174153689
Ni 1.5456131340866743 5.330964193893654 0.9342973363156185 -0.0006579452989730605 0.5450021364144098 1.2217563405638572
Ni 1.9794306831416997 2.1534145287431947 12.227509088314692 -0.12243053322379562 -0.06295963155167221 -1.4323733982269138
Ni 5.015596421673846 7.396987541358095 0.9172972817253858 0.5809471870504511 0.6758574033667909 1.2542010913561241
Ni 4.839662709086742 7.668966130607696 9.317570310366072 0.6309967954086746 0.8265608153933506 0.9452316244643978
Ni 8.73378849144797 4.22748804133393 2.4256577427979837 1.8151204132214225 0.9806889368307433 -2.0860707205568976
Ni 1.570989260142224 9.119574317090864 3.233603698446234 -0.611622761757437 -0.790365082199084 0.4265958938586588
Ni 6.474004076099443 4.424480317365595 1.5392454256165333 1.358547513384699 0.3837911399883068 -2.1352122152785546
Ni 8.817512065777604 1.1185736940768563 4.154534232321469 -0.08015362683245551 -0.37611999659629414 -1.369914360460744
Ni 4.196763708689286 2.201427681993559 6.191718118560686 1.0177974116472666 -1.3636251850179224 0.22716827715351845
Ni 5.575440373565304 5.87872825555523 5.827773588680864 0.8550249842713147 -0.18563133425199643 -0.2067650309068181
Ni 7.974046033208204 3.6697518028031046 5.994138096909075 -1.0572345345969663 1.3306973239416502 0.8251665061489852
Ni 1.3704036578085115 5.115160343991319 6.310002620956171 -0.45958289030764077 0.1817029457318677 -0.0931163576407106
Ni 1.0835132286594562 2.736851871160505 8.075013859755316 -0.9843982673615305 0.6380418751809139 2.53085614084039
Ni 4.0969676593497155 8.635385204240977 5.255296355738844 0.12420562284634738 0.6913488141341707 0.4983612966274192
Ni 4.055416922394508 4.630005582729512 9.712213174664065 2.5318197903052395 -0.5008292985519375 -0.6963128430076653
Ni 6.523493557210339 1.3709236223380068 11.381063473289666 1.3286692377680278 0.18260077495578872 -1.874449647109359
Ni 1.4089738838000052 7.338556527356056 7.19470276922264 -0.76873079175876 0.19206526280279826 -1.0619149707917712
Ni 2.736081209447146 4.942671396412123 12.395517984367434 -0.8335303047326482 -1.9709673171221347 -0.3404657377277943
Ni 4.064664862954817 6.584914367256976 12.718081694272223 -0.9810679174367167 1.6070436054817163 -1.1970159003943837
P 0.5736898645054491 2.1586420292807995 2.5195085548476284 1.31266566325092 0.711432215147607 0.28026078610312377
Ni 5.590751471942765 3.621246540265896 7.2488710025909056 1.6700307478372143 0.2883672172603421 -0.8903889655929053
P 3.230678897967823 5.701383210673783 2.7689188265009537 -0.5391593044803876 -0.6710895496645023 -1.0027047789802022
Ni 3.920903955630239 9.068218534722314 2.809158510035363 0.9035532708890052 0.3065266617781882 -0.16415131000134955
P 8.124362207636777 3.623057131038246 8.30499138562684 0.14310734484685675 1.5615001125239623 -1.2024576402352454
P 3.5711349587357826 2.7462947984193757 8.499241777273506 -0.33905574475414507 0.9436974472080586 -0.030206605490367334
P 6.864525292993098 0.20802666615402607 9.3131394697683 -0.11862864297920214 0.45657804204304586 0.6183012022188772
Ni 6.716001139175106 8.031232846371807 4.826963503961907 -0.5672432072007972 0.2103488916033345 -0.5647757194969113
Ni 3.9733739477048493 0.67875055470616 8.186720810852684 0.7442410341475117 -0.602139247747034 -0.1610202205715356
Ni 3.249657603294403 8.952814264417 12.876578024959464 -1.4281061383101277 -0.805391380404587 0.26800382311264165
Ni 8.554632855794173 2.248205919486373 12.617043301110392 0.6135084088159241 0.20402989136384214 -0.8985442477101881
Ni 8.604995134508151 2.229106508108303 9.836069654097944 0.4996283362653009 -1.1293992296866742 1.69796681212585
Ni 2.537315482966667 7.564508970664434 1.4122366612225885 0.1867191679995365 -0.052828713765257405 -0.02777922699579732
Ni 6.063584930871708 5.717706382867583 12.8879661766635 1.552842179738648 -0.8562696553116931 1.3772895698788925
Ni 7.304535990997647 5.861829408346631 3.342701541815241 -0.660797680820191 0.3071023317760001 0.09256537023324704
Ni 3.0941882089752957 4.4388721927355554 4.678564698735848 0.0991489369880357 -2.648033653195362 -1.0330242558993499
Ni 5.531085542183174 1.7253537298361539 1.4721941425219318 -1.901658860534299 1.0046845284143922 1.0853271790681243
Ni 4.812197439832327 6.805574314461563 3.6303403484835344 1.026606011077832 0.9820207682682892 -0.5910534222465176
Ni 6.323771467398824 8.097946152522237 11.763653374092339 -0.46706814294109245 -1.567543747614881 -1.0159361900688118
Ni 4.357330612413625 4.320905240106299 0.38391766736906313 -0.1955516786895019 -0.5672120968525457 0.49991578559873256
Ni 1.1112849055830376 3.057484284241455 0.48334045645710305 -0.47239495447064445 -0.12283831018517553 1.371947845951005
Ni 7.660730263863725 1.5893365799687023 7.719671028806287 -1.0672849768544328 0.9500249320879831 -0.7697204093655389
Ni 6.852677529785311 9.139518670829363 1.5920004696742776 -1.3203244653477584 -1.385590376435104 0.21196688682273174
Ni 7.478696253135936 7.371685695949617 9.518466034401305 -1.9290585927034907 0.842779077024426 -0.5798428982426789
Ni 3.2053027719122733 3.052191788137663 2.2855755845195853 -0.3606473548819918 0.28001653130280163 -0.060597816187714995
Ni 2.131650299151461 3.9154257579087703 10.370210645086742 -1.316650616040597 -2.231692604295492 1.0192649973317285
Ni 8.777567647815301 5.882080169754299 8.022367451143912 -0.8554795553102299 -0.4091800123750566 -1.284709030136994
Ni 8.612153931869596 8.478987301833484 11.335497867360283 0.6303823017531273 2.145819558480756 0.5579970060121809
Ni 3.9453237183547527 6.910467873206365 7.360129484281583 -0.07968260073330793 3.517537547809142 0.23333841051997237
Ni 5.4688847853422935 0.36322400760323686 13.095752359222635 -0.3635635000875222 0.6289648525803103 1.917818758123613
Ni 0.7725837251021249 0.3458571923180925 13.116299314710497 0.35738385363937164 -1.2560754255607012 -1.4419921522636003
Ni 7.212985093482931 3.9352308354340124 11.492540154381114 -0.16206100313122412 0.1390491156170831 -1.6118407697600434
P 3.7347473689900226 1.7944625868546151 13.508755542460342 0.9230841418330812 0.8578956209508902 0.6032404512310127
Ni 9.173678483401032 0.16131063870313464 8.461068024235752 1.4819213843583703 -1.0642171365623865 1.2670789757600565
P 1.6348706166230804 8.801718143194183 11.184992277281678 0.1276151627485286 -0.34334588748906675 -0.44891255507798816
Ni 4.441657717000709 0.1813970541791574 10.907790830034916 -0.5187442311591453 -0.24130188834142313 -1.2693261199230204
P 1.3678874008889894 8.13636781721959 5.125582847283436 0.137959224987014 -0.19102550868437423 0.4756006058921357
P 6.0126655473047 3.6434564537400544 4.982048495932423 -1.2549415690665742 0.7011298047803344 1.837857964028254
P 7.421398019001726 7.162706380496909 6.779715364200053 -0.8045046069242596 -0.3393725046636155 0.5636698880272422
Ni 8.205420963752747 6.109518226004092 11.49009353556822 0.48921511135177687 -0.753720948613489 -0.6723162229827518
