# total energy = -340868.4820616128 ev
CRYSTAL
PRIMVEC
9.24858018514860 0.00000000000000 0.00000000000000
0.00000000000000 9.24858018514860 0.00000000000000
0.00000000000000 0.00000000000000 13.53623196177897
PRIMCOORD
 96 1
Ni 0.4138471500802756 8.439255586865984 1.8292730093239047 -0.6308828955386296 -0.2520174749867144 -2.0454040960754707
Ni 4.929567318775688 4.782228185112749 0.0025174635730997323 1.449009721232014 -0.16280508038610025 -0.8821755765441776
Ni 6.005574903217797 9.117065544049426 12.999899809786138 -0.6654593479619184 -0.07585062858172743 0.5430578682038454
Ni 8.828445096857203 5.478757268938198 11.109957038180172 -1.1068264865924808 0.9336032961968501 0.2950654552161241
Ni 5.07263360831382 0.8718849419630048 10.527818095638803 -0.18771701313643155 -0.16409603128338193 0.7067245252592926
Ni 1.2433791431577077 4.269542381618221 13.02610566222691 -1.2709202038830176 -1.32942154255302 -0.8420059463038273
Ni 2.6577645371112055 2.109749156653999 7.276902331355482 1.5802401121356267 1.5657946261342581 -1.1038404073809636
Ni 6.942150890201965 1.7090914070204446 4.667522667238504 1.079439609939096 0.3918777736511832 -0.5818499013703785
Ni 8.976089433671913 5.242252572056102 1.7845089555393343 -0.6900300953227472 1.876367432957362 0.3266234325280633
Ni 6.059272160768924 6.543796037077234 2.851069115147052 -0.0064578398102017815 1.4945133620907682 -0.005919707918544643
Ni 4.468322119225247 0.9405066336357751 1.2291058090931786 -0.5281210443883549 -0.3001467263937734 -1.8780517626383206
Ni 6.1166226075609575 6.280553694383856 7.7396254540469265 1.697547208089928 -0.28022890442392384 -0.6990382123586284
Ni 7.550513257486783 5.183838538523046 4.138919132092022 -2.260009191851998 -0.361173659699107 1.9621530612646143
Ni 1.0414641368097526 4.050443512967476 10.522633341490826 2.3450026632752583 -1.3929722707214718 -0.21257700960290485
Ni 6.698145594650567 4.282841840171187 1.9915449008308064 0.5202899783797104 0.15254894987573084 -0.8866145861521375
Ni 9.013675664241632 8.8847134597475 9.486746098636177 -0.014595895536303896 0.8346086253984917 0.28189729326528223
Ni 6.290560658329829 4.8985660774199555 11.296784835392206 -0.6189971998446372 0.6139375259335427 0.71025850655448
Ni 3.510446651679548 8.48646958958705 3.5841504382583373 2.161544939635813 1.7737356796270483 -0.2680282485926739
Ni 3.8202370993083083 7.707544903363566 0.4863375229162628 0.48054098061654654 -0.6378585555255144 0.5805774624158582
Ni 8.961014247690457 6.989096684092686 8.265669907008704 -0.7459184218499347 -1.323322628744134 -0.34044748289534915
Ni 4.136483056026061 6.276373336062617 4.507782112175238 1.3125692468823715 0.8615273041662067 -3.837387151948482
Ni 2.5125433283499565 4.76394374174751 8.516036376129454 1.4981399030997617 -1.4953314871166892 0.2840855591658527
Ni 2.3491024162859646 6.862687087777009 2.7140014548282894 -0.7793008539651224 -2.940210216899465 -1.4405988714604996
Ni 7.068680718062279 2.150100712750377 13.34691486849267 -2.390738474749476 -0.19800888198074287 -0.33220555460153106
P 2.391618140185816 0.09190221814671098 1.7376870926253933 0.8510282044070957 -0.39351273815144483 0.1785194057975635
P 4.326328665008494 3.6345903458078275 7.189471801811246 0.4999391826375003 0.49450258500296124 -0.09390517209059313
P 1.4343900732650874 6.065255992259725 9.83525017878014 -1.1104242312460681 0.4691116557336824 2.0384775441589666
P 2.0912612445209118 1.904338186931203 4.884915172813433 -0.4639167417963042 -1.0175768109960281 0.6600895990095728
P 8.182024821404475 3.285289962895151 3.483197559374538 0.552346492594623 -1.4959593505086752 -0.871177682771777
P 5.966777108621347 8.792264650501707 2.2742629040393703 -1.429720276874783 0.06105907209484969 -0.5508261992953545
P 7.991430077413148 4.415808679959779 13.301162141467964 -0.5029592004107467 1.1316414887536317 -1.3745171493400778
P 3.8213746746921857 4.3786201383454 10.374546922535066 0.7063697130230351 0.5203488566421037 0.5447614811585134
Ni 0.1165876039768377 0.7579008133565843 5.215686024981418 -0.4640892628184265 -0.23528910648843993 0.2955035711948072
Ni 3.3424184437586226 3.2304088870583625 0.0550817700305293 -0.6211435567636786 -0.9771752672505302 0.628884119941046
Ni 4.859241113743173 1.3125215299045612 3.3343527568295253 1.2619403689819106 -0.43375795882473683 1.685192800289633
Ni 2.6301760219071033 5.965112364157138 12.050901129666821 0.877933770548688 0.11134805015738888 -0.9288151307795875
Ni 2.0630530744329096 7.219219860528644 8.269243558458541 1.550596578237581 1.1921279761744632 -1.5151860599487712
Ni 8.896653376988029 3.0271158422372553 0.9782787606706634 0.4626736134178225 -1.5200174198991436 1.8875833562778395
Ni 3.1650954125791912 0.4958552369613654 12.636831065296409 1.073251993071145 1.566461827404612 -0.7578509116214626
Ni 7.3881729264852405 0.30998559267428744 11.180738273366238 1.0425733330403657 0.008753577822913956 0.6641840807939206
Ni 2.9667226125078607 3.864297336127732 5.086185553110525 0.18540302029127426 0.13209222468327575 1.6466537636741705
Ni 8.005043987698242 7.217915810698345 5.553185219358918 0.6316706815472476 -0.25544681238323746 -0.0484714652378262
Ni 6.407481211199508 3.7877930794169274 6.038053142856498 -1.4129682542274247 0.7750623904037426 0.06024223262050916
Ni 4.350245493810977 8.094468511167387 11.416485511517116 0.4529054782874652 -1.997195397580728 0.8755693840815695
Ni 6.591490965976849 2.720284940322646 10.978790896987032 -0.33571151087226053 -1.4033459006463123 -0.17379320396648779
Ni 2.1072705371183975 8.134191163799509 10.477341193767888 -1.529293960105063 -0.2567449623693707 2.029848921949691
Ni 1.5773176340978694 1.7030058411457214 0.5116832573838594 -1.036779609176724 -0.38050732703071244 0.4057956692838559
Ni 9.249505214757686 6.687232269829636 13.26935164933102 -0.10722991422395727 -2.095824457509552 -1.0601712486277872
Ni 0.7173319156218232 1.6545617772372117 3.128182478659442 -0.3852970351098719 0.4708816031499117 -0.9745892516909086
Ni 4.726302019695651 8.0709586199006 7.43780728268566 -0.054425111718099814 1.4351293637054963 -1.5692460750179684
Ni 6.978756771253871 1.7382799266262594 2.1246338218801073 0.3609276051265719 -0.23402489506403565 0.482771155498646
Ni 3.5823728611137753 5.936460262212012 6.6481579426805215 0.993657066955637 -0.8150972948384414 1.8595745297697395
Ni 6.274468128509132 8.145354200290072 9.368832248236187 0.446166874012051 0.18187778074683517 0.19953380326570153
Ni 4.572738591452638 2.0143408016940545 5.47430962664465 -2.640489522299517 1.9386696334306937 0.18961345882819602
Ni 1.2591757184069887 5.440199937431023 6.681551791774537 -1.304154026235483 1.1296799941518867 -1.1715468095890018
Ni 8.783617227868172 2.349352127955596 11.998787229072763 1.4832491020308585 0.9334179196589215 0.5382326789010602
P 5.837537446716515 0.7362646844700688 6.240094854755339 1.5472094069329032 -2.5819370186766046 2.3489598481507934
P 9.142378908485775 8.096336724399446 11.51211860697973 0.5274451013672529 0.12989084615658278 0.3506398500473187
P 5.740214635622729 6.359342350442771 5.7045881792306 2.3844089329870224 -0.31293076553231913 -0.015027326646767668
P 0.8600902274340771 8.125617729808827 6.625877187743142 -3.551960248263386 0.29677626725964373 0.4285069948384427
P 5.536607139069493 6.66904956084832 12.951778521332077 0.027984143917751805 1.5045550625974862 0.11592384245352938
P 7.095575589739626 1.157700294733035 9.215723850146723 0.7442952844242149 0.21849774596271404 -0.3198213220045653
P 1.8490039306569352 5.918656745025323 0.6662686537562895 0.9734926761926201 0.96288327610789 0.5898552881733583
P 1.7653782670714548 2.045702737683699 11.833631630210636 -0.13620598974133316 0.569398048760271 0.2984906788475892
Ni 3.1455901566068643 2.3140780424750584 10.116140662510215 -0.3784908108213159 0.21157479359063563 -0.4716609045180974
Ni 4.517200866410523 6.273302807384185 9.330876999310235 -1.1880944295350375 -0.42439682932481104 1.1339038024252472
Ni 8.10100725747959 3.363690178579083 9.082364870551006 0.1185381401479249 0.3892459924552909 0.22163243493695378
Ni 0.49955096967191154 1.9081116077167457 10.023755668468885 0.6170038235636922 -1.5846521251603936 -1.5937155209142424
Ni 5.849884301492739 4.192705176014575 8.975794403958535 -0.9828820878273202 -0.3054113172268224 -0.25992233165608786
Ni 0.5012638067539764 4.808309181718705 4.230112908983408 1.5084163453251054 0.02913291281021434 -1.0343807699272443
Ni 1.7408972748672118 8.082010673426883 13.064318946544814 -0.751011520102126 0.4845051074706172 -0.19601267748632048
Ni 3.0300846365317633 2.7592307122048028 3.082511139141878 0.3990863755844804 -0.5663636328093213 -0.4191731190320265
Ni 5.210825896003961 4.012533582085273 3.9730874620058176 -0.15069389894486307 -0.058621666297950646 -0.22546543552979878
Ni 2.692677927957831 8.2957731112118 5.942149063989433 2.2373978822103853 0.11400477105394559 -0.9308326754302486
Ni 1.2754439712544627 8.50069390617569 3.875639795077216 -0.9076883761033012 0.22113569780619335 1.7369851023705762
Ni 4.183761798809624 5.195214292361814 2.1022309856820196 -1.1025126897084754 0.5610015971664596 0.6155107839579335
Ni 0.491779387598158 1.5863997400081702 7.263041483974863 -0.5723787286551497 0.41564505127411 2.1959568414567796
Ni 5.953967824827288 8.367625332003172 4.762046857916347 -1.1659304918434887 0.15193137089638994 -0.04152100206192204
Ni 5.1548719848457925 1.9219474839304018 8.452172154192182 -0.5463018290624398 -0.2918343498733361 -1.5541680976389232
Ni 8.113529835282591 5.019694734351944 6.994577392812079 -0.42098034744409435 0.866504959886456 1.0624592733310154
Ni 9.096505949916434 3.3244022092237278 5.878406923312869 0.16344477085262818 -1.0078202458298966 -1.548826887931668
Ni 7.493726974096509 7.454022818625101 0.741142385750204 -2.152377928424564 1.1202759272291676 1.4025725128153974
Ni 7.456408952357136 2.043908513094495 7.086921693099842 -1.0001388180252386 -0.38541093497991685 0.9520327065466314
Ni 7.790356691877655 8.919432630406634 3.333703506488483 1.041395767792497 0.2698449900864385 0.4236077577646124
Ni 1.6913248841551818 4.0652689872793015 1.8754178761557332 0.2274917219312082 0.08618852017262577 -0.1138420202238362
Ni 7.15142776651387 7.059247166098423 11.619569538422162 -0.009158783681132614 1.7419208491092968 -0.38557857090603276
Ni 8.058833731052937 9.049236455713228 7.189945329125511 -0.4895719804705633 -0.5354198920426133 0.14979786949315493
Ni 1.939242329197472 0.5096772403044865 8.680839604079992 1.0825542443086775 -1.4566489829448268 0.35227275766505134
P 4.932526864489839 2.1186462909571655 12.679131297273948 1.0821678075035364 -0.990349856959275 -1.105435262671909
P 8.321289944415994 0.5194021225495796 0.5499187382946196 -0.27374766757495433 0.18173842695549344 0.32161852311430417
P 0.634986255557713 3.843469533164394 7.892584025134609 -0.583148565577144 -2.297586378774824 0.6466324450634025
P 3.859784028913652 8.342385956209677 9.313942848677076 0.43438479377545836 1.7386673751690056 0.2800756666755112
P 2.23575181543398 5.810170897440973 4.830215369151636 -1.6329533833689425 1.7991723745325983 -0.913865965668923
P 4.918986942847598 3.1478838045353315 1.8712893098844927 -0.5620454650499417 -0.9039052549117851 -0.09797137174016676
P 7.339802851219585 5.783303771504697 9.47566075022061 0.08555577168463331 0.20407180034537115 0.19313278483536414
P 8.412980370072537 6.859218870143238 3.2392607033177807 1.0936205294251682 0.8089634140265617 -0.7085798333004765
