# total energy = -340856.4285653841 ev
CRYSTAL
PRIMVEC
9.36335206875523 0.00000000000000 0.00000000000000
0.00000000000000 9.36335206875523 0.00000000000000
0.00000000000000 0.00000000000000 13.70421221475161
PRIMCOORD
 96 1
Ni 1.6407308100454685 3.333662307568486 3.7588867669225996 -0.8022626049676183 0.35042027783734486 -0.6012061944098033
Ni 4.931050161141565 5.9446704700553985 12.825882135246122 0.7732875578915069 0.49154658769843085 1.8018506926957099
Ni 0.6618550914496515 0.4393284764926661 11.379456797187714 0.2530842256883319 1.64552479227605 1.138676284113226
Ni 4.449502330418178 8.938649093263251 8.076823701858125 -2.2138864293520064 -1.5322278459224061 1.9710400793415987
Ni 0.5375275670737506 6.571041266377935 7.231685676412187 -0.5708041850791783 0.5771244708702512 1.5887887730365864
Ni 6.943328142451003 8.057988382946942 0.4234547858234841 -0.722819373938626 -0.25230029633445583 -0.30039560917978586
Ni 1.0894540968744924 3.3545706726155475 7.684897194935878 -1.3399198709811828 0.8020389189925864 0.13165308026332811
Ni -0.23310813906790528 5.112783460379548 12.45436024503259 0.2544227419940973 0.5423708694391499 0.24614224715285993
Ni 2.5818694110196234 5.1714448607466945 12.035518782746358 -2.729593673457041 -0.19638085945901662 0.0795915836813984
Ni 4.7089514513716155 1.045792786433629 11.968327368694538 0.19310373136964162 -0.32762282032685514 0.1484585818564411
Ni 3.1733991744984 2.6866172299992366 7.677181792876416 1.79961588982792 -0.3874212805417263 0.1857866288829381
Ni 9.240448655375605 5.213561218105263 3.555530678878894 0.6337753865950763 0.4896223740925245 0.30383523098895415
Ni 7.79431639023523 6.564655460304447 5.751685230702299 0.2291102313712377 -0.28392332255637553 -0.23991040731053523
Ni 4.326954779260121 5.088326384919214 10.929411027979926 2.449122314005008 1.910190295044078 -4.716264774467677
Ni 3.5557610173384364 7.4746234624242955 3.392861164341232 0.21070961737686295 0.5972808912134682 1.3091877320046486
Ni 8.253897797133986 4.326495975011439 8.226405122950741 0.5203262309342845 1.3944542545836374 0.37669540948378993
Ni 6.174887206021408 4.04613848901094 0.3261686220637559 -0.4376750344909559 1.186751799464214 -0.06906060224308751
Ni 0.9625900404380232 3.575545780143828 10.909156224903436 -0.6994408471136857 -0.8840902770683872 -0.5641357719200671
Ni 5.8710370698180085 0.6604524613179678 6.848282628828205 0.4455379821788005 3.2920422874826727 0.40069999992850347
Ni 2.9939973499118806 4.660805095316089 6.1615369387199745 -0.9045570295631711 1.30683131595733 1.6960595678008084
Ni 5.022099396124827 5.212381435751511 8.031640846715 -0.5110527760521585 -1.4606907571143684 -0.08745658825177197
Ni 3.245075634164882 3.1511705768173766 10.345611647923834 0.1032732435690544 -0.5209386677073028 0.42447807618470773
Ni 4.736610793220706 7.994982387245341 11.074798603705514 1.6312176316247584 0.14413604322168724 0.7757218783646125
Ni 2.0230364727734216 1.5066850626143302 9.287043504002424 -2.9783617882685225 -0.6112324682975538 -0.26378489993528764
P 9.292012634916206 7.437273051240807 3.14917337383281 0.9431369467188984 -0.6436023999878271 0.3987572743798358
P 2.597983739835563 9.01194541282814 1.9727758718331545 0.007538217358574114 -0.4519667685232797 -0.49176333169492725
P 4.192075693499745 4.282488220546062 1.3729014890395816 1.244917609171669 0.37705999191206024 1.3725132315361719
P 1.6500754353553508 5.902703926329053 0.06555563645498941 -0.2214066920793929 0.6067844598285291 0.6647404675180228
P 2.1664081188104145 1.9804332211101303 12.283249668654387 0.5208504788688707 -0.33267478092846575 -0.5580581982674195
P 5.276042866094086 2.947208679898371 7.37075579853399 1.6813150625017819 0.3651041051017648 -0.11674119614850219
P 1.445626644131622 0.9707174299860971 6.949775746647782 1.040534705343782 0.6711972788869602 -0.135091930741548
P 4.024602779378947 7.054002963255422 5.612848256045644 -0.8958001093061477 1.0644554778254376 -2.303029661277582
Ni 8.451305347643254 -0.30600557983700166 4.4580351531084546 1.1669329649660742 -0.06969000829697031 -0.864950985135775
Ni 3.03863244896219 3.5824091171700245 13.644447904011782 -1.6918095342752024 -1.5038819477898617 -0.970459031572619
Ni 8.77494961000406 0.2600792745439736 7.234905733169771 0.8145874450815584 0.5149711372699582 -0.15863320839659778
Ni 9.387603095626218 2.6527406224129093 5.639653660191066 0.8504013694563742 -0.38405442095202247 0.9720669994896872
Ni 0.5145630099244344 4.385569362867199 1.1241350163988142 0.4474609102331261 1.5057935629902777 0.5682917030699696
Ni 7.851273660535846 3.3785689438272 1.9221117104210879 1.7958083431563718 -1.070492428048137 -1.4930347206627124
Ni 3.4577548118088384 7.196840898227622 0.9703045061622837 0.08151116930161446 -0.5105192721461917 -0.23513175497496924
Ni 7.1131418945752785 4.488266607755766 3.6664386471484587 -0.5716151110162477 -0.02864131788577648 1.1373318542701896
Ni 7.450250657132087 2.2831223016638047 7.959598279984773 0.09913248192780347 -0.532260006257393 -1.7348721697926313
Ni 4.932229943495317 3.3380349929589825 12.031900783528183 1.263040801134941 -0.7025814496251964 1.4402723413590162
Ni 0.4901939499730318 8.695623291742212 1.376451135788055 -0.45326311873720004 -0.7043627098953352 0.1602026097662467
Ni 6.279185584104354 1.5344942180956436 0.352492749915663 0.5640267571460286 -0.4998574215569715 0.37814731143896807
Ni 5.415172913668777 5.661101354314128 2.4553836340045163 -0.7630237140716536 0.2740978518255215 -0.6750593329455277
Ni 0.6711510273290615 1.4001394800480462 2.323617862788765 -0.5602215244673254 0.23127535734335652 3.2162649353410417
Ni 8.91051222046145 9.043322005426754 9.574598598696017 -0.8396407885057603 0.04803926279641404 -0.3545558972722732
Ni 3.123586141784397 2.5511482530619842 5.3517961292274245 -1.1252409845439266 0.2140235122414443 -0.8306180161818598
Ni 5.66826431860477 3.3088306980275966 9.52471534084191 -1.218412620902605 0.025455721068943254 -0.3435675165815696
Ni 7.107130622582348 7.356504776768818 10.63067234564092 0.39621085380889826 -0.4008540090078645 1.0973290886250069
Ni 1.7422576359322965 -0.288578509068712 4.716853184136154 -0.5845922400022061 0.7144362920812535 0.8566005562885505
Ni 2.97342606553732 -0.04375868930180788 10.847336565901996 -1.0541877773508426 1.3642077969942699 -0.6451890277486565
Ni 8.07596601881365 6.221198345082208 1.2632135655374293 0.7181949877927373 -0.9369210477161736 -0.18458643792724985
Ni 5.963696801347664 8.704640199731607 4.5811810224602 -1.7615162547427212 -0.9452442228698882 -0.25599342891532684
Ni 3.950894472325446 0.5943144243677131 5.807763282248809 -2.523806947303092 -2.4498175402998195 0.5257206624769785
Ni 5.560042696027996 8.547878960314724 2.3457228642232044 -0.2113019995452232 0.2891915129338503 -1.333839469115058
P 8.455191138729026 2.109872199350425 9.857192989492638 0.27655454089613013 -0.16541680697733446 0.672770536911351
P 5.172147112147739 1.327798222388576 4.331627091915062 -2.6544624395398415 0.35495724647574994 -2.9896916114590444
P 8.051602576873455 3.345469494458027 13.278998147579271 1.2011481773952022 -0.06995148948847307 -0.196979412274964
P 7.588229012409068 0.2244657651590662 1.7793271465553673 -0.12924138549804196 0.5547504740504252 0.6996326514095177
P 0.2447430402803901 4.945937890843682 5.9817381080080665 -0.42093303914592667 -0.8955252583782062 -0.4427840735827471
P 8.411052297335454 2.4206512160441176 3.8191305737800976 3.5032643257195795 2.0687615398544885 -4.088590615674334
P 7.187505636269753 6.175505187254326 12.791991482631772 0.32171802480664596 -0.11445214300400934 -0.06869601981481718
P 3.7075315901319064 4.653070966552599 4.245797925679554 -2.0800887919418503 -1.0076628943164259 -2.446103838893658
Ni 7.1098366313143675 1.942090294613168 11.77054809311032 0.784860607441087 2.327113184589347 -0.7165422826806628
Ni 5.667936601284283 7.135005321527759 6.903414981821308 0.4048371620253286 0.42867771608835203 -0.1854554707957645
Ni 2.900101655916389 6.865921311352008 7.281938786670843 -0.22553639797705027 -0.02562078589189781 0.8862584883642995
Ni 2.700044276787184 7.552592094644125 12.209055403631364 -0.8424450907237749 -2.5146787597495783 0.7726517240797209
Ni 3.1266385945409323 6.96539756314779 9.598622150958105 -0.20560340649854916 -1.694883802325152 1.6956759592091444
Ni 5.343018923049585 3.3277259423916674 5.225498555587797 -0.6405818679939483 -0.9799613146360993 -0.567526542769171
Ni 6.838570960119376 8.583881048808209 8.398722635403535 1.103001456419436 -2.045637038021883 0.571469586577319
Ni 2.9217497257725493 0.005767824840568677 13.47676337813547 -0.28365207117285984 1.199727642898592 0.3504627010395061
Ni 0.7792190909328074 2.3314559247596094 0.42704094964481176 0.16077879398469083 -0.4670504023292795 -2.9511029525525694
Ni 0.163182626228024 5.9366179873234355 9.73622597215453 0.510547811391282 0.28516825070707014 0.44627871699956695
Ni 7.204013225870277 6.913084515446074 3.3939988116109223 -0.1753114403832271 0.4323160841718877 0.35656341462060526
Ni 1.849093482411012 8.487017172224308 8.832693401873843 -1.7936637860095432 1.7505219605147464 -2.1408239050383773
Ni 2.8971428366799934 1.1907281122569449 3.3305209029678196 1.347682031425105 0.7144864285928986 0.4130155840710629
Ni 7.076025567192139 1.6319854392644766 4.916221420557136 -0.6002150341411276 -1.0456833394242573 3.3637323569288067
Ni 5.680829937007438 2.9051578660039006 2.437033336727655 -1.6821131329230448 -0.5441994380074563 1.025329972578886
Ni -0.2552936653296641 7.989710820061509 12.93774891076191 0.2460365748129311 -1.3299301067583225 -1.3732763349544412
Ni 2.1006961143767926 5.605792033967961 2.67614525710688 1.0974453024878972 -0.43770203107414946 -0.3532690601400497
Ni 3.9717934740204934 1.532050383220013 1.1821194464153557 0.20154851970288515 0.7027621981774348 0.1538645833633608
Ni 6.859928766063105 9.161833951866814 12.002286373778588 -0.09143871282797154 -0.801914220489264 0.5879714408870841
Ni 7.0831136246666695 4.384913928226225 10.868345118815606 1.202587223834574 1.1882001018749664 0.8023801043820891
Ni 5.423393936736991 5.537654921362736 4.9050668593029645 1.3126682343540814 2.7208467805023466 0.6942590458024301
Ni 1.5708052972055873 6.843215182718276 5.139819202984512 0.3417623450520308 -1.2661616061521097 -1.072050516563876
Ni 7.34072752862538 3.9918685007383172 6.017287010264077 0.9674996918339789 0.6828891134025916 0.5060884900683478
Ni 6.29361450955779 1.097403582734302 9.47165228864388 -0.5540645037269942 -1.0806909658476935 2.251868307912418
P 4.088919644362496 1.2466647771880444 9.385973872375796 0.9040165836786689 0.1505028659799795 0.6462346954043515
P 4.937445330567066 8.180002223040207 13.21413539917331 -0.508796118807498 0.9516066747528064 0.5292844685688368
P 7.428480863699746 6.111703306631543 9.034076631648217 1.1212305778329528 -1.1272346179351878 -1.0968305517220336
P 5.23158567073204 6.832868678742905 9.430758785058329 0.8469974859811477 0.3845460158764603 -1.3016911665172872
P 2.7884811365585658 4.870076012826982 9.082685537293232 -0.6965270159010004 -0.3799190586274102 -0.6161928976266227
P 7.218151887411281 8.72816093999055 6.167320681258968 2.5214081080536124 -2.681587063670775 0.948910615977882
P 8.86987527272108 0.7339725649959891 13.263032696060352 -1.0973208610948908 -0.27096264863064945 -0.2566863412172934
P 1.0718509950883413 7.737995827871561 10.769729359069903 -0.4415746266556782 -0.3231866389323724 -0.3499237978169006
