# total energy = -381172.1199323372 ev
CRYSTAL
PRIMVEC
9.15579961227264 0.00000000000000 0.00000000000000
0.00000000000000 9.15579961227264 0.00000000000000
0.00000000000000 0.00000000000000 13.40043821496546
PRIMCOORD
 96 1
Ni 0.9930380372821092 2.88751033567993 5.5036940402328725 0.2892164526345148 0.16499257495572228 0.3575363200568359
Ni 6.082902748436067 4.8846374605023035 8.846112116001029 -1.010822265881014 -0.5829117669759897 0.01972936010812731
Ni 2.8434984064413618 2.115767977552427 11.68088046741244 -0.6672593772851347 -0.10999719255644927 0.11728112781237222
Ni 3.688258267310196 5.638379516386614 2.4104437291171488 -0.3340845167917988 0.555345684432263 0.4725859874355281
Ni 1.8019620980594615 5.237566072185076 6.171009009110655 0.2188042214595393 -1.1998505416297014 0.9864772613777462
Ni 4.388576231847088 8.47151355754858 6.61920005452665 0.5811639310469475 1.0369217911815432 1.093070570458969
Ni 3.7502704987919566 1.0360886075504152 8.647208776213755 0.2641332844136419 -0.2513513021576252 -0.4951962686358762
Ni 0.694510440776537 3.2784904509856454 11.341099584122967 0.9541263558508666 2.555900742513843 -1.6267937915254498
Ni 5.664418610781141 6.979557682099619 7.8790289397560525 -0.09927723503578385 1.197964380350582 0.556255597841042
Ni 0.875068304671296 0.7000808293242269 4.519605797173917 0.32509234059551756 -0.6427454513041705 -0.8149700252319578
Ni 0.13270324551505774 4.2000491598788425 7.4923456412574225 -0.12970032741233148 0.14818913024513836 -0.896254937455379
Ni 0.9682166642499148 5.286265770878635 2.323300658572767 1.1947157915062974 -0.044829497609864724 0.22217725169683022
Ni 6.206680004807235 3.051454085408617 4.973022973068252 0.6356337799600537 0.48406467749908894 0.5970482063773718
Ni 4.345974295764904 3.2933045349273975 9.507785281093328 -0.5493858673044023 -0.028153065395448287 0.13565551655450186
Ni 6.397761544896462 4.391744138549094 13.065682356456023 1.6398148863754662 0.010512726605865766 0.7678064801722777
Ni 4.51620807989902 2.6581483969748394 3.206134912563837 1.0217911061876919 2.1002022748622737 1.0130640107273392
Ni 2.9329505696743157 9.22932078850714 10.657985367253906 0.9367744948359802 -0.7888920971979833 -0.01109713835442605
Ni 7.141917478477303 2.9938274819911954 7.549002645484837 2.417110536985102 1.1911473574287486 -1.316022752648611
Ni 1.7304736138708323 4.511895698232416 13.43233184959436 -1.4470952778181208 -1.6482427054278452 1.4276577379187994
Ni 4.960493261155837 7.218698014902232 0.7011145191122515 0.457096119330045 0.5800938379112203 0.8055816420385223
Ni 6.343028174189542 0.8474846268645487 8.162931061794039 -0.5223437755849456 -1.5809949880237804 0.8702806248788044
Ni 7.513203468592222 0.6947475759892017 11.647352844429557 -0.5345626862486407 -1.915097759648024 0.29323482976528853
Ni 8.688029909251025 7.173624012896517 2.628563261350003 0.9612817359487252 3.0978062422808006 -2.4028144320774034
Ni 3.972390199921073 4.58561819755194 7.478060762539299 -0.39909357467333206 1.7909150196198125 1.3135305823543766
P 4.323954597446045 1.3450419131934863 5.364516728738079 -1.0089155357766044 -0.2805685471515297 -0.7610318804526055
Ni 8.1019397019807 4.300460815372784 9.52315512207789 1.4279395308252762 0.08745915935493326 1.3045718304991918
P 8.006911656720224 8.926730763667234 7.2511644806979385 0.39209786008178926 -0.1567925556434332 -0.6944876168734685
Ni 6.693896730936039 1.8157690440323677 0.46052116089458517 1.3888603054356277 0.13825284496803286 -0.3867409666452501
P 6.409773954124879 2.5235672969378697 9.431912084420334 -0.23250948686077375 1.2255559168156054 2.1012525705036587
P 6.23379948356834 4.982082636888007 1.8461113642937814 -0.47847792743993084 0.19098848479885172 -0.10160896849275404
P 8.05070384676559 4.6975936280881765 5.556223609947963 -0.803305701520152 -0.9986948864898605 1.5864884070381837
Ni 2.225188939967681 0.6373251469054638 6.35196881261298 1.8592230599675914 0.8904486151862471 0.18073672516385647
Ni 2.9803684564075263 6.833321249023186 7.3056909303312585 0.40537426547572125 0.1796298652529229 0.9743588808476574
Ni 2.402198015892216 2.8380232382107264 7.43869082375714 0.13392979211264677 -0.3889670277622914 -0.4195698402498129
Ni 7.683464720125489 5.563924553089747 3.512482477607512 -3.925702745766439 -1.8503033888804583 -0.6143643290583162
Ni 5.975230543766718 5.265509572920692 6.493584313572352 1.011807769722735 -1.8611665568472076 -1.581118143865206
Ni 6.297734432990626 0.5401555600912347 5.824701871783058 0.2533768172280862 -0.933081105144793 0.813860851328179
Ni 8.771622360665239 3.516669424817996 3.7902071815765854 -1.1134010544862052 0.8210884794248697 0.7304974593091742
Ni 5.127852124178883 1.4902712083010727 10.973337661319036 0.3128706017183451 1.1822271721209832 -0.4725183674223861
Ni 8.345841050636038 8.1087607727697 4.753135455910087 -0.5029697419337079 1.3972246182399228 -0.6285840722021239
Ni 5.298616944696574 4.967579850136626 4.03086554597224 0.2049529173987438 0.08040379517004863 -0.4258446175149311
Ni 1.8827620305600572 8.331860144468513 12.71709634057892 -0.29156232715887204 1.3491565590881023 0.2694912062914456
Ni 1.5807671327017399 8.939484792672708 8.446805716432873 0.17185870594793629 0.19337086898809924 0.6374512927847666
Ni 3.3614419964196847 6.232508515808275 4.777524675195649 0.6578576243552605 -0.9086666808561705 0.5656164702306518
Ni 3.3050331143645946 3.5669072978639758 1.5108726732438025 -0.7349292698282828 -0.7989685075973789 0.4545517556416365
Ni 5.661388041074885 6.996514223175097 2.905000659878897 0.9087222166844543 0.602509229491943 0.4080759806776005
Ni 2.582063701328386 1.4723716198547652 0.796300044127854 -0.08061925361496439 -0.027707493217597443 -0.755710211129376
Ni 0.21451306272441445 1.5040506868748287 7.277134906594589 -0.5843477280915678 0.11848234720932498 -0.08285842735812826
Ni 1.32378214625112 9.136490135178693 2.023091141659222 0.581318968567573 -1.3452978474636443 0.7075357083066782
Ni 8.010995143393908 1.6281117730372165 4.978543920297472 0.8610066557760463 -0.25699950158233803 -0.5601395062764805
Ni 6.315405126444014 6.035924340089262 11.213620637926303 -1.7540608269059406 -1.3831079763328826 0.3579117011183836
Ni 2.5165264869556645 6.748300492853154 0.7101082611740458 -0.615347776017508 -0.8355301087714965 0.10796962060345922
Ni 4.33292728116849 0.3496984455426916 12.970123274811975 0.38222868059719334 -0.8914528880810454 0.0584853978304025
Ni 2.3553294771420115 5.64146502089117 11.718522706788043 -0.14431062112633858 0.7226465958061877 -1.8837398141620332
Ni 7.485635355644993 6.772160506915087 9.375174509155412 0.751075540570842 -1.7621456607966037 -1.1524139454142925
Ni 7.973447208755389 7.456208615355258 11.502387236353815 2.556175336331469 0.8823689235019061 0.3943385764868499
P 1.584823151976274 2.2575913151653704 9.344916422251394 0.009613097609731832 -1.2862892301399202 0.773665767166532
Ni 0.9281417288895627 6.57954079247344 8.4655128464142 -0.7464822647732048 -0.4277552042740827 -0.3949664398788359
P 3.896607645665273 3.9278014553003473 11.634582334984591 -0.2265699814478872 2.0967096883279823 -1.1866479268964982
Ni 2.0075830480989376 4.368067240481498 9.168271747155586 -0.22472830025345814 1.3042974937918828 0.8509014490212442
P 9.535582289033478 5.9180800419345685 10.445775903738236 -0.19458648656275518 -1.3478748641622011 0.11744259309090098
P 0.2530113693735368 6.485913584569633 0.5952130461081278 0.2932885658213594 -0.3139131840502465 -0.606585970664478
P 8.588982467914885 0.4080401169179943 2.8446849980846567 -1.8980757711687313 0.12874490547759762 0.49486768165186384
Ni 0.34636756560572657 5.9520389030841105 4.565274926161223 2.5650626115187696 1.1723515648784844 0.9573916568656995
Ni 6.699381054966392 2.3294277197432374 2.7432039451837946 2.1483101861130933 0.027775884561687645 -0.39935377031325414
Ni 8.20616017015682 8.824707687423137 9.443382470305519 0.5421497545672792 -0.5462606914118592 -0.33023737513156676
Ni 1.1130980389682634 7.905382993660836 10.614004567734375 -0.8206958719721414 -0.32458711882432484 -0.3323307673254857
Ni 4.873320892052361 2.702251884210575 13.000770483203956 -1.6175450192336724 -0.2593875421985403 0.7255437148483247
Ni 4.132369488372394 7.171417465164772 12.083215605526906 -0.31304209429920277 0.7269351958792126 -2.0630274655841894
Ni 8.544091581903505 1.7777175404094243 9.54950093576293 0.5922297019428059 2.01494603669593 0.353653697172978
Ni 5.0839592203366335 2.5296925269483963 6.982620297104882 -1.8783662085549455 -0.6707527351503739 1.220786263341104
Ni 6.342414735608519 7.234134693224725 5.266680599704468 -1.853779777464833 0.1918174084580503 -0.20268211908669612
Ni 0.9746898146496792 2.660547216500636 2.331395301102374 1.3306302181491407 -1.3513628227108017 -1.477425810480862
Ni 5.777410335085939 8.640145076732258 10.329299482061227 -0.3023208512269568 -1.9008625898852487 -1.3903551448135991
Ni 2.3196584814454315 3.9726190949139926 3.9302149241056914 -0.7119700899289481 0.5762035017178786 -1.5676093107454938
Ni 0.5966843831226146 1.1408584237095445 11.746381974166267 1.0014423673280108 -2.9770124733294794 -0.40997242636936493
Ni 3.358631165906633 8.49642648857794 4.661449277546239 -0.30622378582578874 0.7794908584887414 -1.0417076426059608
Ni 5.608348493315571 0.411076180104079 3.623130317184815 -0.8270166719838467 -0.6901470805165856 -0.3486819549899995
Ni 6.695727890879396 8.865212945370178 1.4936936462352055 -0.49453858044721927 -0.3024316657732082 0.7033692356338144
Ni 8.754537638393725 0.2738545474287897 0.5148873840328614 0.15845143140309484 0.4231159057298584 -0.8142269764183461
Ni 7.488043330970506 2.812945502786462 11.636619500421576 -0.5032721036654751 2.209117032987821 -0.2701221550072251
Ni 8.62088127412815 5.108038973591769 12.316075059723808 0.0688518286663911 0.502422096960354 0.08262677096329642
Ni 7.15040490481476 6.649683374103701 0.21816622681141024 0.9845404493663494 -0.290248493443455 0.9533329134152937
Ni 4.321097987934409 5.080333523648789 0.12833501347018134 -0.9737716408856197 0.3579867773306931 -0.7835997384507923
Ni 2.8280800397183015 1.3739742402985156 3.4263584475716082 -0.9667443017251931 -0.44299361849039187 0.19244552896035244
Ni 8.130276902104137 6.8310414548937075 6.823958528232805 -0.8552666679684755 -1.5687663071680724 0.7243342679212557
Ni 8.411066967818389 3.979037310515456 1.3850692383953112 -1.4619863359973402 0.05634803977242554 -0.9107754996690574
Ni 4.10515845161412 5.743350760139513 9.978984851197596 0.012957074381300265 -1.038397090175489 0.11906675895788525
P 6.249291096689135 8.300675490633155 12.403967990264995 -1.4356803511129597 -0.33907271403500955 1.6615124259535579
Ni 0.9181435955988374 7.835570020820378 6.290286189921024 1.4944305725689746 0.13827675622743282 0.01581819797917921
P 4.66011893984739 1.2390360640725915 1.623249127807634 0.591456314111891 -0.29035313734211926 -0.3761066268598555
Ni 3.854417720570345 3.6685183631208154 5.441569192414596 -0.0512351440258924 -0.5231462168815829 -0.040569179671614
P 0.036304577036981554 2.5274402002180683 -0.13353184538942645 -0.35236788848201894 0.20372727252175882 1.2733411546196847
P 4.015394991190795 7.658478542698393 9.18203382970988 -0.685225217734936 1.981617597747129 -0.32195328074590357
P 2.019503899330187 7.272433403440021 3.4585191096567742 -0.5979239241141058 -0.4777405350532741 -1.000256831660342
Ni 3.6100768935286 8.314015490820506 2.1766201692100706 0.3126551432734293 0.9741182255917611 0.4308063323955806
