# total energy = -381167.5944235494 ev
CRYSTAL
PRIMVEC
9.30402260041324 0.00000000000000 0.00000000000000
0.00000000000000 9.30402260041324 0.00000000000000
0.00000000000000 0.00000000000000 13.61737754071972
PRIMCOORD
 96 1
Ni 2.287133488321333 7.668059240164995 12.132348015512811 0.8387750980713554 -0.6061198296613367 -0.654303331345099
Ni 0.6070809737107546 4.233953735344778 0.8795557936981115 -0.6352681690905189 -1.3569752838015727 0.534519491715531
Ni 7.473056226676672 1.5255713115447789 0.26023351721305527 -2.1617915084289803 1.3462085322033719 0.06150747248617793
Ni 8.63183504808594 9.026883855410441 13.208543400306606 2.7117530457311942 -0.3997083254391955 -1.213232619363562
Ni 4.8240148601803865 1.7647777372704723 12.425176315738113 1.1651784441688127 1.1074857174430346 -0.21108731243125584
Ni 1.6394804624650305 6.094842027953501 1.1738327302705722 -0.38364381577716505 1.3633932715127746 0.2277156650165562
Ni 2.656959089883783 5.8706057748840745 10.564252667842819 0.2561091285575847 0.1442846529844096 -1.3398429949966604
Ni 8.000212853483054 5.675491113122366 10.769235176167136 0.4321394493847074 -1.0080120501257286 0.2442704840514438
Ni 5.746927400042703 2.7106246932904656 5.176087455872467 0.3303055093653408 -2.5811397195862904 0.18898893787031967
Ni 5.87459720065756 5.5046227347305985 9.773151149135634 -0.2004390886887903 -0.5017898626929939 0.683031552517727
Ni 4.62439705139218 7.330648853975097 10.66400016568656 -1.1724261268701615 1.53230729301009 -1.8928147798801076
Ni 4.4955177278156615 2.684629253637506 9.850960691661653 -0.4564104061169301 0.6648481967404808 0.9335238491091665
Ni 0.1295780556874488 6.498683136807011 12.892334090830092 0.3836731263532037 0.0746226697118973 -1.2483382048174436
Ni 6.256220303107611 9.356125309597727 5.2499074334295575 -0.1392010678139151 -0.3325565101830466 0.028737477144008573
Ni 2.8839307256511226 0.6867243391271106 13.067235763097866 0.22976637689799786 0.04449653975047821 -1.4101084161811264
Ni 0.9904318331914252 4.1423649350785885 9.882471556019794 -3.5213147554633872 1.8220189401134685 0.29480834489999547
Ni 9.073776130231813 2.3373472992758866 11.699233659780237 -0.26674423967392774 -0.051697428374291615 -0.44758226630233877
Ni 0.46873015494214076 7.173345740799512 10.251297905535456 0.17018774600341657 0.021682112959123947 0.10680079710633865
Ni 1.7034921392053173 1.7464395083671143 5.940485498792981 0.24609956684038262 0.12959234107955747 0.5861878666241
Ni 5.744480442051033 2.6909466851064963 7.642289888265639 0.03325130585396208 0.6449699697593151 0.20576615732865852
Ni 8.685379699196455 2.34404619567894 9.16596597036972 -0.8067059854509526 -1.3489467570701414 0.8284138094416894
Ni 7.258765973961223 7.592408230924404 8.933054646458341 0.41747696227652625 0.26362626287023627 0.7571322882878831
Ni 7.286333793464344 7.870151919013217 11.634809814830708 -0.09557278960100316 0.4953479637223921 -0.9312720769605122
Ni 4.1164532316306675 6.411364882997768 8.47036280230173 -2.1213729954026177 -0.5278238248629104 -0.031718157038887314
P 1.0266151777906949 0.9775550656611116 3.138873975510322 -1.027013530928896 0.64583566019372 0.9040273823119463
Ni 6.742271757263035 7.8973010574911475 3.022798848086417 0.2102481043594121 1.6882662970086342 0.016131872564856087
P 8.005292849922036 0.4979587425118516 10.369279427227397 -0.1794694284156587 -0.3660806100824212 0.16659128690140987
Ni 5.068859523711983 8.720734985768125 12.72741377420287 0.14362465080290748 -0.20039409438346778 -0.066588229443195
P 1.5900761014925124 6.036096428107836 8.633512563393536 1.1019511607780506 -0.5147924456002488 -0.1720055159384457
P 7.061660251324163 3.8231346094047542 3.7917456277450587 0.3749601719602381 -0.9317906684681436 1.0702797978166987
P 5.4800228984949415 7.165632705913219 4.820633778301401 1.1622610134117013 -0.7506135133327588 1.2557167566697018
Ni 7.652475002005114 4.119086270077978 6.466280016664074 0.7826957385792843 -0.6027254592678072 -1.0717334995440897
Ni 8.7492052954811 8.818697041639997 4.753254975716302 0.7334560277168658 -0.4110720871914469 0.3535279702283911
Ni 7.518636634285779 7.280007057972571 6.142186478282079 -0.5957297446762643 -0.007253082017987509 1.1541712944250315
Ni 0.7334286726882867 7.991755496774198 2.8161555716955093 0.5365470636685211 -0.0453095225700768 1.1932417780639322
Ni 8.625638568913114 2.8174813949419466 2.214798432800252 -0.5833902492743049 0.21685481104265236 0.21498510482376523
Ni 2.5762001721358634 5.241970171594218 12.721259163132563 -0.4783871674983374 -0.7879315330569269 0.6342690384020431
Ni 2.9777524913849964 5.990516020498728 4.339204562664083 0.11100455077504108 0.8543374712859866 -0.5828554598167575
Ni 2.061557455971296 9.055958926604248 4.551063674226589 0.17271231219748318 -1.0988645514329267 1.080519730377152
Ni 8.516223260996577 9.813697150017394 1.9569802399014091 0.5623146595509283 -1.7063162125318097 1.2238548749640987
Ni 7.272796440316507 5.483818939790004 13.23713931432714 2.0466965896346494 0.6620328387788728 -0.011502601322960835
Ni 3.193187138902633 3.1256678455735254 0.19955733264012213 -1.4140038945807907 -3.024635217413765 -0.7390342931355918
Ni 5.117100881836749 5.9591242476321975 2.986713195726358 -0.8535478855051558 0.7857167847937951 -0.23030862255471302
Ni 2.8359405761414718 3.947799210661019 8.71256140175412 1.4429701999061537 0.33467484207763004 -1.1967919573090355
Ni 2.165557822628698 2.6944449976725355 10.916370853246532 1.1502914997546514 -1.0118869597001026 1.6506387164638474
Ni 4.844939607417145 4.604942339754981 -0.01659000302261705 1.5869756310872476 -0.16885925699998017 0.06522065967170702
Ni 4.02464113481771 0.7589868232704913 6.034581733198924 0.7047234356688638 -0.6444336376398708 1.2327087258103029
Ni 5.465852871797927 9.450561140835212 10.061771239856627 1.3894678571126393 0.29396142351866794 0.7026272152614674
Ni 1.2306337893547947 7.053268022774782 5.995527167169123 -0.7769079282529135 -0.5349149273817368 0.10412967803207873
Ni 4.793572097637622 0.27472918470744 1.4393844269058294 0.7851215744119575 0.3627317482148463 -0.8841445273450903
Ni 7.183226612994015 4.821465557938113 1.9737712098161175 0.5803249800854199 0.05236591519622595 -0.1540867266764959
Ni 4.989040312265047 3.627387274093869 2.859649086994611 2.088736440314519 -1.3708630975272584 -0.3906099626823531
Ni 2.323688993831883 9.015532947616379 7.4814689240761725 -1.1329290972168036 -1.0429813671120618 -1.6584093615482018
Ni 2.5513677353306563 8.470186956271151 9.824420966675946 0.9875818072958347 -0.6864776020847985 -0.14162664653627222
Ni 4.4368465601522535 8.454277077313899 3.5241228556385242 -1.1037205939736474 -0.3117010068902761 -0.22409272355198828
Ni 8.592069654715592 7.109976041631184 1.3990766090072908 -1.1602398692166147 -0.7049165255162764 -0.5777225094655664
P 4.432808614264857 4.713818014350159 11.243351429897787 -0.40414450683367814 -0.587531268025872 0.31429165043558777
Ni 5.222561980070927 4.80748161169674 5.029170423328449 0.7805923190830362 2.996968347626116 1.4133006978661788
P 7.52200469053287 4.199473026914617 9.013941959720652 0.08247173344267086 0.29142451602942715 -0.8443698185503135
Ni 5.456427896719742 6.40464737854915 12.332836680833415 0.544044914707463 -0.5885093156684251 1.054741078751151
P 0.3485677703100946 4.9470140413586705 5.476037985537403 0.10191004467294061 0.2158014300774735 -0.006252151557298909
P 5.574402905595735 2.703218691155979 0.965165828924576 -0.15114332777745584 -0.7931878963598598 -1.0058993746581
P 6.876482285893651 8.55610960666309 0.4904364400925897 -1.2294449674573666 0.7688534333795533 0.34779235329619457
Ni 4.030391020896997 0.8315665745907388 8.395631030512002 0.9848235278244072 0.268894196137395 0.1698103080593398
Ni 1.9517327710523507 2.8748686074614365 2.434419890569797 -0.45231720988416296 -1.2044178492854096 0.11834916406557038
Ni 2.450902897330421 0.5712744420341568 1.5854166468832778 0.9503936282813116 1.4785282995164215 2.959291659010949
Ni 6.690569302663358 0.4684705727065224 7.7454287024134265 -0.2547708693621354 0.08840069733259613 1.0809005107553384
Ni 1.7944296578767653 1.7828554535359342 8.558167656502473 0.3139532932595625 0.4983206731974708 0.3558501906036646
Ni 8.84300845316941 5.919498414603581 7.992529591469663 -0.32086184745393775 -0.4049163520026962 -0.0700936714932922
Ni 3.289660551129382 4.526695508158205 1.814502156626692 -0.5224057391711325 3.0116601453103358 0.9309640588017902
Ni 1.589303867601605 8.295075943490781 0.5155200855129114 -2.2245500797134397 -0.9216492091587676 -0.9342221607277718
Ni 1.1633377925724557 0.35816952182113765 11.47875530151247 -0.8176493718363338 0.059874307758129144 -0.5783999951485651
Ni 1.0714698716228057 5.042771043831204 3.201582158658848 -0.5126005801552527 0.019563009733592113 0.9216525515928773
Ni 0.6408424811798649 1.7653080665690475 13.832532574619123 0.8368745386145329 0.015553888574199022 0.2770073121628326
Ni 8.335883387412714 1.5215612777257288 6.731886607033745 1.284727027859123 0.14355086014217858 -0.36233708387958885
Ni 3.69280385827424 7.487914751059555 6.197758475956798 -0.050168907544907146 -0.5779852762086498 -1.1901063177587439
Ni 0.48434881798631507 9.190457879941105 8.920771475581521 -2.2078201685532686 0.46179840990172083 0.917045391838169
Ni 3.427471736576639 3.5549461527130735 4.417722141323814 -2.5485409597146624 -0.46697224079317645 1.2509386185547682
Ni 7.18352434172304 3.4330169341547214 12.633821817831711 -0.6005814163416108 -0.5762117292479948 0.5226556503984096
Ni 0.3711905017045724 2.902157306281097 4.3284063138232725 1.1588671572388043 1.4902152489360465 1.0101854036279634
Ni 5.3520832812194055 7.999487139706056 7.610643185174881 0.3959424306388601 0.671850853310559 -0.1277725142619993
Ni 0.453091023047846 3.4436514321945686 7.591170795894396 0.8068440536907137 1.5374890943213457 -2.1459406574396525
Ni 6.649985155288194 2.808428580775043 10.5528273278665 0.695784481308021 -0.5410930311679907 -0.6777659332434134
Ni 8.212902814279994 6.524985609211777 4.0208302070861945 1.217882716541064 -1.7833230662051673 -0.029322146002884988
Ni 3.76037897574004 6.910079112159519 0.6496087314450827 1.1106170639831645 0.39819703100099163 -0.395552394289293
Ni 3.6964510352047912 1.2366348840491967 3.97706408391958 0.37595544599397185 2.0838292328208885 -2.437613027813828
Ni 2.863052498528273 5.028442848746895 6.547725571293308 -0.4729631682692887 -0.2219013723276243 0.04925590881233452
Ni 6.161654215551175 5.521704920558383 7.471460586769555 -0.255651729305192 0.5185830229909327 -0.21957632373887345
P -0.02178723014865254 8.702303716636946 6.936446712723758 -0.4025622499482228 -0.04867278261535488 -1.05963311673613
Ni 7.9548743504662776 1.5480033104722253 4.427091292265307 -0.7891240107031313 0.7773463013419128 -0.45767770286512793
P 0.2965154844538143 4.324100412079754 12.496286031458801 -0.47611919739976716 -0.0353027890663521 -2.2373258913218694
Ni 6.305299023282757 1.4951006369336686 2.8759357788745343 -0.8819315788541715 -0.022919584910650853 -0.7093583633377138
P 2.761657258249836 7.35287616440134 2.5013893161524874 0.7680422503321677 0.173181795634734 0.8110172112317967
P 3.4039976870976063 0.9411949446289837 10.716807938192739 0.43778096394120086 -0.30416767462770844 0.4570392979501806
P 3.635658550347083 2.770589120120574 6.77838997370283 -0.2383314928591895 0.6597270734638315 0.19237816605752675
Ni 6.205457554808918 6.708386506290924 1.1219060487218493 -1.6369743316028775 0.5370707973824751 -0.8874825905793877
