# total energy = -340860.7865181709 ev
CRYSTAL
PRIMVEC
9.34341348637764 0.00000000000000 0.00000000000000

0.00000000000000 9.34341348637764 0.00000000000000

0.00000000000000 0.00000000000000 13.67503008402498

PRIMCOORD
 96 1
Ni 2.862158567665569 0.5061915822838196 7.467003936933806 -1.1008031632165365 0.9649100767299318 0.9580655430042726
Ni 1.0367078077292744 3.2850414705985056 12.202420709286818 -1.2337381955160815 -0.11108862584841511 -0.21049287338036654
Ni 1.1659832793373193 2.133867501936147 3.949252602320306 0.2888359293666445 0.2821158370339915 0.6021366766438727
Ni 8.77355887501231 0.4715116337461222 4.273747490572191 -0.5496776875132081 -0.9966963680025932 2.618937507160354
Ni 4.998502074225605 4.673239157369632 6.337597319110219 -1.5916131298592588 0.07796356115967218 -0.9171104407481495
Ni 5.032624220966902 2.36175336147071 2.1811806801038847 0.8081689431497242 -1.0817158075677822 1.7217790840540992
Ni 1.060767097942538 9.207121299775833 2.95915347936767 1.7233718824625162 -0.08163921023904651 -0.3609486881724945
Ni 8.174421816513158 5.653914513289607 10.938301687437672 1.1822060890750608 -0.9082930995668358 -0.4964589373983837
Ni 8.755217753968179 4.169423605183377 0.46780510154122834 -0.12663325845123352 0.0493042455517667 0.09804002019457309
Ni 8.96414582715606 0.9834410063677923 10.87725555985034 -0.6206267650282602 0.2938562653993714 0.9436113152521556
Ni 8.598323151536675 1.0737077258824876 1.6175644773731843 0.4585469928439586 1.6908772522689204 0.1980947568263298
Ni 7.657973969038231 0.2238308179995899 6.895387903414524 -0.1479826706612871 -0.9486997855186565 -0.6375942461205342
Ni 5.2274904565738245 8.682189632683958 9.712936342488549 -0.8066903017216688 -0.5099808831442185 -0.36110064036932643
Ni 3.78373683209083 7.296561384673474 8.200970192129455 0.43288944017685443 3.165171973319968 1.784117794192321
Ni 6.432052690975442 6.771592343926898 2.867763681529234 -0.08401490956007467 1.550907938830413 -1.001714647152791
Ni 5.092487472382972 4.813493140045865 3.4542030408439883 -1.231667171919666 1.2065415804966317 0.08834798971778977
Ni 3.4033010574836626 0.7695048634500845 11.575639292747283 2.1175880744388884 1.3826019832307417 -0.8114720393810282
Ni 6.002722832606717 3.528203811491782 12.345748675062143 -0.41881316458944645 0.6658213592870275 -0.358342360897899
Ni 4.333073495701945 3.5420974676265873 10.126947674137021 0.5500610389945558 -1.8348798552365368 0.9614460294407313
Ni 1.411481473649359 6.21145469410742 6.356277606070755 -1.6138264327315044 -0.3661718842446468 -0.38213020734611614
Ni 0.3198848479446134 0.8322075782820034 8.516288913811069 0.48311259799846473 0.606898102588258 -0.7056639452052621
Ni 3.7824754712446977 9.005312907808346 2.7251598303137246 0.2558959841055141 1.0299003655583876 -0.6386383711143323
Ni 3.456502454949419 2.477462196422577 5.686446411023409 -1.5882961496708838 0.551823015990985 1.5696394538016452
Ni 1.4294395147328127 9.187378666680445 11.51127158159847 0.12123497025379763 -0.0782029308639879 -0.1506062243270632
P 8.886782361926612 0.7734365719245472 13.147420108771335 -0.3082230756440047 -0.8340692079552539 -1.1651658457633225
P 5.255670192217787 9.435446299753124 1.2541206348754699 1.4287144613180878 -0.3991467965087706 -0.4662322773033583
P 3.6557600949836173 3.0287983505601543 7.883586576025653 -0.7430331298823397 -0.3508877043920667 0.30832566266013994
P 8.132189586701914 3.4547178629374837 11.884873583443701 -0.27930407861680934 0.6644625312662878 0.1773752648907913
P 6.0652396135065025 5.778649085851576 0.4301539474548639 0.8430325877961287 0.06276731303520802 1.4811158577379395
P -0.12347134303310155 6.413655509449261 0.3707756192085292 0.6595154716736578 -1.1214995152236233 -1.4677373795485045
P 2.772359018834626 5.468821488386791 2.041928311373617 1.085212764977447 -0.14057275135046113 0.7877651826823917
P 6.061072451007429 1.0867324445455127 5.5419150135667365 1.004067977876316 0.33128432833884236 -0.04520924954678666
Ni 3.7040748870973204 6.907753911413458 10.502861236525462 -2.2559345075619923 0.096994095428562 0.6041395660065144
Ni 2.279456573820836 5.620857515707267 8.34492790398648 -0.23148335958910457 -0.5889034657830503 0.34551229901276626
Ni 1.3586351259032545 8.038605955332574 7.786972875601495 0.15057177154470197 -0.13944635105550177 0.827445531991149
Ni 8.825190578980658 8.042249886665845 9.40814764801872 3.451017452599721 -0.594401255672828 1.3852635892233045
Ni 4.2022563608375165 9.18908851138298 5.676888098833829 3.171241576552816 1.5807509903337742 0.7958196775557521
Ni 5.222781376081598 2.862775232968122 4.503392714901767 1.8331942400039973 -1.0542068035142362 0.03806878184726347
Ni 4.386471104854878 7.522083360548248 4.2039774176364615 0.9917513652924921 -3.511217004907753 0.5922608122910575
Ni 4.531032401235311 5.070352925386769 8.569074529368287 0.2814512068667992 0.9238657571941121 -0.11625602898196753
Ni 5.745507997546159 9.132747726922405 12.236088766123505 -2.2337032069676175 0.8965423867888107 1.4865264872305497
Ni 9.126310114900292 7.787735298157379 12.009972549138999 -1.236577978957722 -0.9537687154011315 1.0497569952729984
Ni 6.747860073192261 4.034813044366877 9.702024169657454 -0.9678660740344621 -0.6183127721831029 2.2033148244837473
Ni 1.5589485716827338 1.5848672012173333 0.26204818295466265 -0.15459966175717246 0.16553893437749553 0.3735411801255244
Ni 2.373142982740601 8.184550076936915 5.369760747921134 -2.6143496306793557 -0.3320065512168476 -0.23593419627160656
Ni 7.431106541594249 4.857070821426316 3.43187228216061 1.5538626505833626 -0.2753396946524226 1.104385481251156
Ni 5.750927177477691 7.537939133554814 6.9083930009088315 -0.19775228588524651 -0.5261862892594873 -1.2076350706711267
Ni 7.226476438696894 8.785780060099281 10.758761453281942 0.745717104472406 0.05258471607525137 -0.6236611809792099
Ni 1.014115433462994 3.635783876546352 8.053745088510263 0.7179088240108862 -0.7193039045861999 1.4196963169798775
Ni 1.7108444477980842 6.11420844457746 12.37400128933277 -0.47276133667112774 0.7657989628239457 -0.21926393470477726
Ni 8.310284394762116 2.292686847584712 6.391079953327595 1.1441833299743842 0.24154125804573884 1.0483367178867042
Ni 0.40061941682801866 8.432187912980543 0.8247851704585406 -0.5466270736123424 -0.4719653231323936 -0.9960091121275815
Ni 6.708785917203186 8.308350308131379 4.7947941662579785 -1.10033008023486 0.5017703223089681 0.4174859611375907
Ni 6.761837820050142 0.7357246856492947 3.0714258067698528 -2.004175685553303 0.19078665320069077 -0.3001585534683153
Ni 6.7285939541943005 6.825046013561881 12.183562897466457 0.44486229626801455 0.7134595299902808 0.326900854559166
Ni 1.1152205128407517 3.7246771142508144 5.902348408178348 0.1794851121449425 -0.6132268730197633 -1.6990790713534223
P 3.2901710047061106 3.1024898542153037 12.001111255609578 -0.2837819118825048 -0.4167434265446113 1.3983703018085916
P 5.403772642381065 5.798036669227312 10.661764672897103 1.9852546802790842 -1.6563825609261604 -0.36428469452426293
P 7.0321614644968 3.06885356498511 2.30745598158087 0.18763705182811555 -0.7118559329485868 -0.6853820550277745
P 0.2617818956649236 5.280822661831032 4.711239755127442 0.2074090922487202 0.050438873376842164 -0.19616360124188797
P 5.406323394314356 1.4310652687122718 10.150482798843116 0.4656164980962304 0.2646145949254346 0.27951799439982833
P 8.063730394704795 3.520785141033789 8.081833258700211 0.35138135619903355 1.1677269216222794 -0.2554691809807407
P 7.175732359027677 8.022292355055932 8.350315316311516 -2.385407549454866 0.6842587400566086 1.0001565586370516
P 3.6357558463053268 6.612969209965509 6.37989401847582 -0.6196556593642425 -1.8063344394986762 -3.3122619569636567
Ni 6.44730114209313 1.7207017492252659 0.20598583222160455 1.9897044885203217 -0.039128076349713256 0.28711483291047973
Ni 2.1499288300435646 7.134107451105312 3.269466934343559 -0.17877240234863406 -0.1303328187900078 -1.0441373350933758
Ni 9.151808290819515 5.722168150185875 8.5570953386955 0.9653615624450536 -0.5680189090245573 0.902021407625511
Ni 7.837862712524043 2.5089214702664835 4.293727446374926 -0.5565530744768028 1.4244410307537145 -1.464407800954639
Ni 5.191583717820594 0.58306264961259 7.63940486870043 1.0951953301114559 0.5421602960902405 0.6135570026656724
Ni 6.810815994534774 5.824048732898663 8.364414527547172 -0.3569585931764949 0.7960369357728807 -0.5636531758566938
Ni 0.5385534298887361 5.204402881382767 2.6002112935785973 0.15567643976111897 -0.07646023714126832 -0.8207364954020898
Ni 4.617739280139811 6.28004469389599 12.723111400911584 -1.8618245021461808 -0.9667358170847609 -0.7429074029377528
Ni 4.495817075094034 4.285496833268571 1.1653423211592107 0.8742856322731395 1.9219505209037997 -1.7989672005003277
Ni 7.272137701326883 1.6422077309411387 8.874383651979816 0.18017905288817357 -1.795025185133444 1.391018746539527
Ni 4.416818512471453 7.0705815815286215 1.3709768410266332 -0.27139947905775197 -0.17553769746142028 0.11161441644489808
Ni 2.144070509669306 4.4293199999686745 0.2723848015033747 -0.055904524477103715 -0.45046575849772097 -0.36735047793378023
Ni 3.2121161268647103 8.099300770565725 12.706769770393915 -0.5289160294858245 0.30558460957989303 1.4778389867588806
Ni 2.8307460108900377 3.109646909090395 2.1540361946951183 -1.230247922974636 -0.4787280957775239 1.3341523723697861
Ni 8.280394814415619 4.944497143183794 6.461082677263834 -0.7722488322143475 -0.2777123086496572 -1.3816118514033302
Ni 7.132201394715602 8.508682440738209 0.46089377844579105 0.2544710787335295 -0.1223117482577442 0.3500312699290424
Ni 8.676088383554148 7.280939197008784 4.385281688294044 1.5355947055121102 -1.0670260667660916 -0.5630512806066367
Ni 5.918893725114135 2.927431655599495 7.563303698658483 -0.7994472470060103 0.24899154367619702 -0.8119019278295954
Ni 2.0452639100556116 4.58719566083606 10.441938441998643 0.08924684738297534 1.6786619411496508 0.6088505983289385
Ni 8.9714336898226 3.0545301118212524 9.91272842578496 1.1517804255953519 0.6519610563651675 1.1678274517558855
Ni 2.1075844792682203 2.473771548020931 10.218324391196314 -0.23538449441572365 -3.2601109859917146 -1.5753832982639577
Ni 2.6359264923514902 5.2969774240752 4.649906784740287 1.3147189462355229 -0.8956928943043219 -0.9630946207877479
Ni 4.157071612304956 1.6159994555826127 0.27215215050286584 -2.534634376935899 0.24306746488227815 -2.308858609254533
Ni 8.56372449069795 7.276117995552455 6.881644676239887 -0.24320116224666502 0.7604004175161937 -0.9501732847403893
P 1.2456639111581784 6.519507042973945 10.070456460716278 -1.0383991470580183 0.7933367632328983 0.8426626060512198
P 0.692563720518751 9.40358525912119 6.170406274808806 -1.1843372764854507 0.3015700891038613 0.553342280848989
P 2.555171367958 8.69896106023068 9.659002421390667 0.22790129866480108 1.0666586561243436 -0.5313904591682461
P 3.1279413130661506 0.9258388610610854 4.246794545143763 -1.9184839025114377 1.30344825841771 -0.4653172216882567
P 6.31127038239802 5.911007883972388 5.348755819638246 1.4709044644225766 1.0046657593613149 -1.8604687594492346
P 2.4148613247997166 9.068147364773083 1.146859180227219 0.12584290133945425 -0.39872590692126814 -1.4612407160805672
P 8.034756468898452 8.372296631323447 2.562660114018555 0.6597630689080896 -0.18402028101113468 0.3104205975159557
P 0.6385970974730076 2.970644943846619 2.021716638911741 0.12103493842784961 -0.277638003768296 -0.8829214535712665
