# total energy = -340896.61727046396 ev
CRYSTAL
PRIMVEC
9.00328040582393 0.00000000000000 0.00000000000000

0.00000000000000 9.00328040582393 0.00000000000000

0.00000000000000 0.00000000000000 13.17721093946131

PRIMCOORD
 96 1
Ni 6.3046550426814 1.926152775927033 11.502255040108794 0.9220047927259735 0.4938585236610591 -0.37334346229242155
Ni 4.76526518024033 0.49841619332452236 6.106675610708723 -0.5955281701884195 -0.9092302666691244 -1.5445506291538176
Ni 2.555265987499852 1.5097420605389962 4.787531192655762 0.9228504285557203 -0.2236533220217245 0.7272617259806958
Ni 3.5275122164100017 4.440417825114695 4.812515295382228 -1.0106129780836852 -0.07882668049091585 0.42371908653149604
Ni 4.818618619071696 4.606762431231522 2.6621655353601863 1.8391401731747876 1.0292845863512596 -0.8245072752984317
Ni 7.153781414011575 6.1528417309071015 2.52197275741978 -0.16167250944355382 -0.6168426153954797 0.23394750485888097
Ni 4.78056175340511 4.305917821283818 11.310382533137687 1.0325833117071892 0.841279609660764 0.23247451985778028
Ni 5.688128416914562 7.824417754151768 12.303785570335016 -0.4872746997959543 0.15029614928581211 0.017406625512221635
Ni 1.8004669834724483 6.615385254356548 0.40904423147784047 -0.05246515977825157 -1.1303058006613436 -0.7211111329982678
Ni 2.647342534737176 1.4407049074915925 0.2772947297669404 0.1433531423090757 -0.6104775924094001 1.6486808214065283
Ni 0.405450121997334 0.016546228465117163 4.777134204609447 0.9495780743585517 0.19445921695627152 -0.3752180536073151
Ni 8.525926342309639 2.257392460038539 1.3697581587006633 0.9566154408213073 0.550327148171749 0.3271034574882754
Ni 7.121135519782325 0.5296080577914929 4.877228172919895 -1.4916753784213406 1.2577962649065497 -0.9035851525682052
Ni 0.7699704315965457 7.523645170446158 2.5749984768496166 -0.2644184197542285 -0.39739150438056076 0.32112204309385983
Ni 7.805744950888816 3.876308297031997 3.7749943842460776 -0.7198024414891733 0.3739474144250076 -0.1731208604898115
Ni 7.562179209966619 3.706488424734119 12.749663121691865 0.7022263802786228 0.48964165736623416 -1.010948249935917
Ni 7.879166701423712 8.885355296920807 6.961704532578526 -0.17719040257349483 0.016241915780159124 0.6922525568953627
Ni 6.771268048809176 0.6628530043538761 0.5076193464081238 0.32668333923172127 0.31556486072105655 -1.1319919301145152
Ni 1.9211739619422632 6.609470099224553 9.045061784500616 -1.286140877487514 -0.660551883357972 0.8380191937419373
Ni 8.976045338997816 4.9243171293451065 1.4391356357419627 0.31779349294125914 -0.8176398587546369 -0.8760386104085043
Ni 6.418051357578641 2.0823776950296082 7.0457096390611555 0.056544214943631654 -0.4671146799083116 -0.07643863987471351
Ni 3.2505983253981343 4.209717771686594 0.49801194604076804 0.7582962266889972 0.49554053934917236 -0.8370735419992165
Ni 6.050996624585736 5.566214998889667 4.84491810104441 -0.41961252056229026 0.0318557110580161 -0.06581149917817053
Ni 5.217995128204427 2.6525284241679663 9.42912461423607 0.35251187025905095 1.20727023113254 0.11007252587907496
P 0.24413204725066412 5.4921720220167085 12.386130471937372 0.04908775866558643 -0.6934229230543799 -0.3250841130654014
P 4.051305055480404 6.135069255670328 12.536099911914055 -0.6350496253218095 -1.0324017918240027 -0.8464449559117874
P 2.3439499964753856 8.404877239189876 1.4005268689953299 1.1752093460422535 1.117731820651075 0.16978459702772694
P 6.270613640011573 7.728982983376796 5.856400625335439 0.20893889862968534 -0.5368260283615206 -0.5752287965094351
P 4.709840986948752 1.001119748709709 12.75216693393267 0.0781219411144074 -0.39324020121634856 -0.9023638785665944
P 3.9573648292288905 6.075305481292569 8.208505793071954 0.4761032565601672 -0.3120445062726239 -0.8691501108187869
P 4.780192618914378 1.2329542154507946 3.8827177322503656 -0.16187125571792121 -1.4310276828322968 -0.049133524301857315
P 0.19927860531445388 5.5992840472912215 3.4604143699309873 0.828535165510902 0.050848450110435005 1.1079222907598212
Ni 1.479563065101477 1.0726598136698902 2.591944450958357 -0.26821979577818966 0.214608695320953 -0.05305137129902476
Ni 1.8746900259506427 6.5131079905826175 4.701404913343455 -0.017843713049640237 0.011380988143432013 0.029440673858620266
Ni 5.973325325767275 5.6074410192084025 9.167912444000763 -0.03598670250725415 -0.6132824088480471 0.8640554699046991
Ni 8.615364928430258 2.371148906146252 9.995902714588361 -0.20084532298827346 -0.27027642119690226 2.3112111686471097
Ni 2.2880666358904564 5.309387426141854 6.904515696355638 0.3663379775088659 -0.301117574947475 0.17891535568440153
Ni 0.5091255951959213 0.09970322594708564 9.056539166178347 0.3251059674422724 -0.3069408664974714 1.0889827735428406
Ni 1.3167117317262242 1.1883429617536263 11.27452696949511 -0.20325136132660476 -1.140315876599178 0.27960232658351847
Ni 4.152654981387371 6.936082097281499 1.4171694325592479 0.10257313217823626 0.04458678547143934 0.5462650622872335
Ni 5.711879070245164 7.602666961303886 7.950641042437981 -1.36351976978831 1.4934723224207633 0.025313796174440274
Ni 5.323153441662131 3.0256783778981036 4.908826985654698 0.5694196460268258 -0.4913694386906182 0.018013405858285102
Ni 0.5817829672365905 7.355346852512523 6.889019250369046 1.0398091400316671 0.25629784752962315 -0.6295765180223802
Ni 5.151712978917131 4.384264366121912 7.125550728422707 0.3736946749842532 0.8279661803813095 0.03571802222689978
Ni 8.160240107916525 7.269770673624212 9.040568247321959 -0.8104855070980429 -0.8279695228154192 0.7437430114651707
Ni 4.716179296253052 0.4000094397351344 10.46947795734258 -1.2392948636682528 -0.1657263677979533 -0.024666906619060743
Ni 8.040775582122837 7.055375560750213 4.656549670751192 0.3817080322070329 0.35335262099279147 0.2520868947720691
Ni 7.291864723386643 6.1566591217381 7.081828098487377 0.4963733196631128 -1.4837664079869093 -0.9868287311798939
Ni 2.338196900388102 5.238846725290731 2.5299190525788355 -0.493808387149414 0.030713112813140653 0.18637978238224676
Ni 2.2752009483963587 5.130339191575641 11.405666949132288 -0.005268704598107055 -0.15943179303849317 0.06040061257524436
Ni 1.2747114293049753 3.3595830329670995 3.8685519710864655 -0.4338610600615044 0.44537420290742646 -0.39557939087248645
Ni 3.7376217678793884 2.7134986381008064 2.6851860226615565 -1.0308899831651666 -1.233414750738392 -0.08604196729243246
Ni 1.0291469601646606 3.391670723820118 8.150407625542623 1.1130153890120122 -0.606802200440342 -0.5751256952726675
Ni 3.5743112672107844 2.6999396980265513 6.985779303998552 -0.12693741995521365 -0.3495592153886302 -0.10095205163504549
Ni 4.1309570759564584 6.753342517807953 6.002021480945678 0.1677210296304789 0.8791982390834084 -0.15868231646697833
Ni 0.6336625690891015 7.309069991966924 11.137391705531607 0.7204292764398947 -0.25124305871453506 0.3022336908297891
P 0.3626296207442358 5.553655422924471 8.002072280933454 -1.2453346421044296 -0.1966099447506872 0.3026682072640465
P 8.365442871643236 1.6991260608457432 8.077129027163892 0.5222501874298747 -0.47656502668793405 -2.2054750653598596
P 1.8258472305304336 3.0817057909672214 10.274113077957926 -0.8565113390088539 1.4889368964442549 0.15023547125120576
P 4.014724727776753 6.265184662013714 3.72468315381517 -0.22301800243057074 0.5128849441648908 0.24013177929272195
P 6.99459441570287 3.9134738379526652 10.337956238622304 -1.4470703381174563 0.48478047261919094 0.6891518064828518
P 6.125363719548119 7.82060036332077 10.125776833020732 1.434677363769742 -2.298320942948003 0.6400540205149364
P 2.309611485556919 8.405696537693698 5.753947797596402 0.4304453495117361 0.3893367523968843 0.5885321984865606
P 6.7723304358800664 4.028751838424621 1.6856157384849015 0.4747328585752017 0.21474110713375918 -0.0029449415609368638
Ni 5.37144703698637 2.890422098525237 0.4269517559185402 -0.9725048583580541 0.4197454465957287 0.2598734806960234
Ni 1.2929700816758847 0.9297147329534546 7.046289450310014 0.781333568124435 0.6637719329571665 -0.9336426340752179
Ni 6.8431772482600906 0.5992529322565674 9.207325203674774 -0.9996474802111172 1.0845980142115836 -1.1684319181091039
Ni 2.73554767146193 1.4936712052717014 9.088019135613694 0.15055300249162457 -0.3900857147477669 -0.06974477279430569
Ni 6.506571609112558 2.011999053223198 2.5844591237487053 -1.2549263995579225 0.25929575381568243 1.0240343936959138
Ni 3.9204963965568616 6.814294725180269 10.272018014641008 1.1744570412572612 0.5401646058164503 0.9693089771285758
Ni 7.984802188735291 7.119001742360281 -0.0029071591965319035 0.6145929001293544 0.9707989314105409 1.3541596687296487
Ni 7.720375847446526 3.814014600900674 8.194420161102382 -0.9043878509751585 1.0868410446094896 -0.2662737277954124
Ni 3.1959754240498564 8.236155767083936 12.290806441509622 -0.4236093004265091 0.21178742382207397 0.03955256548164156
Ni 0.138515466827635 4.722805710525729 10.09243858653935 0.2220474109871853 0.9862561465058756 0.8233644199432401
Ni 8.715652467266334 2.391244227690567 5.790145485888929 -0.020752402056002973 0.17095007809073784 0.19677372402206111
Ni 3.40239363061191 2.388957394504072 11.497248315955213 1.3113207191872511 0.6876682799587899 -0.21840672891080448
Ni 1.1000387889459928 3.15514554806264 12.774765167389763 -0.36366531577270916 1.1575391824560002 -0.8463251425044714
Ni 3.208715065620289 8.204698305849243 7.96594031658684 0.3133010043875443 1.2927105602852318 -0.723081112240445
Ni 5.695114962397711 7.920338702060875 3.663488758203812 -0.6319609590941568 -0.08283785853283798 -0.23108869525384718
Ni 3.201557457812166 8.379433969170057 3.5991315102364863 0.06187436890729345 -0.05699364377622442 -0.0156904141520633
Ni 3.350705798628975 4.175100159080013 9.077832824325505 0.07127535050621919 0.10712861275940261 0.2654008382721558
Ni 7.214733621383891 6.0095455222604555 11.345565551744711 0.0059150799328543295 -0.899045869936955 -1.642247149966043
Ni 0.54463453254842 -0.08395558844118922 0.2408503515952418 -0.3098027614262987 0.11963137321210364 -0.007027596270742736
Ni 4.631845570040868 0.41965009562622874 1.711904416521301 -0.43461439328776114 -0.21767730694394768 0.37193424064972075
Ni 6.03934637992698 5.542671421005087 0.21107650376950315 -1.0250198975376348 0.14412164504398403 0.8457263325782081
Ni 7.934050697899582 8.920098955451055 11.119022312813478 0.08926484510510432 -0.07976281915194004 1.3255854566363818
Ni 0.08387275826278077 4.952470386723723 5.796285723027469 -0.13722954590984107 -0.4743165969733895 -0.4037809528466723
Ni 7.859503537331962 8.899445430530509 2.5065294307867316 0.33262001643113037 -0.2772042586649871 0.4304168102666458
P 8.515959711059837 1.8020335542379997 3.5620767096630384 0.38208032794478713 -1.306371602712092 0.8779324849971073
P 1.808957076759316 3.090529005623775 1.6700931829855499 -0.24356240224082568 0.25518841651552826 -0.037677974166748014
P 4.708103353858227 1.1281470299233003 8.104999581542288 -0.16103230475639363 -1.0012251091108821 0.6737784093505751
P 8.44862417798191 1.6344464954450457 12.454163759235588 -0.4078227270162137 -0.383971631430229 -0.6235138567680681
P 6.324912423270427 7.722077467416004 1.3391344012182116 -0.4096132432577333 0.015822054633921136 0.38077137932537647
P 1.795218071079825 3.3248663842776383 6.036770541444082 -0.007261309548103624 -0.47055584437937664 -0.8883007156053089
P 7.040484135197213 3.932443749464256 6.036901989335904 -0.25083965262852925 1.0656248155431904 -0.6315418692788671
P 2.357058772536551 8.543212640412275 10.162093364612712 0.2986079211517438 -0.37946243070596586 0.18532871540991308
