# total energy = -381169.634000037 ev
CRYSTAL
PRIMVEC
9.20725764280438 0.00000000000000 0.00000000000000

0.00000000000000 9.20725764280438 0.00000000000000

0.00000000000000 0.00000000000000 13.47575224410510

PRIMCOORD
 96 1
Ni 8.91714596309444 2.891935110379159 0.6778815666733498 0.6451491756496567 -0.2817875071602954 -1.8018501784750776
Ni 1.0644602396298068 3.01464943750881 2.6052671500564037 -1.2679392668778229 0.9539574343731699 1.3413681733919351
Ni 2.129307184071997 5.167877076403948 6.21288790542236 0.744963257025517 1.9179678821069677 -0.8606081347860469
Ni 6.5102675890481345 0.5104218098479698 4.974384719899218 -0.03448183582695352 0.16661622660207437 -0.0004388873096315022
Ni 6.583244311499336 2.833450611134895 12.903935390630993 -0.4000225142455046 -1.3709312317610325 1.5877955558853816
Ni 8.617164308516772 6.900010796385929 2.9075552226222148 -0.15948347221203502 1.0453259560848385 0.37530161446005683
Ni 5.09560931277545 4.678898048402636 12.826679134922749 0.1648547638262774 -0.29568509107799396 -0.1269890991287555
Ni 6.2047892017801605 5.97283997240965 2.3551170141830498 1.8795615144146276 -1.8818670226193526 -0.8531051415407824
Ni 3.170675622048055 3.1437628085576614 1.9867567415185676 2.552222522331308 -0.09166908367122277 -0.31815499004573594
Ni 7.880740236877301 7.320257647614819 0.39330089161172105 -0.17921000410668492 0.011280972230457991 -0.0862967636157159
Ni 5.116905699228847 4.033524545564569 8.48223103004155 0.38681218620281765 -0.21830825565972725 -1.6823347620155478
Ni 0.41981595158080637 0.8352464864440367 11.66432825494107 -0.6303722744507982 -2.601268372015365 -0.5734264531933737
Ni 4.388059200460603 6.330523509349376 6.880867066721464 1.0289171757095117 -1.6563455370406377 -1.441345005597905
Ni 6.472398139206879 6.378309175451034 9.35760274439908 -1.0808768566062545 0.45976286752893075 -3.7576983805675863
Ni 6.541517020791685 4.848817984415369 6.1285024702801065 0.5534854912950725 0.7619916732627136 1.656344251489057
Ni 6.161266495872157 8.769443139278874 9.911482809352988 -0.621264141501943 -0.052896076668083096 -0.004088054026444572
Ni 6.851764767412386 2.1832985416866633 8.650233094330012 0.4638190398761754 0.8458988536003303 1.4262927392504727
Ni 8.15095482815889 5.562776347906854 10.480994955984622 1.3163837355324555 -0.8827347914817573 0.5548952271584056
Ni 2.1834182360333534 7.375805031736456 7.04312840599752 1.338901199908681 0.13726425580251844 0.45246967630162716
Ni 3.4201462623225067 -0.1708240886931151 13.258266565137655 1.1212503753272947 0.16483548055256775 -1.3458334082521404
Ni 3.129896678856487 0.437122833386449 1.8752586953995216 0.09822668228408246 1.848584863527455 1.2635154267785143
Ni 9.311115301596137 6.386181380560266 6.366524806656523 -0.9245162462939175 0.46025394823273635 -0.8648116313444331
Ni 1.0455393255953356 2.8439468846138722 12.072683933189175 0.5431535132414452 1.1417983746819755 1.4424814331951932
Ni 7.08541733940887 7.428065424952835 6.099597206280195 -0.3726294669445325 -0.3122201126185397 0.3801373452858034
P 4.438165095436561 5.260004894325564 1.41405151800754 -1.3254967535773172 0.08816261317986107 -0.5049960283351174
Ni 0.36366641282274337 4.0346294164570935 6.927412515246264 -1.52425742612242 -0.9746224189216893 0.5213384742488828
P 8.294265790176672 7.332236289541266 8.136241630773446 -1.354248114678397 0.34530712498049565 0.005365635187287533
Ni 7.618572788596263 4.339435673932115 8.181721799612703 0.1903665349441367 0.6024094706892851 0.374787908048432
P 4.283427926938593 4.086364995999523 5.894186055022364 1.5796402737680988 0.9444032150258315 -0.937799593666385
P 1.5292702168571601 3.950778922971969 8.80067691868478 -1.354438890532964 -0.3984415429116299 1.6387895304347453
P 2.635743172175187 1.7947891068455208 3.714887145966636 2.291274834734499 0.4425997254860829 1.458064632345431
Ni 2.528423379481369 6.71142774954698 9.980142248791653 0.09071906105312763 0.18315047681167165 2.2888199454361033
Ni 4.07637512167962 7.6776741740888514 11.426777330145466 0.4166531808236502 0.5836028795057433 -0.712348042093657
Ni 5.042824105885122 1.858135038016889 3.2067036204017705 -0.1661238603466881 -0.27989594656453737 -0.2611616033798276
Ni 9.104596517268552 2.978372843204276 10.154342638787172 -0.4636177224986467 0.3498425509570039 -1.7031789524544088
Ni 4.190195238124454 9.143156511417635 4.02516711798837 -0.8253264287656172 -0.8584967448699987 -0.5445653059873073
Ni 1.9352458190576176 9.34223583173556 5.43859806684461 0.6261842045113797 -0.5863400759312482 -0.18299158263630422
Ni 2.3244181764342744 5.597368014100288 2.5845821254968695 0.23385288826254566 0.6062648398796332 -1.8070589763695266
Ni 8.199486282113 2.095424476701265 4.289897866740064 0.19721749642769906 -0.03156106263573274 -0.7521407486105628
Ni 2.9475653598177356 3.4225033202265576 7.327615167033284 1.0179241670331178 -3.1014736638300584 -1.622143437237632
Ni 0.6889155439866882 5.894265237436327 8.660259797679666 -0.03666315974898847 -0.5996288226203544 -0.22990213114491373
Ni 8.827098985353745 8.711105956153613 4.723426186822835 -0.23821476477566714 0.286455602059926 0.30666807245205896
Ni 2.6396010130415832 4.1906003574517126 4.233852369991046 0.7459122512023476 -1.9965035137200262 0.6367429538638324
Ni 7.434243494693531 1.85389049233811 1.9459925299388996 -1.85806760620691 2.197106124569874 -1.2254669566462248
Ni 5.383557081882045 5.946184962127512 4.5767287955194655 -0.9437139022682909 1.5946100077040537 0.337625954286154
Ni 4.781623419635042 1.2647365034146334 8.430537803883334 -0.8580959098871545 -0.9320688618301948 -0.584112215041994
Ni 6.6993109987589685 2.5303108672560968 6.4057394368094265 0.02004509157633322 0.08074112390480934 -0.4992475558871144
Ni 0.9642944859650806 0.843811998038328 2.9967643399360795 -2.243354871124769 -1.4075018317962145 -0.18988728131487298
Ni 0.5818415850664563 8.903915134156467 7.603423167208273 -1.0496742057512052 0.04945388375575354 -0.8187379769148222
Ni 2.567250384096145 8.957657895820315 9.656656307427028 -0.5551945035663792 1.0956781832851454 -1.1319952725486249
Ni 0.5140255304090852 7.699016596829439 10.089928665753032 -1.5335635340146943 1.0966258919103953 0.5240283623762201
Ni 7.415755321758631 4.850429254466966 0.43287920843341354 -0.22687928515818992 0.9196913141014483 -0.6149451412624506
Ni 2.460685586512218 7.590168399400962 1.2029318671383356 -0.22562587236706305 -2.207668730577069 -0.7960911860495838
Ni 3.218267935743521 5.3443894087420745 8.552709823549904 0.01812550595611717 -0.14508940827389208 0.1549984398574879
Ni 1.3524172159938397 2.3932424257810734 5.565929833579266 0.017721585649479156 0.2766188184751623 -0.795925864116313
Ni 3.261339486037076 6.787976887884008 4.388311479314396 0.12495921318292029 -0.1243971700318632 2.743062140257121
P 8.6409834835081 1.4323085887807532 6.292421115894947 0.4788623073625431 -0.7837997702767404 0.8397842560621602
Ni 5.966229161569382 3.8665048956447112 4.168629079028132 0.47921943359164565 -1.772993145034069 -0.3907835121457399
P 2.060206717002067 1.8183412713711546 0.2525624373220308 -0.12690913782043953 -0.2280617355020653 0.18009600625606403
Ni 7.034280231599892 0.3128405103151579 7.574221429518868 -0.4915491588015921 -1.9835286987269127 -2.6857784760443035
P 7.949279061243532 8.543257653064364 11.210868984682914 -0.5581641277176645 0.10509358460724481 1.2560198897324175
P 1.0236720891808009 6.1084997034967055 4.343248399237066 -0.03806338253062477 0.329566060096155 -0.09655906477367242
P 7.650844225915398 3.884680021826729 2.6955820589885358 -0.020844447549177005 0.5093126534326003 0.4736062011699263
Ni 1.671678867646049 7.7548954422188325 12.269617962524116 -0.4504153648757597 -0.14576817950847154 -1.206949357458012
Ni 5.545300973290102 0.3396198185727052 0.9899744476845665 0.26467167341561515 -0.1777241635897778 1.4954505291930567
Ni 5.758043863645572 3.409281698546022 1.667893764113411 -1.3580839434847192 1.3026517306583436 -0.8422977665126332
Ni 4.43640650926596 7.404411980595388 2.4989168815707754 -0.8682733646407886 0.058307477491641516 -1.0406097815560915
Ni 5.665879216694206 0.2116435438174094 12.209192573411984 -0.04117056070103877 -0.23035258841877101 -0.37101712815209004
Ni 6.367435404417112 7.786190910249572 3.6240207223139853 1.4607385796331682 2.0935361756960074 0.5020744838129483
Ni 4.817918428454451 8.466238944598011 6.110053888552189 0.9324087616681167 -0.5125015926835431 -0.0922036160184541
Ni 4.298297647700476 2.1348591603069296 -0.07804347621916714 -0.9985118239447771 -0.037149612467103764 1.317054536347235
Ni 3.1760526603916714 6.107827573703753 13.019907243139018 -0.39567529302040244 -0.8537826272237812 -0.06772774236427691
Ni 3.2766879841857204 2.705524976295507 9.423000052527568 -0.8421159895191304 -0.2668902783334887 2.1261012541162225
Ni 7.8911536450393385 0.5233662930796307 13.481546240904827 -0.851855071183765 0.27923902970682873 -0.8140184599519659
Ni 4.388851024600245 1.6881782729744053 5.56039166823049 -0.8575721761732006 1.3135699202327442 1.022802835281658
Ni 1.7801311530047044 4.348348299131808 0.6056487906231145 1.3684015233606435 -0.4462972289423282 -2.497530015884434
Ni 6.248597332668732 6.633893434664118 11.49989676508695 0.1588214131480039 0.6643360329907526 1.9955802305748083
Ni 7.208067215736458 1.6618455167025865 11.110097393478787 0.8599113658293384 -1.0320017281721066 -0.5742510059771981
Ni 5.277314538308438 7.104853859859853 0.15165365798208225 0.28967976542417856 0.46262424823712583 0.5528170044731382
Ni 2.831296112894474 1.125918683026447 11.38492205855943 0.15100963041306897 0.7110588909685882 0.7066090827273508
Ni 1.177902858519695 1.907007160496195 8.094062263725604 -0.39603627590424695 -0.4185786799811371 -0.004379874235250521
Ni 4.307596977712552 7.8534499258319626 8.566145053602995 0.3571372848462043 0.2306688341076092 0.5019073621074647
Ni 9.318573180120673 4.926407542842857 1.846973079825167 -1.5359729147871355 1.7900159048443105 1.2517531440362635
Ni 8.767574066019021 4.431858124091736 4.613477722130553 -0.008031869165541005 0.7112990320038524 -0.374576049147942
Ni 0.914945427550502 5.229068509334896 11.792536552583798 -0.06567368804872559 0.8046781563876464 -0.009025600537378005
Ni 4.831370231570929 2.4771573700682614 11.283610922069453 0.01658181561808112 -0.419464167909884 -1.480033423307038
Ni 0.7308546016154065 -0.2804364884889205 0.6688354362408107 -0.2240256177594787 1.0743668234018786 0.4660569280677586
Ni 2.9660903617823857 4.029924507906429 11.665581362678342 1.5060473308722966 0.1757287304263038 -0.6076524642557792
P 4.893730986196464 5.031885884049136 10.537188689578384 -2.1021881949440506 1.182866605477195 0.19251134920128135
Ni 6.446258735341251 3.734887150572806 10.25665092125765 2.4067065680429582 0.44352737950667487 1.5123776439656986
P 0.6415681433390653 6.339178331340814 0.20869722143734573 0.3654380914024158 0.6220832949691286 0.05958300176995545
Ni 8.304485845932518 0.45959866951761574 9.345393921036692 2.0272528790877407 0.3379517130566889 1.0209359572762482
P 8.095821770621948 3.852758460290227 11.980064447720386 1.6686197264223004 0.8790110627732667 -0.6681044988942494
P 7.91663933362689 9.39177087675038 2.6672688216418683 1.156749596675169 -5.394087529090955 2.3571482974988567
P 3.2646080624274596 0.1600764570860892 7.167294717625095 -0.7114450706634134 0.6502821260008479 1.4111407141003824
Ni 1.7594332382847573 7.969516613091595 3.2522510022203237 -0.9606237906497519 -0.39765478534427645 0.7428706361625464
