# total energy = -340860.4471756152 ev
CRYSTAL
PRIMVEC
9.32744602121910 0.00000000000000 0.00000000000000

0.00000000000000 9.32744602121910 0.00000000000000

0.00000000000000 0.00000000000000 13.65166008474874

PRIMCOORD
 96 1
Ni 5.346920968004875 7.53057862063671 12.217416773097167 0.5892153405965143 0.25620734469834583 -0.8445626512874099
Ni 7.373308557798888 0.0738808323187131 12.640562878884593 -0.46242267374928103 -0.3359120569188409 0.10769554100646614
Ni 4.6293792211341085 6.007472021326082 9.259128741864604 0.8943340662835824 0.4956449261375206 0.44308720664546275
Ni 3.09911847093109 5.7294861555556285 2.648599110092946 1.1208109737970309 1.0750227118183229 4.384887372194397
Ni 2.871855255164318 6.952081107602812 12.323066885649888 0.6980750771144106 0.2755397264783706 -0.5117356610517961
Ni 9.115516857842595 6.618802143409809 0.582831977075221 -0.4172669031482491 -0.1729192860019667 0.014547044576239464
Ni 8.657445996922991 1.374007378952251 0.6742269542839514 -0.49460414357783206 0.25569646650019834 1.24733496036391
Ni 3.5731299366422156 4.918744570722968 4.8075688793062925 0.8518879813042297 -0.10871806873370952 1.492367519392359
Ni 2.4781810797219888 7.230122938047781 8.727150931778178 1.2025460861839936 1.3864961760788252 1.0050668514544754
Ni 1.2336852850472515 7.698957671366107 10.623693947481303 0.11136836187236304 0.40233059355339096 0.7240159653498885
Ni 6.573209588570163 7.970703475927944 0.6727765364693923 -0.4377799354999364 -0.6431925661439182 0.9153132396384107
Ni 1.0576950385835762 2.637465870842414 10.889219278470602 0.6116644136286498 -0.8368169459037201 0.5575696886667751
Ni 4.092164983002066 9.093242917384927 0.7820158501477884 1.3334293781608326 -0.19509865031248336 -0.45075629315494625
Ni 2.0467680587638633 2.8756608530314574 8.435374437462222 -0.8655919611538835 -0.5981082722107699 0.1456689349264459
Ni 5.83787107520307 4.487844559281247 12.138237018846294 0.8838444796061682 1.1078816673298728 0.060799133565243677
Ni 3.1177360526536626 4.347839598531841 1.0572090786598558 -1.040234143384228 -0.911132883008476 -2.819390994026848
Ni 0.8652549087902774 0.8376158215356049 12.603471358104041 -2.571816128192519 0.31133745290327025 -1.225583170509115
Ni 1.930809253165156 0.43820713244445875 0.9361845372728071 -0.6380282483341592 -0.9206061126062338 1.321351621060692
Ni 8.446561775898122 3.912331828888241 2.886056291322944 -0.4202807502739085 0.38362993182009414 -0.5844528862108644
Ni 2.9901365947554712 5.080165346920783 8.020896327012867 0.6615343018758993 -0.22731071626865368 -0.9475978107037294
Ni 6.878133117674678 1.5593250711687179 4.1576539123769924 -0.4646438497703159 0.7125694140758437 -0.397887727290689
Ni 1.2322954956300856 4.888710195398978 12.287777427388777 1.5672395861109008 0.5718948470401958 1.2991280337758013
Ni 6.232879075388048 8.755132336291979 5.716291550793731 0.8462207557161232 1.1530407803650142 0.9324437286711103
Ni 8.99488500192174 3.002448823149156 8.7201208359143 -0.30957753278937006 -0.6803532343546154 -0.0021080474819383053
P 7.064187678105616 6.288629218652485 13.125798060070053 -0.6000566541863924 -0.28273290179270016 -0.47975962236583186
P 9.266836010290135 1.8999354077234154 3.3055171232934417 0.3457416414147529 -0.42669488133036837 0.06872455905990744
P 8.743864781822607 4.398711487667568 5.882677326365756 0.29932911558848446 1.4674674137165693 -0.3286695164238146
P 3.021579414388132 1.7232549302740334 10.33060694703708 -0.797069233692137 0.2802584721102786 -0.21051652752945035
P 1.2075031448191649 4.919332199805394 1.9361604087935327 -1.723401707259187 0.8326453310245336 1.0519969403471108
P 1.0178108805446386 8.05285029067278 12.928135493399765 0.015416591665386352 -0.7093254532172494 0.34695674476877664
P 8.46633596089404 1.2352802782709789 10.199468656220281 -0.00013626846754815242 1.4461167159549353 2.1528422696554923
P 0.5324628372655702 5.767551461672772 9.89966496208947 0.18350888859235492 -0.22450204317526498 -0.20963438203481313
Ni 5.25639810697403 6.924425230945784 4.66055341032909 1.325118801412608 -1.401365894101806 -0.5894734793539074
Ni 6.709614155258989 3.773371542063149 8.13636171073125 1.3393781395450997 0.7041521365464259 -1.528012522289478
Ni 6.837428144409495 6.362829049615944 7.817500179438339 -5.075154523228615 -4.497425328894828 0.7198026985994893
Ni 8.651056696582328 6.88769374957129 11.80474072516725 0.22664762876335806 0.19593374461926902 -0.048919094298206074
Ni 1.9459197152846788 1.2100681924011827 4.862543911828673 -2.1189294189581314 -0.7916228658655851 -0.6763153168398159
Ni 1.4173520193654745 4.402899510810571 6.685613704592481 -0.9510878261348588 -1.4283753328111142 -1.6133227536222083
Ni 3.0340408819138616 2.744656877433497 6.254494498175569 0.1579061004225861 -1.0235715951268824 -0.6589133193132845
Ni 7.791066198174926 0.5786355592310402 8.371811625635248 0.8161589033337363 -0.5821849161122941 -2.2161813960337704
Ni 8.815462255421036 2.437261575204491 5.339232354470849 1.6305221482196304 0.3385569507408556 0.1997559465788366
Ni 7.58253249347976 2.3944019619704133 12.404362104597496 0.8057577626050703 0.4522380199067953 -0.25186398012798555
Ni 1.4299160887944848 6.690884644187383 6.819795540958417 -1.6189760952532442 -0.34023433844327855 -0.3542481362238673
Ni 8.561028190176382 0.23147082654585602 5.393156183856888 0.0684067707091725 -1.0664467972238538 0.9619674491618402
Ni 6.652446240240128 4.709016952971445 5.621466871781698 0.9341866795041458 1.6532640699018364 -0.4732663013320043
Ni 6.273332207617907 0.8348894091420639 1.5661592906717885 -0.7688038110885405 2.6743236972401427 -0.7195759273006639
Ni 4.69085641609076 2.8545248609556313 0.6674505649445481 1.1682120887888139 -1.18485201133834 0.7520980682980853
Ni 2.119177020142786 8.932176584125719 6.933814237840544 -0.6593915445012837 -0.3136630157126533 -0.6577049008274801
Ni 5.344337265531351 0.5261808025510649 8.681937071236096 3.716512136137264 0.8267608472192987 1.879530404066376
Ni 7.055438533989498 8.953937515066983 10.335945044241404 -0.43138663037908287 -1.9316489791384863 0.6777209389380909
Ni 2.6609617066936964 2.22222664081963 13.253549555334013 -1.0594798789877171 1.2739893297266447 0.11115007521396987
Ni 4.494308479187931 8.366383052207123 7.3865442033221 -0.276550170020756 -3.17638095466191 -0.0517071985663045
Ni 8.868572731537432 5.442611233982766 7.705857182989447 0.7399544909570159 -1.1387804137912583 0.7017183302939528
Ni 0.09409993647703983 6.889204795783242 3.0000609970364414 -0.4059589343345976 -0.9994703312033044 -2.1147076675673
Ni 0.7995887579460481 5.179316095272959 4.294661964806025 1.2994144546679687 -1.348730270183961 0.6864498341706564
Ni 6.990762025139639 1.945276121527736 6.724206944139231 -1.5585914235175997 0.049886343307481824 -0.6880711718241633
P 5.221867902797195 3.291814172738015 4.949942078532331 -1.1564562338044664 -2.07264724806214 -1.0730110807049327
P 7.437341472891804 6.439454016475128 3.8307651812692276 -0.8195003090021434 -1.0696719890293707 0.0008726324129404325
P 6.773749672255185 3.1273433217790383 1.2013041243718596 -0.006623933074420851 -0.492790487407861 1.496784417513132
P 4.161402612825039 7.972466363175221 10.442441156123902 -0.4371636420721762 -0.3447731068538965 -0.7303984718374646
P 4.821002266679463 6.026593285119305 6.792492241750846 0.003988038113470551 1.033871948611626 0.5549839302174701
P 7.663196244349904 7.908302863841766 7.2087724147196415 2.1926540023357917 5.475046425433526 -4.115729895093286
P 4.786565336960156 6.998279946416389 2.4660768533685906 0.7868002476659611 1.1404580586039972 -0.017989237488569017
P 7.96448206961083 9.033398025435016 1.9470128919269059 0.5460735151017176 -1.0941442631391223 0.24915506583725477
Ni 5.692959877987697 3.9371335071449143 3.0303546753523585 -0.15533551148193248 -0.29560358710778123 -0.3073697265047739
Ni 6.480699981593974 5.634131677624839 1.6521788608931849 1.7733201893561847 0.3490267399239279 0.6486571888029152
Ni 3.2874209457884502 7.156240240239918 5.752468049145933 -0.24753141419090274 0.1403243827850809 -0.8032211122261458
Ni 2.210791192326707 6.749703517104488 0.9532518975112656 -1.5093871938788068 1.792699622324061 -1.4542462870406052
Ni 1.0279871238609346 0.5593603925828959 9.616679585395522 0.9040618350943075 -0.23349756180565592 -1.070372614640821
Ni 4.834816213839348 3.9480839284586917 6.876040971592327 -0.5369430135553591 -0.34505464265005736 1.425549433326545
Ni 4.6017699817058455 6.226331208469589 0.479533313596778 -0.626628748247966 -0.08092855732526708 -1.3963866957196598
Ni 2.7111153825064576 3.3986320814989868 3.3877823965993397 0.2622327249568194 -1.3505819786807192 -0.22864974679505137
Ni 3.338777862103322 0.950690580907549 8.344413186480997 -2.6060621938595827 -0.050804998467009276 -0.3294290202976584
Ni 4.280364855956146 2.8377914232751227 11.729315267831874 -0.8946102027631044 0.40592653843476545 -0.6193342714690817
Ni 6.108674807743873 1.7108494274228205 10.782695184250844 0.21923359568747408 0.1481932440101964 -1.212648721835634
Ni 8.571857354695373 7.386824026694684 8.92279317369841 2.433498748535138 1.5864891783691322 2.7617522604674565
Ni 4.460766984260892 2.9889986463736307 9.086913312697083 0.6129021426904929 0.5860479986121262 0.6958425882394661
Ni 8.862323342883062 4.24285919658417 11.105215872512577 -3.593114353904193 0.7037955245379557 -1.2564875733974552
Ni 3.368103351550099 8.728036106380118 3.2399759602222997 -1.8123901587744529 -2.403770882453402 -1.037637329191329
Ni 1.2389366370060733 2.6704757013615437 1.6452569634000382 -0.02707911560497917 0.02051534634453241 0.6951219080233577
Ni 2.546532602198447 4.440162656592975 10.181380873416467 0.09108261504013347 0.8054314896139032 1.0885423435713124
Ni 7.932992612749406 4.339043817186959 0.005918264330146382 1.2952253562872853 1.0731023548671583 -0.31660358639821606
Ni 9.023007250866407 7.196945213505102 5.230974288085646 -0.5947223864576725 -0.10593407823066917 1.5005569971816868
Ni 4.230668224985272 1.0631236120117011 4.432680179610085 1.8868889013139762 2.5337632871848554 2.6672109974547613
Ni 2.848732517143148 0.18577193882462797 11.935018092741068 2.0952557294902756 -1.1717257583690273 -0.6450224202638052
Ni 0.3901493336923497 9.073375457931482 3.208945413691912 0.4246940488502557 2.0111240918466784 -0.22319283744553822
Ni 5.683007493369468 8.876034688139665 3.464886794170217 1.1568976922172591 -1.0160873709346951 -1.6642377953045207
Ni 6.915946582756495 6.378872256310745 10.205134146770526 -0.8497843046976655 -1.196255110968959 1.146472126008561
P 0.9360091812926548 1.3449244030950465 7.005253144861177 -0.30900803343914524 1.407582307325163 0.04742631180276348
P 6.410109872136846 3.851908635301656 10.055266344882119 -0.4457868649648129 0.7610807314126699 3.0820528361012856
P 5.384118821667008 1.3602867062498942 12.862866691744605 0.4218300970388993 -1.6531514555833722 0.6612697353606031
P 0.4401864164332012 3.110992309374394 13.378899233316632 0.32387183792485513 -0.5432895245986773 -2.315497968947922
P 1.7377404535281191 7.99331320443271 4.505143240174374 -0.7184590400874014 -0.059240530828872165 1.1362075108577594
P 3.7511162564969878 1.3754251507066755 2.473394234561656 -0.8574587905237877 1.062930556540479 -3.106151528921702
P 3.5651549705235785 4.882908524140743 12.346984322049199 -0.03250877126098272 -0.2386032584633375 0.4617009650919081
P 4.750206953415773 0.9547293649185079 6.556468688933053 0.5289193719199342 0.6964375415109877 0.2964055141837863
