# total energy = -340858.9211720926 ev
CRYSTAL
PRIMVEC
9.35625221460119 0.00000000000000 0.00000000000000
0.00000000000000 9.35625221460119 0.00000000000000
0.00000000000000 0.00000000000000 13.69382086053933
PRIMCOORD
 96 1
Ni 5.52525979415784 2.1277427021763247 7.730750143938422 -1.475688001854149 -2.437416595532305 0.39787692865741153
Ni 6.888203741810269 3.9141786860649 0.4860853624058615 1.3609116427415013 -0.5243610631252904 -1.2587899962783868
Ni 8.472292062758273 7.256821359812427 8.760895948911285 -1.0125667593759464 0.6291905954378713 0.8875517532544263
Ni 2.5418317051089487 2.634187269028419 1.9754566014186634 -0.6789743517292178 1.7376710726940072 0.864417224119492
Ni 6.736969283782275 2.6569884552579555 3.2805330658084513 -1.9586676738191753 -1.6159447646260878 -0.3153031224192376
Ni 8.808480911178332 4.027988135919671 5.085871485700117 -0.9725125716675379 2.0466971038552817 1.306610972416408
Ni 5.709082078052667 8.8343135230699 8.25885256302036 -2.92399195526839 -0.7578948774855205 -0.21365327338621912
Ni 8.037843855379414 0.4476807546437046 11.902682346293942 -1.1214416654024943 1.5637531702241971 0.35903115943480746
Ni 0.7082149490415953 1.5616707410522426 11.667984506288436 1.5710494467752945 -0.056453455002038265 1.052729447637761
Ni 3.9076480221386727 6.779427955554797 2.25763180679272 1.8701780163171984 0.5925873423925407 -3.041216518811214
Ni 1.7706987679517354 3.867172875799332 9.797970058522214 -0.905390324097744 0.8169099225671479 1.2664991919971866
Ni 3.481891772908046 8.183408424669166 8.895902923395369 0.7258051960398275 -2.3503464440856745 0.0854225885408787
Ni 6.996670771748312 9.22243892658235 0.44172550021814044 1.4967633344672093 -0.9739297637300387 -1.4062643598446878
Ni 1.306778366636465 5.711776678641139 3.2492008489658293 1.0106847118618851 -0.765147959503508 0.049441542460579364
Ni 9.37131560909543 8.604701741675134 2.5471058243857603 -0.5200395529318012 -0.639811308376511 0.2936901721351523
Ni 5.133897127438406 7.7661102272856875 0.4744564767412368 0.15578031232883494 -0.4901147403479108 -0.2610677581144407
Ni 8.831076259862916 8.440321749526296 5.369881452099866 -1.8075659979129324 -0.03483741939415936 0.08131396568914384
Ni 3.77973870045464 3.220150621996569 8.689016542588588 -0.13498368729845786 0.673946302387007 0.4724695164623217
Ni 2.703835209238787 2.207729300894545 6.445530453260142 0.7421995782374508 -1.78891881512539 0.1342684063989881
Ni 3.715957130275425 4.374141392765852 6.352180319748467 2.3224646300737417 1.156843441940556 -1.2108258096942826
Ni 6.827257116000176 2.310404810817782 5.781873718949585 -0.6554574995542003 0.3095808752234797 -0.6325906222583557
Ni 3.3227512819034595 0.3988897714882739 11.721800732416325 -0.6866483233347078 -0.7628535070423765 -0.4249740419845197
Ni 1.8966900579668902 4.046251539908203 7.421941431497891 -2.1144323024187264 1.2827207960623717 1.583075267591577
Ni 1.7460731125737547 4.516524836360878 0.36250050041624504 0.9976481903929011 0.37710267222453764 2.420017940439884
P 1.5843783647613454 5.726269513056219 5.647181114534157 -0.44444166379082817 2.135264665783045 -0.11630436572139968
P 4.00217423653219 0.5316278548518564 6.954228941229469 -0.23495049220209857 0.10374349833725358 0.8682383976377951
P 3.1661650477066954 4.713277460579554 2.2576046736617945 0.06663348085883364 0.22102771147341935 -0.15142897733867466
P 1.5793540574140903 1.5772395444523033 4.150638308330161 -0.16851498628668396 0.45666006023389094 -0.5245909197479094
P 4.755689351091859 1.7638219226999055 1.9256252030360173 -1.056352131992013 1.6514100474122333 -1.05188278336675
P 0.577248939815015 2.8622365563319523 13.672526888434124 -0.12128227855196531 -2.5212065335657674 -0.4135783985530683
P 8.641846062287058 5.807696974589109 12.955696702511052 -0.5589781389785277 -1.3969186569637297 -0.24525444523126796
P 4.336089515705727 8.169458252872596 3.8673674858418328 -2.4023043252102045 0.8283886126307088 0.24717043130705818
Ni 6.33467851467626 6.401070479175558 8.336565592492057 -0.4687977240376894 -0.3083084362689593 0.1650303701721932
Ni 1.7760505441205061 5.9759223863277455 8.642676897468505 -1.888098605351361 1.646240844506468 0.08645231535697369
Ni 3.678167228272513 1.052026336001337 4.404357408739708 0.9992862402169563 0.24381025658557365 1.693398733139193
Ni 8.683986621490106 1.4795509168681482 2.4988481475967976 -0.6035903783712637 -1.2713164108801718 -1.4461375418905416
Ni 8.438749899183021 6.726190881428388 3.770689333478355 0.5756782253420278 -1.3527823287661476 -0.4438371974376098
Ni 4.503164108443038 3.8481516153952917 0.3368484641891138 -0.9844759146770012 -1.711207222075524 1.4107699610245252
Ni 1.8838719926675611 7.067179487146664 13.129100799755658 1.7717266196168198 -1.1286615801897013 0.4815946186920415
Ni 0.21634180912174492 2.6173366590984255 7.0252718986194935 -1.3478571235503882 -0.2527160437156358 0.2914494557300916
Ni 1.9137558616938797 3.8266696607038617 5.0767510112083025 -0.842313193131601 -1.6934419276723027 -2.796301459197236
Ni 9.042948587383574 5.323997456454291 1.5340913169041903 -1.1326123373073334 0.7409176262012337 -0.633067047674142
Ni 5.265960625029665 1.2739847032246785 12.94402945621305 0.5254473542109338 -0.3474167151243307 0.09226506538400883
Ni 9.059134903418492 6.091097848980839 6.898001608950018 1.2320618362549234 -0.5180047818899595 -1.2273515752634476
Ni 8.879363876658417 1.7378489670276889 4.843819631588572 0.5625054354054958 -1.629094671744485 -0.17314297197699857
Ni -0.06709181215213657 5.858333010647479 10.736694989154733 4.442290335593897 -3.231021524824926 0.5169958810094709
Ni 2.936347428766977 0.47176374740317345 2.413001728223855 0.2893756039201984 -1.7026799013308032 -0.20893401353367885
Ni 8.991021388543228 4.392657415559554 8.79311700969802 -0.9075292248176177 0.4760847446174058 -0.6246741956247563
Ni 5.795683546965505 5.071144744983954 2.1261577530801885 -0.34956898558064314 0.905944396829001 0.3704815673635942
Ni 6.203176392207598 7.306007176804086 3.531745626295596 0.31109448365452874 -0.6358546377216082 -0.06557598612859673
Ni 7.920413535983885 3.4739389586712366 11.472901973059491 0.4881748430127205 0.9077253999888237 0.5602940295764738
Ni 1.435801082313651 0.02887526505605008 5.823215254228137 -0.6350002601411129 3.0162341378342634 0.7335442165552979
Ni 6.983572018887685 6.511586528311085 5.789034994263532 0.6130810914705184 1.0976075390973743 0.9230949404663585
Ni 5.400091854322496 4.765260796932161 10.09631660992792 0.028263108610751323 -0.695684208284731 -0.21751584166541893
Ni 4.78705150794102 6.8928444428237485 10.809353771272637 -0.19985082028548806 0.8250664902360112 -1.2752527698201006
Ni 5.403824998887775 8.975256103850256 5.558349115134195 1.0842434590856422 -0.10938347023185033 0.4549114529739004
P 7.7209943799328675 4.4322624304588665 3.1381440084621985 1.1130755528259861 2.096272600790564 -0.7651135067211468
P 4.766739084755002 3.1127127797832896 4.734830522786512 0.13677857441535154 -0.5933432467219588 1.0121304431694762
P 5.424146778325835 -0.479367573438768 10.899993398567364 0.7648111449893795 0.9824300878915662 0.4709649068923373
P 7.238623449588197 8.574902078917205 7.04674449705888 2.7139644515602166 -1.4574696790739095 -1.2990460155849566
P 7.7693568467447145 1.7570105712123791 0.3798703823346421 0.7526539408015553 1.7029724928705574 -0.022447530370238757
P 2.3967536609254503 1.8515835668661131 10.06962790097439 0.09149399154593921 -0.151245657683275 0.6918409232792408
P 5.694692162410063 3.301830702334628 12.224021887096072 0.29764452879720993 1.124650145037463 0.046219693089172016
P 3.250259041071927 8.80068715322626 0.415019950010933 0.7579781812279462 0.6100875560598331 -1.147129814197218
Ni 3.5035047151280825 3.3946072975960475 11.486595783550072 0.35570260928220676 -0.568686367405227 0.13987366840090748
Ni 3.7225813567220856 5.940565109856093 4.127029677549287 -0.4241564311792308 -1.8036350382896422 4.041839989782355
Ni 6.172609516782118 2.34608955611095 10.358910115400544 0.0006178360896570004 0.6925993987118201 -0.16657740294433893
Ni 0.5957724476103515 8.63562415467826 10.013099297379148 0.9233304535159325 1.8317485086964067 0.7006888605881738
Ni 7.245743557393154 0.5205837349399383 9.402724547204807 1.2925357252702643 0.2996682440954581 1.2390467522131885
Ni 9.124797080258412 2.2549877299652823 9.671096473939375 -0.3788132271577412 -0.39519732494271936 -0.4092229497978501
Ni 2.3466415749815046 7.146015266863558 10.741788532767107 -0.1442640841591193 -0.616215523334442 0.9404318890829095
Ni 2.9329417530232136 1.7641026102612047 13.59276016163892 0.432230723546933 0.3959390882047504 -0.8247692707105667
Ni 5.865247280907482 4.314673054778601 7.06768191788139 1.2626888171121609 0.9854598758568255 0.15530105869957123
Ni 4.5056622277386005 0.9499964074690884 9.658731251238944 -1.5768627110229616 0.7419506954514384 -0.48675482273674237
Ni 9.144959803411735 7.632156766781679 0.17722706182950107 -1.004598139348173 1.2072612322714757 0.9718597685748875
Ni 4.453323353808348 5.463424324403633 12.48390301510134 -0.5376572660135643 0.06378212745296757 0.3524925869853413
Ni 4.778733799874521 6.639842031320719 6.554958370283033 0.08789316156855831 -1.4035909267775826 0.4647235539683158
Ni 2.039157707830306 7.683101559157479 1.730269467247407 -2.6667548837539488 -0.5866185264036154 0.1856956118310286
Ni 5.848303108457056 9.389092487977711 2.321226251931069 -0.7055775561390428 -0.13641424909739733 1.384984624530305
Ni 8.432490566566049 7.705799826614538 11.295101372979735 -1.7735590448398681 0.8221259195504487 1.479675011526355
Ni 6.119999311542611 4.77539361789506 4.5707368319502 -0.2623150002579805 0.10615442177159136 0.2721798088672022
Ni 6.662109911183787 6.738503709117378 12.512578056363663 -0.16995120451257825 -0.11707081157377904 0.08767744601332643
Ni 1.6669660015476049 7.774231454059277 4.251465958474845 0.4867450525447294 -0.6232498044734041 -0.29717787357343656
Ni 2.085864118030488 0.47039492772923786 8.408991403934083 1.19048247015124 1.9905794349261072 -0.7521641456493304
Ni 0.2898922420593754 3.4567140986595106 3.0630479226870144 1.454040341677386 0.034948748161043035 -0.8753001895805829
Ni 3.062001893708573 8.012553906106358 6.360847951641386 -0.08063750844740951 -0.5314922748534331 0.2898072921409783
Ni 9.231121528478539 0.526648457514409 8.042463037013194 -2.326109425915181 -0.3589727953930463 -1.5940497643252094
Ni 1.2657137764183963 0.4318817874433785 0.7564847889582138 -2.141167147310409 0.5240018800136589 -0.8739475322074303
P 3.797843048158437 5.737992896866482 8.604375208478823 2.6306365407648373 -0.341278977657709 -0.10419446983174314
P 2.08530274290789 5.129162863904493 12.143460814502394 1.234948927994731 0.10945314712752117 -3.332854693513344
P 7.273896519791461 7.324036674491536 1.5115100025976718 -0.1571147148695423 -0.42951692416019577 0.6018471704279119
P 7.049290333239863 0.4908748278268297 4.11059729208563 1.4388551492965156 0.4589431998411128 0.8178961977398173
P 0.9364017732501653 8.01009321181897 7.9727888992971065 1.6095455459679633 -0.9450251648805467 -1.6401105632390143
P 7.375458635721544 5.831873529869012 10.235678919738165 -2.727970536031321 -0.12659237791096906 -0.8173123002118892
P 1.0089782203500877 8.729766762738002 12.268786874997268 -0.8842448003683804 1.4071128238879123 -1.301486763815965
P 7.346613310672033 2.9512893632801362 7.986154305340968 3.0046328061499095 0.2580749940347039 0.5918916018770968
