# total energy = -340897.0875610017 ev
CRYSTAL
PRIMVEC
9.03285702638064 0.00000000000000 0.00000000000000
0.00000000000000 9.03285702638064 0.00000000000000
0.00000000000000 0.00000000000000 13.22049931329501
PRIMCOORD
 96 1
Ni 6.518660640243702 1.986243966133445 11.290411894335277 -0.3425578443701326 -0.06599867548831215 1.0997441258244027
Ni 4.671486541010633 0.3113887772583763 6.003058837724849 -0.25533136985129573 0.12846979743934003 -0.32721247226231387
Ni 2.6971298147343523 1.654295502979255 4.796224876940358 0.27255647548033063 -0.5418332517681249 0.4670195490913441
Ni 3.270643973557336 4.2704096229728 4.784855219791261 0.6392803755737054 0.6984129200698036 0.28666154742314504
Ni 5.026866235311847 4.5034754001723 2.5537377257430545 -1.0974445311569487 0.7167052906210883 1.029169400929634
Ni 7.202682772024545 6.228163958020003 2.6127674464623296 0.5106727670049205 0.08923193498463988 -0.05375842466837838
Ni 5.206620090294795 4.3002993468993616 11.675168246283503 0.36685194103080687 1.1932595186757449 0.049744418412978844
Ni 5.995522725101115 7.990203379704615 12.32908115571185 -1.9385909576739582 0.8309849126029755 0.42222913224953085
Ni 1.8588987476636154 6.461979462353351 0.4216429269335709 0.304984771212365 0.2321456757634518 -0.8798577270442782
Ni 2.7215727258692195 1.6562014358134962 0.3198489511567195 0.1534454935480712 -1.3793631645784696 0.23794788426752567
Ni 0.395232659536629 0.09420276272520968 4.780493253129388 1.1981057910244526 0.19564758083741787 -0.03227274399077668
Ni 8.635212601954233 2.3602945759245957 1.4784619079492007 0.0874668726644171 0.7314569950089661 -0.41834136715935044
Ni 6.890498200061445 0.535173293855113 4.739522923478827 -0.4224196509937822 0.8295978024474615 0.1452578155309563
Ni 0.9176479461164698 7.325285740551357 2.426754724840302 -0.9816106773140642 0.04332051716450604 0.9646861336445838
Ni 7.557610823474042 4.012729310354781 3.6553226429350665 0.4598358868587113 -0.8456461141595759 0.2577006414144207
Ni 7.63258353685889 3.923511781426812 12.685624281999084 0.3749087498970124 -0.15790712886385064 -0.23535775494284625
Ni 7.918193443427024 8.68818127560348 6.962641822623144 -1.2163984186860535 1.4653763355154956 0.5023994712525347
Ni 7.083331632030088 0.7783152230763954 0.4149080287287827 -1.8338455004347514 0.022577371079883696 -0.010069468420860078
Ni 1.8554210977054024 6.220829278108136 9.223492772171218 -0.261072386100131 0.5478771439693596 -0.5506032846512712
Ni 0.06141168511922476 4.839353156136418 1.473979804288772 -0.2611317785831567 0.10161488203002501 -0.27890401496491324
Ni 6.2923514401058736 2.1695387010738467 7.007313817086369 0.1958213874111208 -1.5897701631132493 -0.6426729461950222
Ni 3.1908838459442985 4.235226644824127 0.5304879509114118 0.2894121135850886 0.9448099635459469 -0.3986194632503909
Ni 5.962010825503792 5.717753338438771 4.628047531532593 -0.4539321197797666 -0.09183569115607411 0.7663509786726737
Ni 5.476061182771498 2.852458824296502 9.318456101458718 -0.7625357186916416 -0.44341913606358474 -0.4161608145682639
P 0.25281882896214836 5.7254132012038745 12.400074895573079 -0.18203976024599616 -1.024538587025842 -0.006179903558466777
P 4.0708738110846925 6.018068736258776 12.547324917803735 -0.3926136233759432 0.3435929705028663 0.273968782446825
P 2.3283363277371754 8.542770343065014 1.3188025467247984 0.8044801814442274 0.4003228190947428 -0.5387450997611044
P 6.26360888902267 7.738719607012139 5.713357950205872 0.10394635837667902 -0.9502144223909699 0.2723926962089567
P 4.85617233593432 1.120607210820584 12.710571226556464 -0.003283298736962087 -0.9387712135510348 -1.1970608946997061
P 3.8561989308070665 5.994583307969546 8.133211572271954 0.45190274805456365 0.3260660173626965 0.15165369175497107
P 4.701069147798028 1.0315071090340613 3.8268060140173925 0.1708066105343381 0.2566683434951644 -0.05602253811220674
P 0.09101145433498478 5.5336908106504525 3.678617477940872 0.9333904088550957 1.0558937042983556 -0.01472085114994239
Ni 1.3789920862872798 1.1394497505941736 2.620553769225913 -0.14905019269385297 -0.20613973861799337 0.01678596120908722
Ni 1.8484928963600797 6.631318433175729 4.875469228416735 -0.2798663788781825 -0.10436364841975576 -0.5457156175416666
Ni 5.895908377726646 5.589369341409996 9.256914343198199 0.13636102726195873 0.43865179658192843 0.35782325516963537
Ni 8.796783315727097 2.166033952544531 10.123795826210388 -0.32751046311870696 0.5128643753396006 -0.0726028110683911
Ni 2.135701618623288 5.2979693734828635 6.947398876377731 0.7265539012803939 -0.21390447016507677 0.10741786186504726
Ni 0.6214542409612249 0.0032717008178303514 9.149100871493678 -0.1635609847155183 -0.2097608803103484 -0.47374992583664205
Ni 1.5264083130873662 0.8344110718309234 11.376821108011276 -0.10006682081661478 1.4553073813152677 0.27713638154152914
Ni 4.04503983996654 6.79624936976536 1.5011217331054933 0.2168890067146974 0.8043140881800084 -0.02667982328403147
Ni 5.63235670803632 7.725811654310097 7.855806209748092 -0.43371630695352403 0.21721039460985817 0.5979257238863186
Ni 5.259552632515905 2.9144784206941368 4.831550574230173 -0.14459858468040257 -0.15590706771468632 -0.4727914185781148
Ni 0.7242111192979348 7.486937750037531 6.937338080212906 1.4504914479838633 -0.691033596886597 0.8634332629396679
Ni 5.202708863198936 4.481245539010841 7.241105835991427 -0.5226631065975773 0.024523439062660992 -0.7792162646711162
Ni 8.11672660818432 7.069005520773657 9.126943273188493 -0.22268427324023585 0.8942445918935695 0.41663492599120505
Ni 4.6919459621933655 0.3187577820269738 10.439487856559916 -0.34712052404015054 -0.02688011222029564 -0.0587399370433698
Ni 8.298648348855506 7.173217592378596 5.054607042549944 -0.6539150947677448 -1.1397065251499532 -1.4072660616363248
Ni 7.1613574510925355 5.993282576556605 6.925954873778258 -0.11921382605871081 0.056843234241289196 0.07044745528828512
Ni 2.218794870481988 5.327579078841361 2.736392031119723 0.49562050065748836 -0.5252200686914761 -0.47847741321929854
Ni 2.278700778333592 5.062654414881819 11.457480004899228 0.5959958538534574 0.9090240641955892 -0.05198230660456208
Ni 1.2002318455781062 3.4313836644830427 3.850563331303355 -1.5060694423594836 -0.35679327124322424 0.12894468019322955
Ni 3.553417563016693 2.4987231099755345 2.5884284131833573 0.3871783112929848 0.4581119621890691 0.5336707705619905
Ni 1.0532672616297356 3.4552665384817822 8.329707827768013 -0.38581434106592266 0.15474158665167542 -0.4937348535990013
Ni 3.819371972678148 2.600035634472457 6.973403568493833 -0.7181019138582988 0.05224481623732938 -0.05293207211234109
Ni 4.0995711978827245 6.884184232994456 5.9404195873346595 -0.11572535328947811 -0.2489720032921712 0.05883275386749223
Ni 0.8136607926516858 7.490234742855057 11.126147582594779 -0.12969569942664116 -0.9154592782979717 0.6639246564849469
P 0.041976589924183946 5.593632849930193 7.973600085189833 0.9823393279499726 -0.8991497425046708 0.24790730947308268
P 8.430293207273673 1.6482525216232955 7.937799259620013 0.1413872768319565 -0.31050312992743295 0.12808978839210197
P 1.7373526234098184 3.1326128852159068 10.468163564501063 0.9023255691294911 -0.22657409521294528 -0.6497784468915518
P 3.9447480283144962 6.300128730012422 3.7004173751074974 -0.3119612025301982 -0.781963231288634 0.45853233755593936
P 6.956627746409695 4.022394467381503 10.433684245915364 0.5329187228873145 0.21989308364834387 0.010069725531176205
P 6.263536626166395 7.748764144034301 10.118864789555353 0.1266294017964916 -0.7105390139093763 0.161221023728432
P 2.3196647849842287 8.637805031923083 5.872823105004036 0.3588779216863948 -0.36969609534782133 -0.8321326530541734
P 6.727346736307575 3.9948171548557263 1.4878217544081622 2.1157129689033627 0.0817680225074269 0.057909984942906716
Ni 5.078579341833323 2.8794128696869103 0.6642979851607035 0.4088362558823927 -0.3399150074306469 -0.6762407548481386
Ni 1.561708718377485 1.2528392049459802 7.124659662819208 -1.0012474777083853 -0.20447957730675106 -0.7782806402307242
Ni 6.7833233513492495 0.6751672220300996 9.09329768730706 0.14660275959462493 -0.21232966947878917 -0.18693334089287159
Ni 2.719359675895811 1.5910745365960561 9.096324597699262 0.6654943149649121 -0.4430532680837337 1.1928543128175262
Ni 6.4373107297926255 2.0887578606159316 2.588348924041455 -0.1575489741934835 -0.6335984946975798 0.6914040928521383
Ni 3.947539181138101 6.6414442659112005 10.352616160603757 0.6955474255965505 0.6904692397426947 0.3466446128449966
Ni 8.219023714097984 7.2272611760149275 0.4197695123846532 0.08727635392016582 -0.3804744169102479 -0.11657176045017344
Ni 7.425749176487053 3.7792118903035656 8.16640822515878 1.908573071155629 0.8528182064279829 0.7020464030573328
Ni 3.246734000987493 8.275768121987577 12.268491460582748 0.32362218380789426 -0.2530397456036417 1.076106431800805
Ni 0.034786435724866 4.797729750922276 10.262451988258594 -0.4549402493293068 -0.13601392833518508 0.14370924009691377
Ni 8.643333140428087 2.3038843837452734 5.748722488780935 -0.0007685027349083539 0.5462933444220076 0.7436442811037773
Ni 3.7422313736050636 2.620260201372297 11.466746812930735 -1.1150378187586798 -0.8328628463519785 -0.42401039251966977
Ni 1.1026137596082204 3.355308942540008 12.538070755772075 -1.1327650608351136 -0.5787175263889839 0.8111681349873643
Ni 3.180776078922896 8.288097971839422 7.897225472393259 -0.47995759730925086 -0.3046484709188689 0.725326456631196
Ni 5.521514519368191 7.958750971511116 3.5181072215838367 -0.48670545755604566 -0.18418714560630214 0.09664699650178839
Ni 2.8988967423099363 8.469793891084748 3.563281442898169 0.8659066641808248 -0.21652108185231742 -0.03449134890865028
Ni 3.462736711249164 4.040125965739871 9.319777608442838 -0.35166212066424596 0.9717399551675716 -0.20514266481204668
Ni 7.284059781046725 6.208978169679109 11.539499250056549 0.5642090483601638 -0.8376926636404541 -1.481650390085171
Ni 0.4157806027182979 9.16265918990219 0.3523871087657436 1.4000530888276532 0.38165506748191047 -0.1732321892566952
Ni 4.820501583505794 0.44569019893033507 1.6728164730424229 -0.7162376069560503 -0.502299969560193 -0.7701760088457188
Ni 6.109770300871183 5.7961675703536955 0.39286153456512024 -0.8444078708771007 -0.1442658839313322 -0.1378754070239561
Ni 7.933169920389925 8.91401173431849 11.243598209469216 0.3724271211257393 -0.15818043712989532 -0.20438701759294478
Ni 0.037209047981470365 4.806365162247085 5.867958008205353 -0.28621391836276516 -0.4741111658308028 -0.6546589149123048
Ni 8.10739566686787 8.783974724452433 2.4291872732396436 -0.7692840931590688 0.5314411099005234 0.9064871567063485
P 8.392725554867939 1.7128916465608826 3.6895634940950597 0.405275792224644 -0.020213755943713572 -1.4676072817285435
P 1.7110941080110529 3.1610573520169774 1.6565022299527392 -0.687414512076771 0.3936698325545995 -0.23354538432445585
P 4.709289047699259 0.9477273600407522 8.183912095519883 0.4435304648304684 0.375277960310973 0.04775618433835646
P 8.496702772189986 1.7170828922248067 12.332134261389449 0.6408880863804575 0.3149673363463737 0.22002909500557588
P 6.294898705789551 7.8188049174784116 1.3518754494702538 0.2690268650605173 -0.068843601136275 0.6228661958817401
P 1.8106903896714546 3.247881173830852 6.144332721741598 0.01787019541220148 0.051320247540530974 -0.590886300541034
P 6.8932803200280155 3.963771225228772 5.825269629146864 0.08722647451883687 0.6288671506601815 0.27028002074132806
P 2.548421889378358 8.411044188933538 10.109067752815932 -0.2691837023533557 -0.12498286733200412 -0.09255508582060189
