# total energy = -340889.74990821123 ev
CRYSTAL
PRIMVEC
9.04025273727572 0.00000000000000 0.00000000000000
0.00000000000000 9.04025273727572 0.00000000000000
0.00000000000000 0.00000000000000 13.23132368375497
PRIMCOORD
 96 1
Ni 6.27048207702286 1.843506434536958 11.49215922371547 0.07622780941548808 0.6975235754863148 0.28125991679159945
Ni 4.754187593124211 0.18538846447685586 6.0993356268307295 -0.2615837785189108 0.8384259422620528 -0.2829876981159836
Ni 2.6884175028780817 1.6763702404935528 4.818067827565444 -0.35598208819583854 -1.0227922937586968 0.17186076283046528
Ni 3.593039441062168 4.3617502184258 5.049615822915603 -0.0657240816706868 -0.17681913527700516 -1.18490780427694
Ni 4.957593281461328 4.749992915818059 2.8495771857855017 0.07423983245118182 -1.2898682057404303 -1.8221819480538943
Ni 7.166714660594643 5.899153692647435 2.7579903845169094 -1.0880800592229134 0.4287018844580681 -1.320565377713971
Ni 5.033639888140965 4.573301174549218 11.152709482841521 -0.7408340653484918 1.0407771603718916 1.2778303007392895
Ni 5.7400542833565495 7.858755053834405 12.51089175305668 -1.5997319023116514 1.0056913724123517 -0.000679542565527862
Ni 1.8813127718092169 6.396403758482759 0.10957780839569012 0.044116530703240155 -0.05416902984323574 -0.0440144579077371
Ni 2.590032431492622 1.553151594625335 0.36324730238411235 1.0844794863558485 0.30971148726407305 -0.558983024074534
Ni 0.7105259021958388 9.19601637098513 4.514725760459816 -0.09357221423120658 0.050659216917764364 0.8424623171149556
Ni 8.756967452772667 2.3848277328453236 1.2852898077426709 -0.8207354669608251 0.39458231706653984 0.18859684463822357
Ni 6.912267704864132 0.7110131718225664 4.9006577692325655 0.18006129636338666 0.5732346488975418 -1.4779744838954803
Ni 0.9224221959767878 7.4527392194078885 2.8354201498772382 -0.053295626099346925 1.0837536639334175 -0.7985555884296762
Ni 7.475077684113712 3.6904391248907946 4.019253008327919 0.40594427904657826 0.0562325972404838 -0.48309897115170997
Ni 7.69094988108269 3.653591054416924 12.691432833974142 -0.2151671389275843 0.7811908718989836 -0.3631518664714004
Ni 7.910185052098843 8.73937512079471 6.874347460406404 -1.002888355745918 1.7861826471411497 1.273790069231645
Ni 7.0380085812677295 0.6978270590666322 0.3365297392147117 -0.7651243053544242 -0.04351155012938957 0.6372949697125605
Ni 1.8634221114883656 6.6721043485812945 8.731020119143103 0.2794855984999961 0.3197521593295267 2.019063915519045
Ni 0.2405846320640159 4.79707455247849 1.4172205452486881 -2.233570023823863 -1.0544238046210486 -0.8733451227367411
Ni 6.482168636938502 1.8462546713927128 6.982831398211482 0.020215812826242605 1.1691649396203865 0.8048792166548588
Ni 3.644550801601941 4.405667766600988 0.6351392339716958 -1.15039717209458 0.07899148820355428 -0.4519228026592217
Ni 5.810541134554972 5.480345900487719 4.806649084234839 0.49316921090351845 1.283543549073983 1.186831503662214
Ni 5.267728194532134 3.049837770168286 9.415105993930961 0.880982841787657 -1.8089459089795943 -0.8212142063694566
P 0.009751720711522133 5.786322297263633 12.282532254874365 0.8357810484400381 -1.2453960914699842 0.4105342124101059
P 4.036816411496868 6.03194596624672 12.464489039382654 -0.813870878630508 0.5196474596997052 -1.1850103912930754
P 2.526741621534926 8.342318176907844 1.520199873114722 -1.6259705242932063 0.553342280848989 -1.7607246120793612
P 6.4271406180537 7.726957208044768 5.773792506862066 -1.5744589866774756 -0.4393570501790691 -0.16870216259682558
P 4.64065105802084 0.9117818184135529 12.848898669581361 0.3315203556090484 0.36031516835355365 -2.0145313177560142
P 4.053848247800295 6.060965177782815 8.060628419319382 1.045830663635399 2.8071255463959335 0.5905978227663377
P 4.546153295345823 0.9912727614156981 3.8263927748994795 1.5386422340891825 -0.25526812071352817 0.2560247963738945
P 0.03747003986754143 5.655437517008309 3.527709150069412 1.206224306366529 -1.358061831997532 1.1803849767059218
Ni 1.4249427292032464 1.1759108849089104 2.3469590178286417 0.9872053977930225 -0.3085868867413266 1.7467218700423661
Ni 1.7963524758540068 6.277922205089592 5.023933368693518 0.4082171342411551 0.7558642202087369 -2.1640057424714794
Ni 5.9768637058450285 5.746725989934006 9.154077734151143 0.32069086909371225 -1.6182821545100128 1.0281892964045518
Ni 8.64654076463765 2.507513003797458 10.07025492348334 0.7704410895816474 -1.8864651835129964 1.4122187776559099
Ni 2.5505807682080364 5.209608409184608 6.929469497920482 -1.6074416122510833 -0.5302604593288609 0.5844096916777548
Ni 0.47131719661026333 8.873975444956992 9.2880588009956 0.7958631291991777 1.5236709574913307 -0.5389019370539428
Ni 1.4019624065475595 1.0812955989472985 11.254537986524207 -0.15425410549229565 1.4272538176121612 0.689652143158038
Ni 3.932482853759149 6.677627943051248 1.3140025547083385 1.316028923296198 1.5186423939284879 1.3320317264823576
Ni 5.707509373222611 7.721361291552293 8.09600925676138 -0.7819498615521953 2.003029487764002 -0.6536613268857259
Ni 5.125289971179263 2.683472484588286 5.046836849200277 1.4631060514240803 -0.16027177244128527 -0.6606434146305138
Ni 0.5166151913902985 7.457358788596346 6.6872964934368735 1.4118709073981879 -1.9705479701965285 0.21217463195816363
Ni 5.095158808546924 4.329639240426981 7.26664290313562 0.5581420162304775 -0.1798718060603999 -0.809990055518863
Ni 8.028440599171635 7.276002276874972 9.148891341111188 -0.8431426310114318 -1.0816026790286855 0.10958658738159191
Ni 4.466617151079602 0.3475434792192055 10.623363807437164 0.7652214930539208 0.6297518672579799 -0.42237517090909193
Ni 8.120036440693042 7.505805503431839 4.442919936375688 -0.29639214444734757 -0.8571428019452657 0.5330305658748304
Ni 7.10197741018655 6.067157750961079 7.000058503975713 1.3908441686348756 -0.4709610502375953 -0.1123870329448645
Ni 2.1257612079263564 5.4600324524124515 2.3652447371975076 1.6574873639545646 -0.6185287448486508 1.7800852759941599
Ni 2.22740077032521 5.414352054938343 10.988032237563791 0.9580951106906275 0.06124727684625582 0.8635188806749385
Ni 1.1571975615818957 3.34520091013941 3.67522528342846 0.16484910739932254 0.9339102859143078 -0.10324059055890605
Ni 3.6929975164374347 2.63908484326672 2.7538617010563065 -0.7813608218179446 0.5827197055698417 -0.47549107689746495
Ni 1.1635618995636436 3.5062349335327014 8.193351986997273 -0.2205962803629556 -0.49933600183586263 -1.207599589447501
Ni 3.789547416501453 2.3483322322312374 6.975262898554778 -0.9724853179740284 0.4197212782260126 0.27233021840213745
Ni 4.075364049499955 6.977041116283485 5.939885455730622 0.627344543368068 -0.6220647830263674 0.07180396931617956
Ni 0.8503325079542691 7.60617039018378 11.455203574233101 -0.7721184772840702 -0.33015844226451524 -0.5786864160407325
P 9.203067768180818 5.715274950390681 8.045862070371388 -1.2327015267214514 -1.3292847598648398 -0.7458464309614187
P 8.522879146381499 1.5091798049332577 8.065126849120118 0.5439595540825084 0.9295031579855475 -0.7317243897377398
P 1.9980585966619069 3.2115588527755166 10.193530522944291 -1.1135944014439336 0.1844738236087855 1.4237596884159736
P 3.695112935596141 6.138765593508558 3.8651872118044155 0.4088704515544378 0.6241358066227832 -0.7030036247642797
P 6.943402335558933 3.8591121619127473 10.58774521134613 0.23336797820632715 0.7155480370881935 -0.6631864927673417
P 6.245178409393723 7.950703465215596 10.374284049802906 -0.1726007263202834 -0.8990852078153226 -1.2222484497089274
P 2.3395270259894443 8.30477400696722 5.776994564409133 -0.031058926188333606 1.0332291728213046 1.0591381793775825
P 6.84940178678874 3.969683494092804 1.5406814698923474 -0.2507301236338585 -0.24227865043239563 0.4128512905790567
Ni 4.99874451227513 2.679413411074359 0.7070643893929819 1.6457543917883526 -0.31354628762913095 -0.4437302395461003
Ni 1.3592020107326903 0.7916847718423485 7.069456908735211 0.025051029431356855 0.772103821996051 -0.3621339667298473
Ni 6.892849241817548 0.8233193285178184 9.26639925927618 -1.1942077415216272 -0.4441606422152996 0.056067275307213116
Ni 2.706371444968638 1.4220860093137118 9.135038057697507 0.035171148584494265 0.9714666469015268 0.14567150602960718
Ni 6.3712266543930305 1.970946878469773 2.640562020576688 0.3265558125149215 0.12103468131753349 0.14099621204112492
Ni 4.189949253929863 7.023715941567242 10.316978791234012 -0.6244276268315891 -0.7402895056989316 0.03187473722140962
Ni 8.609701734416596 6.919165417761963 0.8915452124872134 -1.680609037573693 1.2331275585152763 -0.6235665643828745
Ni 7.6835187932687745 3.8701955118639164 8.466565603546407 -1.0163259693080624 0.41270653747107633 -2.0969500864735626
Ni 2.91225416257706 8.506606691314529 12.36055686886992 1.1506218865108764 -0.7516877202335441 1.1922449613683017
Ni 0.11882598702541772 4.795953561129433 10.114870379175844 -0.27684867509778127 1.2968888600326374 0.9238762987170733
Ni 8.74240360548773 2.3115474435270715 5.836601471344723 0.1399132633895913 -0.19362129443600848 0.17571021848354257
Ni 3.7368065815788425 2.6683210208703745 11.457083042793338 -0.664850767843642 -0.5080751814810734 0.5108409171516686
Ni 1.1985476779576278 3.479584268234132 12.373629978465667 -0.009775848439841228 0.20431296982189975 -0.17730018867848177
Ni 3.1992460284415096 8.42195376395503 8.011434075576089 1.0454357421898253 -0.24135948105223598 -0.3814619776344979
Ni 5.5806113444586956 7.899490433018717 3.7095872843782103 -0.5662577033590764 -0.058733509285466584 -0.2840603623548721
Ni 3.0090843104783427 8.400437962255369 3.633691649920584 0.9860728268504759 -0.26376124578620375 0.6663515207588847
Ni 3.449688152174983 4.371025517813973 9.101628899394457 -0.5348246816607757 -0.431586919315347 0.46496035256947016
Ni 7.066639061932781 6.087335595244121 11.436692752569144 1.02761362640674 -0.269228182438046 -0.6950650866434932
Ni 0.5238772264765743 0.12156156752723156 0.44356814059467314 0.155732489810035 -0.9135366073539622 -1.0561978658023359
Ni 4.733548695947605 0.24412931519277073 1.67951805652373 -0.8050607365380458 -0.13919438294569575 0.44474916772891787
Ni 6.020274999862576 5.727714338264098 0.2885702940059455 0.16181854810311486 -1.2307485167601386 1.135007062791755
Ni 7.833478506963712 8.930196777213371 11.372097434130245 1.13374953623557 -0.29217450682157425 0.11173654384505917
Ni 0.2314675371001056 4.676685505741362 5.692234962066415 -1.129002765579204 0.7264245747913812 0.8326533014443337
Ni 8.066653747820567 -0.032083857240374575 2.4499781228070616 -0.6251742751896265 -0.22301645976867399 0.33847159011590094
P 8.682954902976402 1.798332291220488 3.529256841351337 -1.684298313499822 -0.44903828202257506 0.6434597037623757
P 1.8237082808721452 3.321226159674075 1.3886271296201782 0.8030830439863846 -0.08599337344268417 0.5847606472592705
P 4.790891019553042 1.0767121907701023 8.368336024509365 0.7144568609065437 -0.6228168307010435 -0.29783530465177743
P 8.676355518421465 1.6813423795417937 12.338765339459403 -0.6641596553138884 0.03120882150263657 0.5426117818053623
P 6.062601463542327 7.627948359215074 1.4605794057999093 2.737232678059538 -0.7429264291011463 0.6913799244824221
P 1.9639768435494211 3.3197616387180475 5.969391032868164 -1.1922794141506627 -0.8015529804951035 0.6259610327569801
P 6.890751903164472 4.119995777647525 6.069975597763509 0.7442659738481762 -1.8668286402289915 0.3197650148453332
P 2.4307341366398068 8.540046586477152 10.235698782199782 0.24846112509402368 -1.3133066392690285 -1.408220455129794
