# total energy = -340876.1496497115 ev
CRYSTAL
PRIMVEC
9.21956275545407 0.00000000000000 0.00000000000000

0.00000000000000 9.21956275545407 0.00000000000000

0.00000000000000 0.00000000000000 13.49376202029069

PRIMCOORD
 96 1
Ni 1.2903331486615948 7.649038039001815 2.8172273745778154 -0.03345956521002625 0.10332955072828656 0.47081938245340843
Ni 3.2004421953599085 4.31848015208841 8.193709533542958 -0.6294183951779612 -0.4714994392395686 -0.7387424729267857
Ni 7.473082680587695 1.291550130967629 8.010976874423035 -0.2819024354716048 0.5479272804810048 0.5778101840833662
Ni 0.647625431762762 6.2617980644407805 0.7445341015747869 -0.9105235315592511 0.4349555786772638 -0.7556310211520084
Ni 5.262056319596562 1.4342781846018438 6.613077241208691 -0.5123283003304725 -0.719898086526773 0.04487963412150981
Ni 3.731359945930278 3.7027700813013973 2.069619470723999 0.22676435684688043 -0.46657294847222874 0.26903534970094956
Ni 0.5169160003569281 8.837190771771155 5.284427589032866 -0.9581912699488595 -0.3521457451688838 -0.16559626997799223
Ni 6.7575984998317224 0.18898352278273337 12.345294391703156 -0.3921227997824537 1.2727731979313563 0.02524720460256297
Ni 3.476392933253176 8.66696076193315 8.414790964647343 -1.2141206783954703 1.5372908622676105 -0.6372039526606509
Ni 9.183652726911014 8.084680826310382 10.643758595089556 -0.31278858352750005 -0.5718130859596668 -0.5023246521505413
Ni 7.874714500267774 7.3402840962231695 12.505681596162962 0.24637518909927242 -1.156213264555725 0.8361890825117342
Ni 2.642612540612918 6.350434942396942 9.02329225918369 -0.33914264804099653 1.5086685705452276 0.21405102304527004
Ni 5.966357170525115 2.1746367461281237 10.879278783690006 -1.1755597874031367 -0.11412741267473894 0.0652527984612231
Ni 4.676678610831161 0.5340883582601055 3.50501783222117 2.1231447425910597 -0.6530288355080496 2.098989485501095
Ni 0.5329967620098445 1.966136330590512 4.4459784097276405 0.7079601974386066 0.6169457166322471 0.8277617776799872
Ni 1.3935369360384695 1.1928915881125337 0.8502216392035226 1.842046805298621 -0.7905034075491612 -0.34480653119499327
Ni 1.3409762078058838 0.6327220082953047 11.678513474052156 -0.5608380750054018 -0.6964629954322844 -0.21709109542317448
Ni 4.20715392977505 4.950988266523867 5.2951278137630435 0.8929724100493653 0.06034661940885735 -0.2216979980675666
Ni 2.419812582979404 6.862950445370005 12.167945957331144 -1.4874731674145352 3.0142605590476608 -0.29909026010480105
Ni 4.175245022493348 8.803714538792288 13.08665511971933 -0.9821547227429925 -0.4821898290738792 -1.5527406211637775
Ni 7.699902367656292 3.1588896252591785 3.9079422346232633 1.1805060756648185 1.9124600649148609 0.1677930205189949
Ni -0.10428063232645664 6.60973514964856 6.912544318253486 0.921756167050277 -1.036936960690195 -0.07622780941548808
Ni 3.927607562341226 7.135416188477812 4.56896092544645 -1.4914586344248442 1.1984179229482328 -1.0740662614423244
Ni 6.513888573485437 6.6096613931451635 10.146863797579476 -0.0732270749159513 -2.038698144810205 0.3094656898018541
P 0.6461705847332756 3.5312401130910387 2.894857016358414 -1.0702600003223568 -2.216124831764222 0.877395895767347
P 2.1167010127105534 8.167776746948917 10.228366577744659 -0.05761302252777819 0.6491413275281853 0.011314396571554707
P 3.393822527701337 1.2370993923355205 1.9941213918915452 -0.5597633538839842 1.1162434090310067 -0.3574213917455264
P 2.1465170792083925 2.617350938199783 10.198774546625886 0.7331312973875955 -0.04741191362506028 -0.07669163642578405
P 1.7200938548243287 8.107914124880127 0.6703700934975084 1.4931830733151188 0.6821476072508769 -0.15217588280702823
P 6.380887158736573 3.1070480229347033 2.0766088213770644 -0.2002727383142551 0.15885946547479093 0.41817810210860884
P 7.531497831277339 3.0844139959550514 9.666256279931822 0.611298802759115 0.5815071733189792 -0.7774686858523902
P 4.620236446607359 1.6342597239972154 12.727046989805421 -0.3961247218529952 -0.3573144338540169 -0.7510732265779968
Ni 1.6768356655825656 3.171087107008294 6.556322533801749 -1.9123762469518033 0.20713449843109485 0.9986627477003447
Ni 6.378093631170448 4.519964480240477 11.606349189173203 1.5901067205170614 -0.5328459606678501 0.13726734112631198
Ni 5.451794924582813 0.5920167160273361 1.3766743554495555 -0.5316974488857036 0.16302825214049987 -1.545506051088551
Ni 4.464711639633936 6.5201394371482495 7.25938796329842 -1.0307827681633408 -0.3622995457734341 -1.0071587009864977
Ni 5.805945995201706 4.807882210809748 0.91330004482038 1.040726509639614 0.316415638757126 1.3130125050673773
Ni 4.406305708507216 7.766274001149783 10.248971378924628 0.10792745451161413 -1.0056067831183457 1.034700100939876
Ni 2.6482180348710154 3.463144421330667 4.326720597430331 -0.8029493466219978 -1.3810832325933697 -0.34939209368314667
Ni 4.505093325243255 5.90703850266887 11.9022132610271 0.7130350408583527 0.3394138994245122 0.4152886963759557
Ni 7.492960058252922 1.3312864471722323 5.5028777568786005 0.5182505793521784 -1.1006288424222013 -0.14623843427667071
Ni 2.5900886906320304 0.4378287456779655 3.8822906446984216 -2.841105502885804 -0.6088791375740288 -1.0612598537062754
Ni 8.491300429532615 3.979679653738813 7.546925847875201 0.40074730822667115 -0.9115121207247657 0.2704473995571278
Ni 8.22020840130056 1.2649332528045918 10.767482363667495 0.43618482309867457 -1.139481553623341 0.2974578667077006
Ni 6.46681348519293 2.256663197467417 13.491778387878917 1.5025927966647927 1.5723154579719114 0.21583331175667345
Ni 3.801548478474511 8.166227860377601 1.7425711492342644 -1.5728373919136525 -1.134471502003259 1.7129853970218691
Ni 0.3741123463067325 2.2289676304422135 9.084634621101863 0.45164692329001566 0.0148846304213163 -1.2222391937375467
Ni 3.2447237560862914 1.9763239476220866 8.088808424631681 -0.10134105954334806 -1.0503635185087459 1.9497359185471839
Ni 9.026422300796558 3.303221882842256 11.52533227997414 0.5754272856734864 -0.41824597923206674 0.006807509840136663
Ni 5.306494612892662 3.2665464615285873 8.395845684793784 1.79582042734123 -0.5406220050688431 0.12045952554035383
Ni 6.144866347869322 7.827713168478663 2.985238235619892 -0.17386236664152638 -1.0812406677035764 -0.618534915496238
Ni 5.776434174280375 8.35053614280132 7.960253605081303 0.11994736179062568 -0.00982829894433146 1.2750491384497267
Ni 1.433678913011751 4.0630060634504614 0.980623137207678 0.1896769650762798 -1.6511061430185694 -1.7122405484360448
Ni 8.040205654762584 4.269874616350436 13.596854668485756 0.4058386067066495 0.9586152448601555 0.39019215841864413
Ni 6.642409280652995 3.4022860864660296 6.145315340583745 -1.703731225413453 -0.5737511835226442 0.3162004374225264
Ni 4.18808787364718 4.005153306099212 10.604936859527065 -1.018310346727943 -0.8250364083290244 -1.082025111278085
P 1.5811181633003863 6.867200663878202 4.970332753452057 -0.3210881045321309 -0.21448451103826288 -1.7377152956683817
P 7.647885593636253 6.710154629022235 1.1998827826781833 0.47173366673756173 0.29202641127948414 0.6046699845886877
P 4.65298433411519 8.519807318095175 6.245628794983789 -1.635999369284118 0.05650359151368333 -1.8479742265266497
P 5.191803250111858 0.9098703674124653 9.169106100528733 -1.449827332037303 1.4423420794038515 -1.2057684497760333
P 2.5332316460766267 4.8476922835177465 12.45212515513453 0.5707535343469009 -2.715063598161666 0.6192674227868883
P 1.1027150431479802 5.037264936371357 7.90542855219446 0.7578563109381012 0.07284423765523584 0.25598931515026885
P 0.1206176978286741 1.2946755627990352 6.8292335817988095 0.9356138988689757 0.3142057755900008 -0.1997808862795011
P 8.607688191891528 5.3671040195583375 11.796152331099924 -0.0725912411041653 1.1551030622106815 -0.637909720478424
Ni 8.785155558625267 5.608241687848686 9.557348348973557 -0.7898128092400398 -0.188473688796798 -0.2798396394053051
Ni 6.058340749822872 6.7554964394849355 5.371907411842003 0.5247827240437414 0.22523917845160563 0.3126888247248421
Ni 6.813109488200148 5.574359794101142 7.383557036765612 -0.9953213420319373 0.9966614009995997 1.3393909950609062
Ni 7.558345198513489 8.321310128330648 6.73562735942634 1.542369048121466 0.6756843681240364 -1.6485275836581157
Ni 0.05391784789507229 0.5732097296176445 2.6902647735444987 0.4063150321224357 -1.627306212385494 1.296558473276412
Ni 2.4255287119925955 0.9720922756336365 6.047108556311951 0.4753110996761749 -0.3350947032238681 1.0392090445538231
Ni 6.616299478450805 8.904060261662568 10.029454507648529 1.3964080358758983 0.20486524278094392 1.0652972570004426
Ni 1.800350150082118 5.196265518567317 3.0070987412701777 2.0501081864193593 2.7681802754809874 0.01902282095940595
Ni 2.247120949840558 7.63952345006373 6.736491232472368 0.6528799686350111 0.15941559508857706 0.15711677175207137
Ni 0.6766744306252828 8.760142884411092 8.357766124046714 -0.1930307120398611 0.392437245699079 -0.5062936641006184
Ni 0.717403693756855 4.891780233422716 5.105229710338199 -1.1013320391368129 -0.295914947700613 0.24802686577008248
Ni 8.631806568502025 2.2668876927506902 1.3003750965989622 -1.1665624690005327 1.9245380791253175 1.1832538136132846
Ni 6.252145182058827 5.037984062279467 3.5026437947681104 -0.0350284523590429 -0.08068147431146751 0.5736041164218186
Ni 1.5275248440202562 4.860157132591674 10.562552684850544 0.5236900052001948 -1.027777919898746 0.35161584080734287
Ni 7.69717337703064 9.137315203652467 0.9315805941870825 0.7461963581016697 -0.9167260608255373 0.6384121140361392
Ni 8.547512104683303 5.324417443217894 2.676689889094462 -0.03194852788213852 -0.3968343463255101 -0.7112717783103427
Ni 3.1816158478680756 5.760133987029856 0.7873506737524665 0.5311171509022014 1.2518750143261084 1.0237238044340304
Ni 4.943243833667285 2.77632386170697 4.143394198458072 1.105279196710019 0.03218558359360908 0.08968110670691651
Ni 6.967066969476406 1.237790859554858 3.0134270492615562 -0.30948600151682826 -1.0601679061936775 -0.0720255984086824
Ni 8.273073375109654 6.895182037354065 4.37301755461201 1.704939129678625 -1.5137655254521607 0.619928453409655
Ni 5.613450740901031 7.064047551879242 0.6105000957783775 0.08312325098374071 0.6887306597850332 -0.12122057207609448
Ni 2.544802197546877 2.450744216591108 12.391834745346042 0.1733761710337272 1.1922927838871016 0.07090434032004563
Ni 3.5725068767411092 0.7363296125282727 10.768845015067738 0.168471020422626 1.119907231035839 -0.2619429616305424
Ni 4.534125728892511 3.7683857106350773 13.03188446225374 -1.91519700423005 -0.7040055836662327 -0.8178864275478044
P 8.913925193991783 1.2921862808094196 12.96488774239397 -1.1977934019903564 -0.35287902379048264 -1.6192033807727015
P 3.7978514337417857 3.090323735789657 6.207683839855416 0.9378433024201268 -0.841617452616157 0.47429525681715085
P 5.746249325265556 7.636886655067322 12.029783431257142 -0.4454827034608328 -0.17377237803088136 -1.240328961359722
P 7.9317743752075165 7.474493273715145 8.753511252799496 0.48674556676536174 0.8146686919414551 -0.6697291789818659
P 4.508523002651169 5.802866661184922 2.6232145802197655 -1.3321402270357638 1.2554776440757023 -0.23866187961541477
P 4.9208771740124435 5.421278171302711 8.980989216660904 0.8463390264615424 -0.10749268096704068 1.2623705145407937
P 7.660894396922725 8.770828357840589 4.1164066938654695 0.1761521911169676 2.096442807819841 0.7112005587527751
P 7.698473335402994 4.992190493233466 5.410094841475291 0.22590869371480446 0.9512930001671295 -0.3637871860625541
