# total energy = -340869.1869349601 ev
CRYSTAL
PRIMVEC
9.24843876729978 0.00000000000000 0.00000000000000
0.00000000000000 9.24843876729978 0.00000000000000
0.00000000000000 0.00000000000000 13.53602498245729
PRIMCOORD
 96 1
Ni 4.182541589392586 2.360663936628002 3.4110377714606988 0.826929511586679 -1.3299941272270386 -0.8442129812574751
Ni 2.418753379080345 0.3806638805046866 2.075369954319233 0.2646799009457313 -0.1719425239109942 -0.6294980993759611
Ni 5.482141421082707 0.8544937563018687 1.6316326478344907 1.0268937175215798 0.10547590764732803 -0.7286264675387064
Ni 2.855714354648859 4.332921200007949 3.8445287328900437 -0.8786382528148802 1.8952971799823295 -1.1570506728553556
Ni 0.9376066989043952 5.100227151687787 7.158864831005464 -0.25012540017032403 0.8855835737844618 1.1882921473681407
Ni 7.259598823552976 3.6097857907819217 9.250085684133657 0.8873977441750653 -0.17982809730665805 0.5588400707387665
Ni 4.32253520353064 0.43536007085771955 9.749862979090892 1.5526182366533003 1.1579063359874318 -0.9268654632523843
Ni 8.751436698677963 5.8886935307408095 0.08214648077538586 -1.8202623624336782 -0.8238837827818197 -1.9950163876515383
Ni 6.041690449462208 7.493473337282452 2.930779306036288 -0.5002243179780869 1.613831832048143 -0.46655726474294484
Ni 0.7183095739973008 7.8197582488759325 0.32288980980646337 1.4792363813270397 1.5568937241002025 -0.05564561438876223
Ni 2.671605688688218 4.163970724809828 10.72440239244986 0.5615664685309942 -0.5338566613205515 0.28966999523216563
Ni 3.2460724484282704 8.481280560566933 6.460541132687118 -0.19848633583779365 -0.5401381234538891 0.32212862998150327
Ni 0.2523510442391551 7.1597804264206495 4.331121453868604 1.6279754705383767 0.05389649290813944 0.5387787812125173
Ni 7.234748269203438 1.328908133414604 10.468517519845632 -1.103415404028403 0.2023874706644127 -0.3894588797970454
Ni 8.646716629120906 8.59761666892675 12.04392151106147 0.2383762300541959 -0.269040234796956 -2.109545149529754
Ni 4.797276050523738 2.7739026673485205 0.42215237578270115 0.12402127474968318 -1.2779637409933602 0.19918516167703115
Ni 8.313578624571337 1.705680270982824 12.454496691483266 0.5159818379226597 1.2981929235560417 0.2734938996929354
Ni 5.22369380615981 2.586501557268626 9.216475933645508 -1.1160809153112132 0.32076774507823463 -0.20811383162522867
Ni 5.009869907179049 4.343066737083291 10.947855765635587 0.4917882713955917 -0.3763719647061002 1.0375224008800195
Ni 6.449056421711584 1.1473057942975522 3.787082056916039 -0.21878185286203608 0.5640691803481899 -0.15242759380651813
Ni 8.53010306760497 4.399509957476006 2.1064493320235953 1.1810799458904173 0.36408132026420525 0.26624878809474795
Ni 1.6738101517835289 0.008733300510706454 8.419393709251203 1.1237320040985679 -0.35747847023570695 -0.30363468494237383
Ni 0.9271744602343994 3.1064580202702436 0.8971891728089918 1.3922297361284928 -0.01855050930867773 -0.8435465513180699
Ni 6.316766756875045 0.33024971719439117 12.710056019050985 -0.5221601988192297 0.4204614988261468 -0.6257345185684707
P 0.8061974854165991 0.8687382013369107 13.251483656960636 1.0508934228702869 -0.42673859008411025 0.9640402725304688
P 2.050582289351749 7.477575271436953 2.2628311792496203 -0.13831403722327149 -0.42542681325122217 0.5882288083135289
P 5.28753577738231 5.694698283983869 3.936885489810532 -1.5402694852799603 -1.066025393415719 0.7778278689640217
P 0.7787434956188313 8.307419164505543 10.067147310299939 -1.372689866323352 -0.9051879782789507 1.1685992969249035
P 4.400259080997522 9.141535836178331 3.2386561255652655 -0.6151068636512955 0.43825019026813555 1.081493407144331
P 4.434681769233093 5.954792120966394 12.230298818995292 -1.7888879618874542 0.3804307081565061 0.9128840613716278
P 6.905217155683388 6.91059049847352 0.9362647504726431 -0.05266699137641252 -0.14008886973550713 -1.0366991336477758
P 4.136401129530345 0.5707757079198438 13.200128002607252 0.06095648507871437 1.7331477309023573 1.4943644952177295
Ni 6.508607117452811 0.6868648829707181 8.246268488897377 0.5404854794909788 -0.3257088911335939 2.6695005648198866
Ni 1.7193032209481642 5.808870257725975 9.60690893977707 -2.5492624112617195 0.8095542535330251 0.2666763625504698
Ni 4.2868824729696176 8.150389926581912 1.1314225259537132 0.7666458842052731 0.12229940696257002 0.4195397583428258
Ni 6.86404310731564 1.621223530260838 6.248052708231133 -0.4582034934616108 -0.9247245056499817 -2.929776937381283
Ni 1.1877214707052481 2.5557782444479473 8.007803975121872 -0.5662839286113215 0.05257443166260623 0.18919282635100965
Ni 2.782771919905725 6.966136620328124 0.06484820133535055 1.6832752715519463 -1.2388310366579567 0.011490260027786662
Ni 0.9859390386999601 7.613841764844502 6.674289194471874 0.13596610581638519 -0.4144322619129314 -0.08621603097645153
Ni 3.751166670700559 5.604489014491725 1.8262401412225953 0.4014782728554247 -0.2109782976572173 0.7309237482133154
Ni 7.296934769927773 5.920415674923508 4.345375147342183 2.2317813073545563 -0.9361206633020652 0.6023757892378723
Ni 6.196823757485706 3.5787665279280514 7.1100672947514765 -1.330443556059631 -0.010327864288569312 0.400539048870607
Ni 8.052005037422857 8.994698377522727 0.7001992816536966 -1.47677377871916 0.34752778678089824 -0.28201787800354655
Ni 5.050341074217967 7.303612142551653 8.20082721098855 1.2369934692285858 0.5296953308540104 0.010554892697710854
Ni 8.819791907906632 7.027879196002673 2.239981986999539 -0.8371277922759196 -0.4139298683552161 -0.7073762999106785
Ni 1.3727642289581494 2.545900912090185 11.862850032316455 -0.16449120983927157 0.39427687001097905 1.640732513093729
Ni 3.1596920324905406 3.9881209144629337 13.276444267728769 -1.7302038177826848 2.103978454075254 -0.3087339538421522
Ni 6.07460564221621 4.907138251907496 13.450138267052633 -0.9995657191305883 0.01858676186325186 -0.8853136079525269
Ni 3.743166771365855 3.477005958702908 5.625030721326767 0.42378593521368957 -1.63535967881759 1.9603098374082886
Ni 6.867640749906624 5.709856474746389 7.396409125146513 0.9046950978029323 1.2303643939478424 -0.33927994494980923
Ni 1.3845467396545807 3.2726339639071953 5.688216978256977 2.055510588381854 -0.7903820514799484 -0.9131475994456596
Ni 3.5532685828809076 6.808931662072286 4.23360869246361 -1.2854207114920377 1.1448466745899961 -0.013188730776132127
Ni 8.787524105850235 0.32741507078273013 6.990625560730856 0.4776078661301517 -0.5140378268224115 -0.11561479585354283
Ni 2.1316171078149595 7.12685598522811 11.591723733002867 -0.9574109401394092 -0.048114853229355846 -2.5582787558277165
Ni 4.169778744211208 1.1155281594836293 5.39309098093928 0.8965223321841528 -0.30614305318652435 -1.5932118418049463
Ni 5.958731955783253 7.390334750715261 5.790833028046816 0.022887446121134775 0.9353521605671569 -0.18609516126229242
P 6.39120743866121 2.813411996779568 12.135316430374086 -1.788328746949875 -1.1589620309454556 0.05439862935553857
P 4.936529789578814 4.866768817692486 8.776243785366376 0.6065931697533296 -0.19787647016793664 -1.2941357227675325
P 6.778754007125304 8.410493012002972 10.65800877703494 -0.2171126926897293 0.7239956536349144 -0.4622990036872232
P 2.9817798203498436 3.3016555640370235 1.9705472270944129 -0.49319055105975707 1.109553655715657 -2.8384590664018923
P 7.923007816705569 8.97552636443505 2.7426558929066354 -0.05703529564743726 0.6835642850927454 2.0628762847183055
P 2.5635746781348323 5.392561045411096 5.750360011320188 -0.2524028833505911 0.668855518127661 0.8879813845926773
P 3.3376042446312373 7.932764919362348 9.48420528148437 -1.3165822246965067 -1.3528280944024185 0.6635035097871284
P 0.9020778974197717 5.074562734746974 11.94127771595602 0.04931478707472797 0.16344322819073143 0.6607264612626234
Ni 8.756430855488068 1.7026097893884637 1.9513530177542453 0.3479941848943555 -0.8996529073933346 1.1176994247512426
Ni 4.2952985520384965 8.4176790487464 11.731753416051216 -0.07576809617025015 -1.9793172317487269 -0.4757219619613484
Ni 7.124756589680159 2.7101069383187073 0.7420503157223706 -0.32057259834829305 0.5527403855989319 -0.0462420616866752
Ni 3.536972834178308 1.6587999360376042 7.558137494690911 -0.06973423127134441 -0.2826634820073454 -0.10387950969448563
Ni 2.894317337103258 6.5014025838323075 7.943602239640274 0.2987930405793564 0.7208450238210746 -2.0512700679379448
Ni 7.658428487032489 4.382687047776785 11.768923815376198 1.0354819734112233 0.34295019471254484 -0.4919474226812754
Ni 0.35245984234154937 1.337916112549866 10.007670602067012 -1.4538122848269799 0.196865512404919 -0.2953289932901559
Ni 6.2767117695703005 5.11848356936028 2.129095058625857 -0.6059149127393824 0.29908614633974295 0.6598728550130764
Ni 8.576909415041893 3.663177026457351 6.221075937861886 -3.078912233589775 0.462658443909171 0.4916861986000887
Ni 4.082547471928054 2.3261117702529104 11.476004495493482 0.1807459811352371 -1.6444690973180258 1.1607618031583558
Ni 3.0912258419994254 4.222633570451479 8.12292761318946 -0.4663009257577647 -1.4378079389789238 -0.43352398843705975
Ni 6.321936634017356 6.921716370033807 12.07249641160995 1.0850569561258734 0.1588584370335264 1.3059319440715123
Ni 0.2542543728901171 3.8487376972683376 10.256232561037463 -0.4962185392528035 0.5056778848934903 -1.1002434340583247
Ni 6.378241127832014 5.781282165569418 9.924437429763502 1.6409022059023741 2.1918600456795865 -0.4364951552502418
Ni 8.560058760027058 6.390772762049961 10.769058477926876 1.3965401905783885 0.47810203215775077 -0.21756237863263822
Ni 8.79942684624765 2.1217212785801234 4.353375046676887 -0.7437358123763191 -0.7616391750193012 -0.013126510079629006
Ni 2.277649952317824 0.6172990531375264 10.988923456960158 0.8691040880722 -1.334492015097392 0.559032903475863
Ni 4.726858439501268 5.479533361415208 6.2414206529560845 -0.519097500733506 0.08901339121593056 0.15487374135416554
Ni 7.741692179183172 8.823343308304928 4.903749624027455 0.6342875503448044 -0.28960726031503026 0.19481917139885158
Ni 5.830863044567509 3.356822499911601 4.7606744301687955 1.4683241052899099 0.8270737504740272 0.030781761267546986
Ni 1.7909323774190118 2.2405822106606057 3.4419136835172415 -1.061182720611437 -0.0842787047444226 -0.15571526341885442
Ni 1.3857027944717344 5.612618391965951 1.2311567622953496 0.6595571235448705 -1.316027123523985 1.1870757584625362
Ni 1.962278198198275 -0.03292999025566176 4.474915251401605 -0.05750143665057839 -0.22715439319644748 -0.01638975421193306
Ni 7.7937886334633895 7.897500623219889 8.800771569210964 0.41775926940363534 -0.6989659643597962 0.00696666112582026
P 2.8997091767704632 2.2699090092621623 9.505578422943907 -0.29851793254109876 0.16076799535141342 1.1329571222412618
P 8.18598716651171 2.160610962629176 7.8823923740254696 0.10179948723700533 0.8646982456950205 1.1653823326495025
P 8.480568430799567 5.351054053256007 8.746762537841247 1.4341659713509622 0.40416996075497497 0.6595936332097608
P 1.6355771068706193 1.007191950458515 6.400766624733292 0.4537835100170443 -0.3186213881591932 -1.01806017839035
P 5.196438657790593 -0.07490957762000325 6.937808653088589 -0.3997579477302083 -0.08505337812691803 -1.1144914593369064
P 6.89139074007023 3.226151311819076 2.8763235750852227 0.06361474863716786 -2.1145531442673065 0.10287575102031958
P 8.29096619234781 6.985031180259686 6.074128422787688 -1.0472907931206932 0.22615834783176536 0.8157159022590467
P 0.08342923920049969 4.21948910134882 4.1112426021775175 0.362457411507537 0.28490831217746415 0.3168303576970415
