# total energy = -381173.4025862227 ev
CRYSTAL
PRIMVEC
9.20892624680954 0.00000000000000 0.00000000000000
0.00000000000000 9.20892624680954 0.00000000000000
0.00000000000000 0.00000000000000 13.47819441473639
PRIMCOORD
 96 1
Ni 6.21902747229129 2.150256702240991 2.7978707721537384 0.2271770189042668 -1.6450203418358056 -0.039637411885963994
Ni 6.457750472981634 8.340036624087018 11.54151254167362 0.010764951825987912 -0.6702822232718585 0.04641509692942974
Ni 1.4836133066858976 1.1052553540429373 4.861517521013844 -0.6793564176589848 -0.07434833300458808 -0.9336655168933534
Ni 3.9340257580493305 5.561012840831666 9.014890698476178 -0.7671996998262142 -0.09284922002225299 -0.8890609908101011
Ni 4.483043535897455 8.19595376065296 5.394876440304939 0.7535841659253086 1.2228146066250423 0.03592011093537685
Ni 3.660152285051189 4.391875163917575 12.4597014471256 0.8272807242785107 -0.3591538010556008 2.2902134833495205
Ni 8.580905304643151 4.712962802889539 5.77167255901984 -0.4892855595783961 -0.25783896676449786 0.9445649374146765
Ni 2.6365985265845633 5.335440187129936 10.787556551648544 -1.8399667828411408 0.49098094500294803 0.21319767390603928
Ni 7.5795082232455755 4.11707158934671 3.0633107102974177 -0.19432603381251695 0.16746829018972448 -0.3408056375657163
Ni 7.2835056999577725 0.43680700890117186 4.740496572120109 -0.42714302461138054 0.8715684904522925 0.4639434812691816
Ni 7.64255253380863 1.017098301016333 10.76120612946842 2.9584179981567438 -0.6068173699489937 -2.6211203737442856
Ni 2.0220684458814033 4.998651328539214 5.046034017867303 -0.6508120303623889 -1.5124231524916534 -1.1016027762996965
Ni 2.0502661787099274 3.760096763949939 8.887319440189586 0.5349367817586078 0.14368532883751384 -0.6409060841025865
Ni 6.968265729289568 1.3056784295752693 12.678977957804841 -1.6916015320294544 -0.8638855199857379 4.305838291280029
Ni 8.229483461903337 0.10928877658036466 1.1829068637609912 0.22788690048709787 -0.263251653139637 1.1633683875432674
Ni 1.7312781749714397 7.391231721717431 1.9867936530663604 1.333738424760819 0.8817528871844621 1.196968849206532
Ni 8.396109777317875 5.730871489434582 8.181870549413684 -0.4530201494884585 0.1997394915186044 -0.17883179483165976
Ni 8.76140947223685 7.758806021472671 12.142600352419302 -0.6110164956320058 0.6923055216204851 1.0960098555929512
Ni 3.4429413365775114 6.967832909745825 7.057371301741822 -0.34587970965451403 -0.3209451511963634 -0.1211472956359978
Ni 3.7149730242831303 4.500476033691182 7.0215062167405256 -1.0904495878963543 -1.0810586335997574 -0.57156780271808
Ni 2.5254652020337374 7.679286941467998 9.118201039997015 1.673475511852705 1.8705839935063653 1.2952952902932726
Ni 2.3717774282991715 1.056632222320335 9.190363108650704 -0.395016576390481 0.20826758359427355 -0.7322195842066035
Ni 0.7307890937230774 2.326405047617872 10.646776009243977 -0.7107770980621113 -0.13338111869802835 -1.31959581471185
Ni 7.4956425299505485 3.271158022343909 9.87803416689053 -0.2553812492526247 0.1828789683178399 -0.8504782454408965
P 1.9137898885339875 2.072809630690407 0.6286271053321297 1.0498899213064368 -1.6300742620489348 0.7360883231333903
Ni 8.87541598184401 7.997390888266075 3.535290292929898 0.5645594897210471 0.6255820521510065 0.3492010607182631
P 3.219716959123747 2.2221968357669315 7.181154928574341 0.6735485527279561 0.01439457815877521 0.9098627580468008
Ni 3.616354630794997 3.978062844393551 1.4131613356763153 -0.15362521365904508 -0.711937951139432 -0.7653695885960109
P 1.5692931584940588 6.003621473404285 8.496303818123764 -0.9776169827736388 -2.3139722763320147 -0.39430438081480484
P 7.478504717803625 6.205352216494308 3.4516713988640695 0.25175547957457933 1.0159508453568311 0.6150297305564569
P 3.7760005799508733 8.977064112138345 10.371578292620512 0.12637074881846624 -0.03367605209620652 0.9636412373198373
Ni 7.946143212501629 2.417969403435644 1.1712861194578188 0.47269911597462466 0.4571758235280449 -0.44410022129100934
Ni 1.4290780441742972 0.5629950864330795 2.358050602513999 0.5128522911547425 -1.1984109809696974 -0.44119924559413043
Ni 5.235597006422274 6.306733287921226 2.9085675935902366 0.48879730708806785 -1.0270364137470314 -0.8406026381983974
Ni 3.83545340919351 8.265564035783859 3.1824981619324464 -0.31641820986028735 -0.2546425713143873 -0.8454198570813826
Ni 1.3691095150497548 3.1308231919801335 6.439571131251788 -0.1501321129041221 -0.28162655610239884 -0.01558499892245058
Ni 0.5268417620335031 5.71254572577398 3.069550678868485 -0.827289208918943 -1.274199645965238 0.2932831665047207
Ni 0.1384562093654021 0.9653072985905916 12.900532756890936 0.44448511543425384 1.6680679676838885 -0.7225740906970394
Ni 5.462560208019859 1.1032754348534752 10.407767531833294 -1.4097877996169141 0.14715503255366913 -0.3866692328670502
Ni 5.528072510874896 1.4856853151399858 6.2458632048959934 -0.9969550209806185 0.2384651902235764 -1.0303037716443932
Ni 5.828697915246931 5.353342340173257 7.662704427586769 -0.11838695928204127 1.4864958911029302 1.7107343962041635
Ni 4.957966291427385 2.83111868025436 8.456286428180473 -1.6793340275160111 -0.536838883877327 0.9345900855901518
Ni 6.94008641431397 5.922315861665865 12.13463463102914 0.5861130475221067 -0.6949537578766095 -0.6735105004011691
Ni 2.101458600915599 5.4599724996838646 0.6781039045378163 0.07097221744350359 0.9291874265173418 -0.2602259789394357
Ni 7.929861830515727 5.0472560424088915 0.7681156353539909 -0.09262939070196305 0.2964746768588249 0.08481760796702813
Ni 2.077073363642597 7.226106461316299 4.609879921852331 -0.09904712130284878 1.728814650744642 -0.471342087726098
Ni 0.7191692703125511 3.7405277952168845 1.2697323060211014 -0.9180275532457803 -0.16612925966332678 0.8572245630257945
Ni 0.19907857226879033 4.728019397655913 10.194393943016587 -0.061257561258900944 -0.9527590431896947 0.5861068768745196
Ni 3.2920070318552677 2.9631746857282453 5.087142665596412 0.7619770179746942 -0.9307534854528808 -0.04860644815379371
Ni 5.033599204464835 4.618755485176997 10.703290270052394 0.4336965094591821 1.3810138128080152 -1.459032652685655
Ni 7.863318127896878 7.968870843011359 9.469752728599952 -1.263078853461728 0.42604413512024686 0.01257757955469447
Ni 5.088005542005959 7.502963626488327 9.349836850881731 1.5149628881943715 -0.7748137647280462 1.3356425837620673
Ni 4.457350631066761 8.768960791936193 12.748188565527265 0.8494060954226403 3.4846086582916054 -0.8932446898741454
Ni 4.454514281716277 -0.005822804202310858 8.036778387639322 -0.13172429982089573 1.5239445228676916 -0.6383334382794038
Ni 8.671235664314933 1.1950331781269614 6.761228802771787 0.6369134180034257 0.00823010121927615 -0.7831945325925738
Ni 8.299167408445937 3.416134151644842 12.352792257143175 0.24044416832681814 0.11656558980258634 -0.13418047467087213
P 5.926073103662612 0.2410537799780314 0.9940640132553966 -0.1720646513111553 0.1910321935525936 -0.4064160764766742
Ni 4.6689901790305575 3.7328199237676762 3.366394898034971 0.09194881969517069 0.6924623589133236 0.362213413817531
P 5.594579377787894 5.607204815968138 0.5994605934397386 -0.3340323233976247 0.21070241828801134 -0.5246094316906706
Ni 1.4950600022789269 3.3611936963688867 12.49624062554396 0.8649152468018331 0.6665281555460649 -0.39878092852891966
P 7.49730013671382 2.847722374666453 4.922708074679976 -0.9185618284826954 -1.1494924008921235 0.770780218088621
P 6.905074075903111 5.423855090097493 9.91646025434108 0.5586145849915217 0.6018880509681763 -0.560738316202744
P 8.8978581356334 1.0643032580636926 8.99674911334483 0.6931154191162902 -0.33688701923760045 -0.3509357840211827
Ni 0.5798824157802211 5.600767776370771 12.419846134288052 -0.8950375201085102 0.10708490400566074 0.004016320248244696
Ni 2.7101778490208495 1.1777848588624855 11.75127438953169 -0.9881019414653629 -1.2884057622622906 0.4621830469346491
Ni 3.777096442199925 1.1312337355939714 2.0041266944542926 1.1092410095712444 0.390083914975554 -0.5950877402168913
Ni 4.255021307756668 2.1237073672492746 13.130686851507816 -0.3064029917161304 -0.4698068820284941 0.2429126844719687
Ni 0.26297747120757664 3.3293676465140924 4.247478276091141 1.9497485169526745 0.1282034311518308 -0.29068403831897677
Ni 9.021405093055831 3.2806432166004016 8.082347839346921 0.023299336847572776 -0.29865240123643405 0.4571603969090772
Ni 0.5410364012829764 6.988672710330721 10.255248370866834 0.8763677116131489 -1.1539398951405158 -0.2939997329557711
Ni 4.147129525320683 5.7865670766804715 5.03247479454375 0.6701557249963233 0.2798607224512277 -0.24690560768144576
Ni 3.7271103893608553 7.271791945497327 0.5296219369325662 0.13755684734227278 -2.2578247826061695 2.7613552821393537
Ni 4.7113512407585825 6.678451604584643 11.930169757672369 -0.25860875505098685 -1.1597076508622286 -0.4976107916146397
Ni 5.824857792912021 3.3591769414735744 0.7175079799786954 0.9763129192502348 1.4426303000682317 0.12331396427001343
Ni 3.5638821678110215 2.739305683422098 10.511212323680484 0.4584287220985395 1.502661188008883 -0.08941165509561376
Ni 6.095010859619267 3.0605222473645384 11.639189782877274 -0.6482854072857932 -0.5388368881439624 1.417569757555178
Ni 0.8591596868266247 6.317719537191124 6.435285296876087 -0.004304798022940973 0.8251821898782692 0.8247083355656442
Ni 5.566400062812296 3.9368344806204276 5.522029613330129 0.5205159783475876 -1.0334698280772008 -0.4705694712261315
Ni 6.536523629942834 8.238434538424999 2.9202528003786474 -0.4542689342938951 0.8978235674940794 -0.21503215601161674
Ni 8.795878483986414 1.4559220648128173 3.217434066253665 -1.3414589333335283 -0.19333178822004768 -0.20526530643284005
Ni 2.1623572316128654 2.669354678012082 2.931291540529383 0.1648326523390903 0.894047645391415 0.3393244250344995
Ni 6.606750903146729 5.962853555954292 5.655625351308562 0.10235021753415276 1.1734183155801017 -1.9522368305921671
Ni 0.9102756749426564 9.129840202153112 10.906056096476815 -0.33514535395614536 0.7102572210028993 -1.5512295838358898
Ni 6.774555961148483 1.038334085439121 8.163527288792803 0.11935035163657509 -0.6136881289268981 1.1835268647690136
Ni 2.3892743885781385 7.515856123535987 12.001766398241253 0.14625000424089651 -1.1395129210819084 -1.6123200233893071
Ni 2.4703958217873057 0.26574014914636085 6.758721212096017 -0.3253139696880204 -0.9705965855917478 0.14275381816217994
Ni 6.7642880081426675 3.3865919155527764 7.418061008073611 2.6250410489549307 -0.8604839505033567 -0.8630653380772877
Ni 7.087116134216066 7.43413611010675 0.5764539324581899 -0.8417249247282987 -0.9106220048103285 -0.27725105274252254
P 5.715041344845349 7.635001214109288 7.126730173180293 -0.942676462142712 -0.3279310955958933 0.4817810236712348
Ni 7.68856033041585 7.8758606857389575 6.541129934959434 0.9540929315097697 0.41676013871515966 0.3254078149534073
P 4.999434087288536 0.7985557417761616 4.001568629189373 -0.08312993585196005 -0.5469263500203162 0.6241913424510669
Ni 0.5697525966713457 8.176080897346639 7.948603837652439 -0.6015365811660286 1.1433346088208438 0.2108785388545594
P 0.41427737031038653 8.490989346662188 5.715010955388022 0.7044174743926707 0.5133060908627095 -0.6538855270813899
P 0.20081537579963935 7.072317389390645 0.6645087664010592 -1.3176685157821502 -0.5524141126077647 -0.7163054840795082
P 3.184354681507309 5.556841197144102 3.0149242479849048 -1.2514237857213029 0.3095389662419508 -0.2955848180547038
Ni 2.0260006574809397 8.986558515321299 0.11176781958410037 -0.1569697046512458 0.8885881649387407 1.4817511773290932
