# total energy = -381161.7032220729 ev
CRYSTAL
PRIMVEC
9.33653778070266 0.00000000000000 0.00000000000000
0.00000000000000 9.33653778070266 0.00000000000000
0.00000000000000 0.00000000000000 13.66496679376553
PRIMCOORD
 96 1
Ni 2.932709145239919 6.089896662708139 2.27059831494506 -1.5576730254683884 1.6833369780278171 -0.8155094426751954
Ni 5.06143036928351 1.2439255703830967 6.496502872854228 -0.4510522271288102 -0.1033192663156414 1.2259215276851403
Ni 0.6498090084237117 5.848220388319355 1.4340426834793492 -2.862249998173903 -0.2016863308323301 3.599776339305401
Ni 0.0957340550396088 8.964327140583377 10.896771937711348 -2.173381527259425 2.7702145323021967 0.9044179328821456
Ni 1.2148422559260346 1.8345829451815376 9.22509570060081 1.3489765818668122 -0.7249603315410289 -1.0292979560876983
Ni 5.1992470000060464 0.7791704707442201 10.845501275429001 0.4318239750268176 0.2465394825912786 -0.21411350085208933
Ni 6.8267455424082435 7.908980955562638 6.9964221738541434 -0.31778732229367207 0.4190944432752911 -0.4047877968446319
Ni 2.9372840486376597 1.0187656309139097 2.526420377370407 -1.2929213907444572 0.9587039479192198 -0.4114400120538269
Ni 2.1666742491697413 3.2805885342191 6.887416230692315 -1.436830662667319 0.6324476689225882 -1.0103985480800342
Ni 7.671468776919552 0.5990565239751898 1.2788563583054748 -1.0424018404595081 0.6457292165228428 0.35802354410589954
Ni 8.732463567155868 3.371937217573161 7.308434320195041 0.5799812235927561 0.814842241404842 1.0305685952700057
Ni 8.849357017236901 2.8791174197235345 9.938611639318685 -1.7974420221050527 0.17366130637431382 1.4959004722462819
Ni 7.3628308552479265 5.720235131633187 0.03343787556870739 1.4770982519381142 -0.8036116627963451 2.461692951581167
Ni 0.005038929313796667 7.377479882658242 13.487827297208034 0.25558513773331465 -1.8346381715393756 -1.0330767064038402
Ni 2.955443614165424 3.147570883795418 13.015607635800803 1.078138631739485 0.27304729907382 -0.1497328205831744
Ni 1.3681668755131549 3.746341709721688 11.333695752578137 -0.5353543289120005 0.03369404981833552 -0.06869781958703007
Ni 5.69139456715233 1.0986303730858877 2.8226491069891013 0.9591032402401676 0.07161113657908312 0.37119376293927037
Ni 5.588748673367117 5.577610184074251 12.355111092847716 0.696810094359058 -0.03290652092003365 -1.9320935228750724
Ni 1.8429858289733052 5.840349687167732 13.478849282703406 1.2509473603055166 0.6018137460868151 -1.9150800190362112
Ni 7.114843081477771 8.270379650909017 9.496359462474162 0.014284534943472172 0.21914155019429998 0.4648482524716382
Ni 0.2185907516515343 0.12806741821657608 13.735340774870831 0.8735546676443858 2.770334602819829 -1.0704332926754274
Ni 8.242902220909938 6.101212546214385 8.320161135452713 0.4438138003988421 1.8014146335995553 -0.9474119199451684
Ni 6.544530021992953 5.474413434573797 6.472616275195497 0.5046288748036857 -1.576311209394866 0.00334654787472972
Ni 4.158493823170344 2.028204060818957 4.317815300823523 -0.8058312961554831 0.20736898303940418 0.8674596104902416
P 6.7127837651167805 2.845039057679144 7.152653257579461 -1.1627801191399652 0.8394980922803089 0.10724919749766691
Ni 2.269945690970566 8.93720449901106 8.412098954325952 0.0012277017595140147 0.45781397133267604 1.2910817664325571
P 1.5554111360063771 8.186929678319219 3.111772731534979 1.313405369630422 -0.2503280030994334 -4.067699888268252
Ni 7.366033287626344 5.393717740560189 2.7669641297548115 -1.8109354286057973 1.0445739084101622 -0.7627753455062735
P -0.2370621575333489 7.274003037031395 5.64520298129523 -0.5362953526690313 2.704011968333195 3.1864871898579765
P 2.776798304752444 5.879320394886442 6.3728889830472895 0.7924029385647192 -2.536685345927657 -0.34928873533606297
P 7.7541718265056385 2.3017552743911796 3.0207368221887223 -0.716860842362346 -0.45571029472611196 -0.4193168436987424
Ni 1.7713652494548058 4.955656735420248 4.1342813803512435 -1.7692269931234175 -0.5308063045300019 1.0640189045086514
Ni 6.4617336070314035 3.0053940900387097 11.050147908254974 -0.6792270911699722 0.2432081042252005 0.9446857792632569
Ni 5.41066355620692 8.397748696117123 12.480336469035166 0.7743846476104276 -0.0058307477491641516 -0.05797940472826143
Ni 6.807540284675281 3.438301326453032 1.1610479275448926 0.7166361279460497 -0.43267372462162257 0.3427162243248678
Ni 3.648392094322316 0.8740203556781839 12.837088369644698 -0.6717104710779528 -1.414774454198228 0.28157667670106995
Ni -0.01210948919769182 4.312201240796868 13.364418811227115 0.35724424273771377 1.1594993915061644 0.09162691757937767
Ni 8.990366743800308 4.072943129632604 3.0499517818251896 1.9196216156603072 -1.562173484441903 0.14650094390943802
Ni 3.141436778627428 4.404390212530105 8.782296402656067 -0.16882968931362535 0.44609925399890915 -2.456645618965246
Ni 8.059943431150517 1.1031025745706176 6.289014197999128 1.129770496983164 -0.801905992959148 -1.020353602410217
Ni 5.0921662508862875 5.800492008382115 0.9023035288675192 0.07228245161449487 -1.5111008341358039 1.4201604011004896
Ni 4.1016903287379956 6.895163689548324 10.62792727271627 -0.33765243664871525 1.4146428137163702 -0.08430698687919674
Ni 9.363520139917618 2.531555473020932 0.9285494695642281 -2.416942386838353 -0.23026568513191953 1.2060576988816778
Ni 2.255866192350582 4.043971853626098 1.648199513450094 -1.9915435986115892 -0.8456119184875308 -0.8791249626433117
Ni 9.133206431722813 8.127194511097297 2.014257141032132 0.1244755886782824 0.4178937380989706 -0.4356387207872175
Ni 5.658445926151055 1.643398665843731 13.182073431984492 1.5725615125444465 0.763568273721214 0.6476094642646911
Ni 2.8753174489421465 9.400959655478715 6.046501369846186 0.8494839998484273 0.37771228078407854 0.8966416313708364
Ni 0.7239691261548344 7.207162764736657 10.002399797489502 1.0561130193980135 -2.9132514289224347 -1.2308107374566415
Ni 5.344514187690616 6.063315540313514 8.330655403654877 0.730099195429491 -0.28292496319884824 1.3539066721785777
Ni 3.6501940460687736 4.235501584853122 3.4145883883926644 3.3649644295636953 -0.5669632140665333 1.1710518722304541
Ni 8.564732670134639 5.105480153427465 11.340309755776012 -0.2361051746318321 -0.6736079452109819 -1.1541113877213736
Ni 4.713429605316226 6.624226706489097 5.327629059537936 -1.1837592924947935 -0.19904915031979914 0.10591325229506275
Ni 1.948320645571886 1.8000470927973726 0.6291117719908335 0.4987793580014442 -1.934287702312914 0.42381036069372174
Ni 0.9907373451995912 9.23527346018015 4.702647771757634 -1.9364960228181423 1.950675142532002 3.562617985087548
Ni 4.152313035314623 2.6858697655879715 1.6615638332940232 1.6047095580319009 0.325915093607129 -1.2843938128894203
Ni 7.534884569153142 1.3138842462183355 8.413793535890626 -0.301533579438971 -0.7708015582448596 1.1545641589880762
P 6.515614765211726 6.332002417824057 10.315956207140578 -0.33440101959095314 -0.765301711472553 -0.40788417638176855
Ni 3.6797348508656094 8.844483344637677 3.766078216441041 1.2715352117591971 -1.7584255316325392 1.0930214623885885
P 6.3841749896333875 7.661665412495823 0.7660535691452708 -0.1088913610867802 -0.3314969585702807 -1.6649764732427583
Ni 4.488307011997225 3.9167802026313754 6.267724091432053 0.2604807752627192 0.2712362140070103 -0.003100750412510789
P 5.220608997912229 8.834932066727701 5.259973707515396 0.7233343659018316 -0.4890312774757449 0.4769936295849204
P 3.1322496256817614 9.242453257553338 10.797728080111538 1.855171001385405 1.1614991955450127 -2.659525198774729
P 5.07942187713544 3.745958911682285 13.56998135838639 -0.3201578794083777 -0.029473583979084724 -0.4586030428928747
Ni 3.814059616545789 7.268905287531057 13.52101962183927 -1.7675804586589299 -0.24048324909486968 -0.5193792936399829
Ni 2.0057216784072054 7.2715848738068765 4.819961366028257 2.15634102683737 -2.4519297015468156 2.929984939627031
Ni 1.960140702105639 8.373408342733635 12.114074371280863 -0.8731751728177802 -2.662655259763279 2.258571688074523
Ni 0.3117143107931673 2.6717996035055336 5.28929883829491 0.32321337840524983 -0.4387281583458186 -1.2215748206806702
Ni 0.8047787259265093 4.698164366427849 9.03621847969072 -1.0223441504776845 -0.03900980560429411 -0.45128311219269374
Ni 8.075208670038895 2.488812804133474 12.494165748448907 1.0142081516341115 -0.2979209223870482 0.6370689697446835
Ni 7.5349125787657805 0.1601851073762213 12.511028468911475 -0.03459882102079203 -0.22140077854212192 -0.5215994412197533
Ni 1.6735930282688158 1.3344993211208058 11.69252409913799 -0.9793509347456102 0.7519468874322018 -0.26073711424789936
Ni 1.2024059879142184 6.778512989443497 7.470814447548423 -0.6661154934886786 0.2571095447976411 0.02615711801134205
Ni 2.175740027127304 8.658116718673815 1.0757651926347334 0.3120195665719594 -0.8639459409100282 -0.1978286476491367
Ni 6.393306123353775 2.4178177726305834 5.121602486462604 1.3275472083484428 1.4446252190110733 -2.435332716420083
Ni 4.691059261355032 8.971320207205636 1.2237549146678361 -0.008467414041062837 0.5187318898639711 0.19068149508139418
Ni 3.8081495882789125 7.391848813942164 7.459131638116602 -0.3626582146644335 1.1235206594187102 -0.07164378958923145
Ni 4.654376005335193 4.592857559441907 10.26737726863286 2.5923163050283997 1.175528419944569 0.9416179389712106
Ni 5.547341129348793 2.8593613062753342 9.005048449092037 -1.191714285675812 -1.4791960150074073 -1.9990710173368862
Ni 7.014531322079158 7.86428695032798 2.7095855046096036 -0.20973516927873556 1.3488017468518447 -0.8796492105778979
Ni 3.395652022941038 5.128354670416167 12.188425888031686 0.12700761107151676 0.3665647488076913 -1.008889310524359
Ni 7.170367470266261 4.442315228043617 9.246194408148185 -0.2296349935264561 0.09546326060633237 0.33948871852650564
Ni 3.6407081239216224 2.62434198315714 10.604628876922963 -0.9612297996648671 -0.7931321034212598 0.7496148968649154
Ni 4.992396010665366 0.13806031435249708 8.54785967948077 -0.22057751130987815 -0.6786791890863022 0.0070304244842201505
Ni 8.800919060446134 5.2763201174516485 5.642155535440081 0.16579861579678543 -2.5060298258253293 0.5430992629647421
Ni 6.971097749413264 6.898776929578785 4.623104206477252 0.33390865333556685 0.0686548821642366 1.7550599575944161
Ni 3.3576523151271553 2.124426416772243 8.312740455410827 1.0777755919731116 -1.8965827315629724 -0.21073532840847578
Ni 9.336024036843444 6.581960201016505 3.7960867817689525 -0.6257329759065741 -0.7210046893273906 -2.9542114162745636
Ni 8.060307556114827 0.33129303002798594 3.9376968476965937 -3.3178636194211504 -1.0688880596754946 1.4875796110854123
P 5.75963532007903 4.871310455225994 4.181629763210345 -0.6149250866577926 0.27361628420341266 0.6663348085883363
Ni 0.3996327502526775 1.1173594674039833 2.9747674459252256 2.354765141978661 2.6672932727559227 -3.1346357524043236
P 2.24713652974469 5.490052134964032 10.38227269967896 0.18670297004962041 1.3448047098773097 0.5266951105751058
Ni 4.8405465640105785 6.912977803186872 2.8988315187527762 1.3970451552392649 0.14264660316035435 0.8485653446888999
P 1.0305109951472915 0.9262470794052838 7.124777157427149 -0.0849217376450602 1.0062788694847058 -0.24282295297163983
P 2.0097643991648004 2.455742788144095 3.945404159441154 0.26976374322654184 1.1153252680921113 -0.08238534437645166
P 7.4909935061474755 1.0926643255937327 10.509069415135473 0.3658996044198666 -0.4753980029630264 0.9637145137599338
Ni 7.631900530797873 7.110081447329102 12.049589707409082 -0.7808422303103133 1.8031437004755204 -2.0323179523154744
