# total energy = -340891.02224598895 ev
CRYSTAL
PRIMVEC
9.08356015560975 0.00000000000000 0.00000000000000
0.00000000000000 9.08356015560975 0.00000000000000
0.00000000000000 0.00000000000000 13.29470846806820
PRIMCOORD
 96 1
Ni 6.4069801480490876 1.8387487466278358 11.343816061805883 -0.32254746268647677 0.3013677432850681 0.8830556651562856
Ni 4.762292580434605 0.6077719259784903 6.0966076147577715 -0.13972582996913357 -1.1868924388071367 -0.3843197587982672
Ni 2.671765713609609 1.6106423841777642 4.853911184804783 -0.47911556102392966 -0.11389884160370062 0.6938895782781533
Ni 3.1495428103023797 4.535230827401615 4.559805491027468 -0.42836121328919774 -0.5560013157383908 -0.15384709986186407
Ni 4.554715063920227 4.52650152609887 2.2523232401907447 1.0809095096164028 -0.6089706688465706 0.7492827103364773
Ni 7.551417891163316 5.95551812510663 2.714367610706249 -1.3149706572350126 0.2936577762353201 -0.35450370387809915
Ni 5.232711993407061 4.275949686521763 11.831532390013185 -0.6444151256971096 0.27933338919284795 -0.9063215776627617
Ni 5.503492921434962 7.510187611649106 12.42939596858165 -0.11808176933679664 0.9544983944783044 0.012546983427075165
Ni 1.5307797233518232 6.674236654739355 0.27534814207058517 0.9464567551207507 0.6038323191787407 0.8029213215975397
Ni 2.7628193205385476 1.336146280049112 0.39204645601087507 0.21454544618318536 -1.0570393878670248 0.5658992915783931
Ni 0.4560246952050687 -0.16817212423400696 4.711073109825047 0.8381593188642276 1.287940649700414 0.8950809717519359
Ni 8.777580424933937 2.1439563676186935 1.2805449000238995 -0.6521096661278899 0.7155935456141482 0.17777044344668094
Ni 7.055455507053174 0.7630690120579603 4.956706201581722 -0.8165455972491937 0.4498386664366834 -0.6725162548086999
Ni 0.7326672445968204 7.622560334246662 2.724870022949988 0.5600109511184161 -1.5833963983764214 -0.4543650935521271
Ni 7.6395193410439814 3.664744174807125 4.160910939020611 -0.5924790989494506 0.6188100235344955 -1.0972928360704328
Ni 7.582483666871315 3.663754066750935 12.69035756808898 1.346354570862933 1.1813118593955656 -0.730355277304355
Ni 8.110220344381043 9.036534557648443 6.969604963377317 -0.3545731236634539 -0.04401780034184677 0.5684372275088985
Ni 7.006186276807507 0.48429727616739143 0.5918820542106538 -0.5393768198078324 -0.2015983991042141 -0.97182840111632
Ni 1.803222942886906 6.732253353408064 9.143807769578611 1.306565463890453 0.1095089400661211 0.5128384071976716
Ni 9.043619734564302 4.6724289198851245 1.304751679463737 0.27806814932717916 -0.15137267017944253 -0.1063148586088556
Ni 6.457384823313322 2.136262592172882 7.044706021973395 0.17399914932970678 -0.025149245572117975 0.803473594556584
Ni 3.42380274186717 3.9023973589733103 0.2924879117148604 0.2859498660681011 0.6744589803573674 -0.43995945964975847
Ni 6.143020973692738 5.76738851087027 4.792117541826313 -0.17343427796517227 -0.9964590551808066 0.5037534141772679
Ni 5.073767857927953 3.1240815912060294 9.629304075685608 1.1067814922871584 -1.4405919294819642 -0.4201113145755797
P 0.05004133285829265 5.6104155079433955 12.493356949011561 -0.19871490690883198 -1.113606999849424 -0.4441565284502415
P 3.7847834221700474 5.9059128031354655 12.651271008769825 0.8489947189168345 0.3550999427012013 0.351134273185234
P 2.30700627228494 8.449046221481636 1.5264986414538175 1.3331154464648394 -1.1175112199998367 -2.0938279959048134
P 6.376577472231933 7.94447262235068 5.860799301657755 1.0190472248939675 -0.48123826379388734 0.8495595902813692
P 4.687707468054964 0.511117395861963 12.410437670195638 0.8591955707092364 1.3075257709211934 1.3586331311199698
P 4.173823219771757 6.318070261315203 8.090628013496662 -0.05415617432742931 0.25071084036014885 0.28269587790717765
P 4.658258566053406 1.0645024138071004 3.9243723076846515 1.0241120410113846 -1.0786412824075164 -1.4851720300851843
P 0.3819637042459985 5.5300623348694335 3.4933310363121204 0.47255359153569576 -0.2647359509946473 0.6507433819079825
Ni 1.3221939316609583 0.9049233374736099 2.4777881033496216 -0.06707108261688449 1.5067898654652758 1.2648513719811183
Ni 1.7574963010991687 6.615484187698616 4.908007418913383 0.7875785205928824 0.5199567634100077 -0.9933523912310246
Ni 6.041766528716991 5.681330862023027 9.167924621772977 -0.34456150506372274 0.07272391002728765 0.014539331266755605
Ni 8.959342463506172 2.5843818649806787 10.396461598166425 -0.5349249546840659 0.17647563589465734 -0.5338222085381903
Ni 2.392128314436884 5.584027765711894 7.018967754292514 -0.14112605275076986 -0.8344857266673822 -0.1306143545861686
Ni 0.5945508041822941 0.22284516441203883 9.302732829581407 0.9523242696451213 -0.09982847955356355 -0.24420260692798584
Ni 1.3392528576199119 0.8547702768254901 11.572299392002119 0.5128849441648908 -0.07272725246139733 -0.8030861293101782
Ni 4.1901009595579355 6.862938533265072 1.5729365260011856 -0.31274436055312593 0.84992545826122 -0.8878186337625679
Ni 5.834715858691229 8.091817051520104 8.076428592272467 -0.9200129591069252 0.4038071780989175 -0.4772345419511329
Ni 4.976319424654444 2.930002245072379 4.71343937724374 1.1140978234429133 0.9914641730693763 0.43045126304900705
Ni 0.9728765425888034 7.687307950985438 6.955631722800822 -0.4944650468968064 0.23817285579413822 -0.016668204684300327
Ni 4.683774286510647 4.701169304195097 6.527330053169089 0.9255531721988641 -0.25231777983595255 0.5032929296010815
Ni 8.361735041333894 7.407797721654792 9.241059089596895 -0.3961018390348598 -0.8418424241427696 -0.6603477377669659
Ni 4.805884585587435 0.15687853390133039 10.195286174844737 -0.025225350225692042 0.3488737592858314 -0.327044836336198
Ni 8.26922806478119 6.963475376989084 4.861874741987005 -0.3354839682424868 0.7665052448623508 -0.0746164990643102
Ni 7.303327696386463 6.304145163607495 7.063824191018021 0.4294130515924798 -0.6104295127802842 0.03728151005927773
Ni 2.2335111871231237 5.724259767285015 2.3278639430980115 0.129361456015674 -1.3905842301052695 0.8986249803494524
Ni 2.0069671970186005 5.391746964487654 11.492690162504323 1.4649757576429672 -0.9198507224974481 0.28239197351351364
Ni 1.028613267660229 3.3377723437003723 3.591565197538478 0.25553654388356634 -0.07535543411286377 -0.12536647592366798
Ni 3.309531555198569 2.329687921975838 2.73178352057904 0.5398326763983283 1.024796725783235 -0.9362021672722781
Ni 1.1993478642121385 3.58578078643589 8.247213148405194 0.4991071736545082 -0.4962632764478099 0.2925897399821219
Ni 3.447320079091734 3.0077575199438593 7.642117239246463 0.5313115263011946 0.3261940583001286 -0.9378173342781978
Ni 4.222665522690442 7.0532663690573765 5.99184509885266 0.561478022582246 0.5475431576687086 -0.7000124033464397
Ni 0.7621588393310769 7.467721967954693 11.281570965888031 -0.14997399005970302 0.18021556255306384 0.04485495153116146
P 0.3497406829750769 5.815785719341678 7.916745963353284 -1.3880205831431514 -0.4910439370303994 -0.29770546394213243
P 8.747404838120497 1.7782068182378339 8.100811592779188 -1.3111998773386708 0.8145717613522746 0.32056359948722857
P 2.048142975171921 3.284969608556924 10.459505139021335 -0.5094890311094644 0.5116207327404866 0.38014505859528724
P 4.272634187067546 6.16288671973759 3.7137572486566035 -0.7064386185877576 0.32812161434014453 -0.24305589491805235
P 7.005268837232505 4.203217620412423 10.519770018826806 0.29215959442323874 -1.5513877066803088 -1.0949703585848432
P 6.41578211783302 7.701986984185473 10.161199207031336 -0.37257238845435187 0.4432515001374689 0.38916885936045237
P 2.6790961466494783 8.548965383115547 5.696117989588831 -2.1163004659757165 1.2843714442919172 0.7952329518143466
P 6.846451871595477 3.9423650236268744 2.025023497881863 -0.33845770615883003 0.8601718185795767 -1.0358002759825904
Ni 5.770658592523744 2.7927769019084243 0.4658649159139793 -1.4444964067426929 -0.653045804788914 0.5214875982322373
Ni 1.3449391662728962 1.1930257063487564 6.911826253984501 1.1929977803739262 -0.3113243402771477 0.42323803313001956
Ni 7.2855693362960725 0.634218711350957 9.478422508194342 -0.4588223579925324 0.3315779483198612 -1.0708948056928784
Ni 2.818301705925814 1.5351852500238639 9.35854403984605 -0.6544362573785375 -0.488555623390907 0.7398220791442097
Ni 6.583855231261408 1.9038960400131464 2.608793932879873 -0.453622816069464 -0.6096424981026146 1.0016799372601137
Ni 3.9794804503937984 6.8561712809544115 10.477519655507914 0.7409014282513174 -0.5224959848920937 -0.3337932108036251
Ni 8.067091600795786 7.089736863053754 0.35347675126417033 -0.12919767674430005 0.49790338315439414 0.7316881371831656
Ni 7.998265465550318 4.052930117754872 8.156835358351307 -1.3163443976540876 -0.3590260172284849 0.002612755032498726
Ni 3.0284317028419303 8.17265165328194 12.310860050423312 -0.006970774890878318 -0.19734168071038916 0.9809828139220782
Ni 0.23910746214596537 5.130894367702105 10.077056372663403 -1.5535255789589182 -0.6939803382197467 -0.0076323197342771775
Ni 8.756597400990817 2.4539691919281266 5.785578340067716 0.4453955430636652 -0.1976360720223564 0.6032137117581354
Ni 3.678024339744287 2.3210948740753214 11.736674588094038 0.17452493992618975 0.49844537170079317 -1.2248318941653875
Ni 1.1235637218928907 2.9671630896400454 12.699983416778387 -0.2705949808785856 1.0576484822059333 -1.4496023605106907
Ni 3.084504519638852 8.536357401629378 7.942298926407134 1.2461203712305184 -0.19572342838067583 -0.022352142442955053
Ni 5.795747385654004 7.929611917947673 3.799056420231444 -1.5904203951027382 0.6037677844893924 -0.5174267978993023
Ni 3.1397325653419594 8.391656288463176 3.5625432228639013 0.758403441690823 -0.4961771444919068 -0.05086104851592531
Ni 3.51808101264884 4.698625907353507 9.367331475933744 -1.0641094073399286 0.44112545493340155 0.4160266029832448
Ni 7.324764898337011 6.186367722721559 11.37737254970661 0.10721757292878309 -1.0436511394855768 0.45513205362513875
Ni 0.43032457847681177 9.080571657248552 0.3332867221220162 0.05041701899997124 -0.43826818799026457 0.06272900359810486
Ni 4.8688518245370975 0.2804013265812165 1.7420724159669523 -0.8364238242303594 0.2087085277864341 0.12132290198191364
Ni 6.107540587752552 5.526247239607048 0.30273144249436607 -0.09216787768451223 -0.19195264848433394 2.092731420406525
Ni 7.803977197533252 8.63571338253408 11.67287347832274 -0.1611001818798516 0.6566301797060626 0.050413676565861563
Ni 0.1713877045265892 4.981551555300001 5.755013068523903 -0.009966624294408642 -1.1134223946424437 0.681422299049078
Ni 7.839130575308092 8.609416475904064 2.7841375278511507 -0.3742963131239941 1.1213213377745463 -0.23016206967451974
P 8.593956256531254 1.542252259819426 3.581062785294739 -0.0670469142471684 0.47205968261841286 0.4799447417934444
P 1.7523731731753938 3.210566167380254 1.4009565733529117 -0.2024826014813803 -0.10101092989743894 1.3942143706586891
P 4.605274159706988 1.2703086360925127 8.123253436482164 1.2680711644699967 -0.12199293146574473 1.1811581074265207
P 8.355267546508136 1.6118959154782624 12.366671260687955 0.47827532451082144 -0.6829058255731401 0.28078760514087125
P 6.273024886538606 7.614584968436246 1.607755628762559 0.45764479274466346 -0.4233920422093804 -1.249424753013403
P 1.9791170016031847 3.4602641523033997 6.132316906413703 -0.6596918493505219 -0.6507251270755373 -1.1831095747259366
P 6.839384861799914 4.092761529006209 6.182704322913653 0.08422908245340978 0.6332038303623224 -0.22008925881954997
P 2.5542244452875345 8.501431112858253 10.185288808545257 -1.056137959098678 1.0480744653642529 0.258498968946
