# total energy = -381176.15156199096 ev
CRYSTAL
PRIMVEC
9.17774380930837 0.00000000000000 0.00000000000000
0.00000000000000 9.17774380930837 0.00000000000000
0.00000000000000 0.00000000000000 13.43255576549376
PRIMCOORD
 96 1
Ni 4.0645106136576326 3.9586086298273195 5.077734428985212 1.7015571005802694 -0.716556937968682 0.44095344813191156
Ni 8.261281690871781 4.846078084062834 4.303468771417812 1.0531184555460638 -0.27324835934103264 0.4501870509150375
Ni 6.441325949860003 2.8710184755814065 12.593813623065698 -0.3786808153449349 -1.2323387440653937 0.19054574083447828
Ni 3.078655747630718 4.073330425293038 2.5375974736603917 0.21422302984676006 1.172101139430575 -1.148037927833784
Ni 7.860654825618222 8.987461478426136 8.069513655345652 -0.36188148439940904 0.4856047682926992 0.8386375440522266
Ni 6.06042205568291 3.8739072337990708 10.536362656629517 -0.7545380451981456 0.3793230769146242 0.7917753322830492
Ni 7.537671671535859 4.395129650446193 0.6484387923006015 -0.6086760204242873 1.1231789598085753 -0.1751569170832338
Ni 4.1411723062596435 6.951278097320573 11.825484130082874 0.45609004666303393 0.1044351250876395 1.0127133122561396
Ni 7.422234012066436 5.438409658411427 9.45508220113422 0.7088094328127793 -1.0464937511406944 -0.9508790525581623
Ni 5.452378184227333 6.2509979023105595 9.857789660870345 -1.276345745773963 0.4049762587063541 1.852235830016481
Ni 6.973442348204549 1.812925589385639 1.5433871898261178 -1.9721826775864744 -0.2096384957998712 -1.7259069901795436
Ni 1.3267529756892031 5.980144332087819 8.362585625139829 1.5226281180491132 -0.021061191545673406 -0.9971452826145538
Ni 0.4319321488002447 1.1544316611560586 6.992356760066573 -0.07431747976665266 -0.9196756303721645 0.45463865892848804
Ni 7.556908222199551 0.7629605129550266 12.621175230171453 1.153474011247691 -0.8369784111822488 0.7959783146208034
Ni 5.492806144949452 6.361663135088609 1.3950785237454932 0.625439098815239 -0.25227278553063004 1.0036874546084456
Ni 4.788900741202721 1.526304655594091 5.113317458841223 0.5979046408403962 -0.8032280542046812 0.48298738527451013
Ni 8.208096666493875 6.347474343425409 2.383472871436837 -0.3998955017493371 -0.5875821758684655 -0.40259104630362924
Ni 2.0211043483095485 4.367366975943489 4.503438956432559 -3.0889248806307705 0.3004352041684697 -0.19001377959040824
Ni 7.18877974716552 8.454188684383295 1.4737125134551512 0.7939998507381939 -0.5465481407452909 -0.4481006006996541
Ni 4.4193680713921895 3.866418194991069 9.005924345301207 0.6746690394856445 -0.43471312364915454 -0.08851948229864755
Ni 7.288147177526106 8.360988697746945 10.586439179237484 -0.751337535982977 -0.4340788324992653 0.36509510624070024
Ni 6.352311014322243 7.497005089479172 12.901620460269491 0.5425441617922204 -0.11091019128902188 -0.4676924067886526
Ni 8.619296292417555 3.3130094314080853 2.4287264897634255 1.533966682990384 1.015173343760858 -1.2849270596850708
Ni 6.5442635224954815 6.861510586804559 3.921903161924472 0.4876485381956053 1.049313994198309 -0.6337458189087215
P 3.525777062150624 0.6267058953675759 6.874110711044149 -0.3488447058201089 -0.044629208673600554 0.3555714830209811
Ni 2.640152334386197 8.304912684123304 13.142103041247818 -0.16204866183604993 -0.6701135589044781 -0.019952274752210796
P 2.0471599624957224 2.342279486895371 3.4937678456669614 0.3072925934099353 0.17071122260705437 2.337274184282749
Ni 7.93726145175841 5.9796946226495935 11.758469163817987 -0.46851747379310926 -0.46887717112537314 -0.4045707957378194
P 3.9413728272765503 5.018821574803293 0.7463478791972271 -0.8089387314362132 1.486749401874633 -0.0430729199300742
P 6.201373842463909 4.534273421730653 3.9115332293887355 -1.1685355335665035 1.2613431017175438 -0.13517163493954784
P 8.572939509305767 2.5843241198407605 13.605567163862588 0.46082319047264503 -0.929903735858076 -0.09416099685514107
Ni 7.953294969892698 5.288059862145876 6.709696022654502 0.025331793896569275 1.3128723799450874 0.7654307808512496
Ni 0.24100663014001542 0.8876273114260762 10.972960770294945 -0.9099663735042006 -0.5989299967811169 1.2753260462601972
Ni 0.9247586266336922 5.061222750407423 10.768758727689058 -0.25297546802460946 -0.06227494677982178 -0.33817077104603044
Ni 4.305307073468355 2.1097705295890923 10.907114130795076 0.039573905637880234 1.0809521899288803 0.8250608338090565
Ni 0.5699002511247714 4.9864792062255985 0.9728114567696444 1.291569247591937 0.9197771889470353 0.6705565599791677
Ni -0.07717931734315231 4.106700701158105 8.613666664470461 0.986988653796526 -0.32457092087440875 -0.1045107155205813
Ni 0.471916824504684 7.786416057336447 11.940951158331938 -0.6004523469629144 -0.1372285174685766 0.4507488369557785
Ni 5.732189232240036 5.061874370205667 12.783950773547485 -0.3974053883376317 1.1676754995590535 -1.045939164188805
Ni 0.9263463762829377 9.107038300275962 9.01062518559221 1.0346533068623407 -1.1103604678876684 -0.46961970571835254
Ni 2.157779306555586 0.1441419704693097 3.0243666406932492 0.5875832043097301 0.4778107261695771 -1.11403431719483
Ni 2.206329570396677 2.134036483766001 5.917134533146228 0.5873320075308723 -0.5192060012869122 -2.269273904983376
Ni 8.961112176443569 6.993202030255565 9.553622716793088 -0.6128522632891639 1.5455083650813963 0.6915668436822476
Ni 9.07431964420914 3.2873851711728626 6.320245813602393 0.14866709832282138 0.8114725536016605 -0.09373110840657406
Ni 8.795050083071034 1.8926710038497685 8.993552746878184 0.11339156294997892 -0.019236993852741063 0.052122431726852166
Ni 2.3238138666972095 7.328777048608244 4.4433284067059775 1.1447978236299317 0.9086386558317125 -1.6717726702289852
Ni 4.201580214880072 1.928730358600553 2.940870282404573 -0.33771799977932804 -0.8413045493614285 -1.0158590569739732
Ni 3.4973903010805865 4.833908395999832 10.974290625347983 -0.3341223120082697 -0.11571738286967813 -0.7838100546893856
Ni 2.70265276855592 1.4012854317673706 12.895817372967652 1.1988048739740065 0.7009768241422378 -0.7966138913222732
Ni 5.635336503636059 5.850242548646078 5.833059977008404 -0.32205792464456795 -0.24895400557004219 0.7782099348937888
Ni 1.1064320619332022 3.5160211206642193 12.67628941626191 0.21119247055055243 -0.07873643476995473 1.1957856275317083
Ni 6.377274477015584 3.518343089804445 5.817975437566209 0.27067288530437256 -0.36692778857406483 0.7292921261471634
Ni 6.141094422254402 0.20755742567966715 3.2560918186929064 -0.27559886185108023 0.03738358285478078 0.9159331326105966
Ni 1.8678819182855364 2.260927967294722 1.5068909744782002 -0.7617283922989978 0.08484666143275064 -2.3211489965861123
Ni 6.982665980559993 2.5241456548112637 3.7286896317754747 -1.5441922173731342 -0.6189956571827403 1.0037525035184263
Ni 3.952358586410347 6.025344719501312 8.053192873835517 -1.1604193322172724 -1.0133730573273259 -1.2109839325387015
P 4.643451860039467 8.319505296506543 10.384292033431981 1.0629835212656016 1.264910507353828 -0.5092607171487423
Ni 0.6307844846399732 7.972687542198223 1.6331840691217718 0.6254447552421938 -1.2654018451679496 -0.12848059607261744
P 8.524141446386471 6.763473929271375 0.2005006585969799 -0.47571553420344526 0.37465061113961934 0.31079083637118093
Ni 2.288580508873778 4.118934633426568 7.0275910356643685 0.1690621170394056 1.414034747818726 -0.885393569260843
P 2.3346894929073594 4.039299351886086 9.099616258996512 -1.350907737451254 1.1677438909031437 1.8965007133721274
P 4.7212424151088594 1.5145204327638522 0.705221492184313 -0.16058004771032344 1.196162808365469 -0.34789494031232987
P 8.891801856495002 7.339202965380169 7.305966684572205 0.7171976568764745 -0.7853450032766733 -0.6693918502471053
Ni 1.9466544919241164 8.016860022324343 6.865929670365898 -0.3105614939691942 0.6007683355414363 -0.17080815319623485
Ni 1.9704432034318877 7.0749206596017045 10.391532355387413 2.1201293528035032 0.7519530580797887 -0.23723620291248174
Ni 3.972659755335961 3.4528507112089764 12.757650113606196 -0.44214078357179337 -0.8790848534339957 1.2043054920772613
Ni 6.932059902144156 1.5109870014635083 10.479434948396337 -0.955425277167948 0.025732114658781488 -0.6267971555050301
Ni 4.71933344443231 1.139692204874623 8.986178429865646 -0.21317376264663934 0.1343475963763557 0.9152528187141205
Ni 4.623802310912098 8.540230030982583 1.051860280491706 0.4406947951538862 0.49129924757431515 0.543275126420974
Ni 5.440915182424398 3.7283665751994435 2.013728195748285 0.19264787477914563 0.6013270362583837 -0.75281900562451
Ni 4.35371049341125 5.921434306040283 3.706632760492054 -0.22773314851805296 0.006265778404053724 -0.3284234618512795
Ni 6.861850163319137 3.0004154831230987 8.11662209566133 -0.3898995668788898 -0.3775042785383305 0.5136385345014638
Ni 0.7042899512051314 0.45006094580691924 0.041875290893714306 -0.23233850850054824 1.1459188246082523 -1.2779354588585863
Ni 4.602335568544553 7.99174053798917 5.820017485525498 -1.1888403065621267 0.2776886545005734 -0.7951529905060306
Ni 5.302110987654517 0.3912784155846494 12.311514488752932 -0.8701595259199078 -0.15485497230108813 -0.6372137228526639
Ni 2.247721194200708 5.918185384792695 12.669210622594493 -0.5268370354696088 -0.3700977016616142 1.2842326047212076
Ni 0.06706177275743977 2.131374938111196 4.271270493415222 0.289150889503902 -0.002042998571957772 0.6477958692438843
Ni 8.247689452545004 3.4514281609452016 10.807538365653926 1.2127813907587566 -0.19110444155142572 0.649926799543958
Ni 1.5636764276850028 2.698531961662791 10.697700965351956 1.2043332599914034 -0.26336426745810126 -1.4613206773888834
Ni 7.610175846270193 1.3903088503772107 5.892499633675102 -1.1106702858186033 0.1748275587682731 -0.15315161645673625
Ni 2.969477309321904 7.016788831403316 1.8889934819743195 -0.39097634488283634 -0.8491312444946988 -0.19702697768344776
Ni 5.725333457743005 0.42789761269730636 7.210232722917609 0.5603580500451898 1.5474199802818123 -1.2329342115575475
Ni 4.39674493332635 2.6826361096830613 7.123861895321743 0.5308155605013826 -0.40335749215600863 -0.534949123053782
Ni 3.5601936007903388 8.220853730149663 8.535260282803007 -0.49481883069179944 0.907124276069715 0.4225656896533432
Ni 1.0511361565187265 6.040194308706394 5.781385609233191 -2.2255628372486704 -0.5483430278621846 1.1779835663532807
Ni 2.737243684324743 0.3865261799292775 10.644709591364796 -0.2748383295359718 -0.7245823793763198 0.0016575902080810162
Ni 7.116523371509392 8.307014387416235 5.855479369165497 0.7236107594916699 -1.530173791606855 -0.46605024319953925
Ni 5.825545240518218 7.471959027093097 7.881579163336805 1.5562470916551392 -0.7998079727795386 0.06987667038647966
P 3.233979880947662 6.056191115866134 5.940265200435208 0.677243227970724 -0.9542099167036081 0.231596231017885
Ni 2.232339295864665 2.0231326296533823 8.30228601389432 0.28902439122836676 -1.1380540771481948 1.008648912378779
P 4.103203980832309 8.924814200358217 3.85381348187966 -0.13016672552578873 -0.7159529858360959 -0.3074972532215737
Ni 0.925859955870163 0.10933445995064732 4.984445418235582 -0.45391566471953443 -1.021792905959905 0.12428738392687627
P 8.215668304994612 8.87788839714092 3.9457864041917072 -0.3979347784785405 0.07478053544600025 -0.44040323205539633
P 5.99781148858954 4.988369821414874 7.816874235145413 -0.32332676405466254 0.12400661946166386 0.1910620183492645
P 1.117619731427019 6.049986961167348 2.9535502530138076 0.5910876179185627 -0.5485507729976166 0.7356905734743394
Ni 9.038370422382002 0.9543935608383963 2.031458678681102 -0.15788218916318617 -0.16479948510830972 1.9501002438651382
