# total energy = -340891.93663406663 ev
CRYSTAL
PRIMVEC
9.05716243261102 0.00000000000000 0.00000000000000

0.00000000000000 9.05716243261102 0.00000000000000

0.00000000000000 0.00000000000000 13.25607273213713

PRIMCOORD
 96 1
Ni 6.335285661810187 1.8910267696168075 11.487738553463158 0.7558055990566597 1.1644189402949687 -0.5906338182105957
Ni 4.477127333612136 0.43687855600516046 6.169561331773305 0.24822432649286932 -0.5558560484097782 0.1400248492667911
Ni 2.68711509338177 1.4912617469270617 4.772504034016988 0.2627333187423217 0.07889635738658671 -0.005931020772454301
Ni 3.4384066931849873 4.255190632447843 4.650084713336816 -0.06980082284322173 -0.4566893708099296 1.0471599239697837
Ni 5.323836136597112 4.682878886025996 2.803261423561354 -0.36114486334370055 0.025489402520356103 -0.3366970147139814
Ni 7.363753594690895 6.146425716793951 2.422189477819575 0.09695501466051044 -0.09282248054937563 1.3995208704732671
Ni 5.005214229550972 4.562373343706747 11.521939303433225 -0.49284010969887376 -0.17609151308236123 -0.051047453495118536
Ni 5.529415602930246 7.7177890057181155 12.467349436593194 0.9376923786645592 0.6674077299375409 0.007672171833277108
Ni 2.0312135252738805 6.1469691465225615 0.4678042361441368 0.2766432439551946 0.7221030645978919 -0.5676173027107645
Ni 2.778474687923241 1.4594167648305203 0.43389240964644893 0.2760786297009762 0.7607688565992059 0.049222998691870065
Ni 0.7468861961366198 8.967315095035197 4.275467807054709 -1.0818541329178595 -0.9034452845562312 2.5609439613647056
Ni 8.887729811280273 2.626712879046777 1.3471749772509982 -0.7208887325748166 -1.7379472091735295 0.5887651404329731
Ni 7.013558420412518 0.9160142077070285 5.001953651179312 -1.066345238648983 -0.25164235103548277 -1.946972496869434
Ni 0.6714626783866343 7.454922988827353 2.2246473371725823 0.49530991139560493 -0.5118816997113571 0.1521357735977122
Ni 7.540332027840546 3.8478809936925638 3.741751884843689 1.0890735334844341 0.45008934899490877 0.3502631834341903
Ni 7.862939086229826 4.1636680089877895 12.529930804139912 -1.3008002792719018 -1.478647341592789 -0.13403032224625303
Ni 7.962115011701137 8.961337368020487 6.808769644334512 0.3901857306607409 -0.3202892627799193 1.0414536176136258
Ni 6.99759064355353 0.5397018006716582 0.2801461765443441 -0.35646776958300547 -0.05552194432670439 0.5465676811293168
Ni 1.4251806919280952 6.723810746279851 9.227405997445192 0.9053841534501569 0.24365059107925782 0.2662678142581414
Ni -0.0014310316186727952 4.91186205933793 1.1915883288013343 0.8845746729039733 1.0447682838091554 1.5028000275795925
Ni 6.084981928812457 2.161935546490997 6.990868417810625 0.8778414679451979 -0.04716868726600264 0.4553194870455965
Ni 3.781491995180718 4.261240816759701 0.6940186349888035 -1.132965606881694 0.7008940346204445 -0.8247926677493345
Ni 6.192671586698657 5.6784874346500915 4.758943650855741 -0.5999566382734183 0.11833193767438974 0.4804106256862694
Ni 5.1433631237257575 2.9434599535292136 9.230627630019635 1.3389438802211586 -0.03771088428721247 1.3675216918588513
P 0.3406996454871334 5.698503762987223 12.414391303823942 0.041696351297521736 0.41180716558525854 -0.9913315041462539
P 4.080170031186874 6.131354598987169 12.665792764873464 -1.8889506689390112 -0.5602379795275577 -0.2854922097053922
P 2.411668678273687 8.591252665674988 1.2446216360163767 -0.45963148415738914 -1.6836241702509327 0.5977619446149447
P 6.339316098964043 7.855041240840695 5.831465620402428 -0.6439006479545363 0.3460020941649912 -0.05142720543204047
P 4.872707947391586 0.7388850990990531 12.740291546368598 -0.4609602302711416 1.5352491492472333 0.513267010094658
P 4.095911378992276 6.176848724433963 8.098929785892185 -0.5542467949411294 -0.5845978964291609 -1.3824443746069548
P 4.728490754580656 1.121738588634458 3.910475041266283 0.0014274764751459285 -1.8948613779964911 -1.0357791929366678
P 0.19086791786344864 5.748200411668601 3.551766134573017 0.6825029337077665 -0.9811136830729876 0.3083899402391721
Ni 1.471471847643517 1.048855604865724 2.5894408453938507 0.4595705490124666 2.0404467520701957 -1.5188200571569326
Ni 1.961301290688214 6.462439161142765 4.79924168238081 -0.04846452325929072 0.5145237653198945 0.16964164369195944
Ni 5.881050865989439 5.388440874166689 9.132042231520082 0.2424007778325567 0.9650221768277638 -0.45091467310968153
Ni 8.800989369431987 1.89463152014992 10.170509271407212 -0.049163863319160485 1.284793105210368 -0.7042251558762066
Ni 2.242227288893113 5.3312811238790685 7.274137503862048 0.6053161028131188 -0.3187311742641801 -0.7674534677082332
Ni 0.2818172229598196 -0.07286305801201837 8.907736176739048 0.7561724954777751 0.5171226363953223 0.5097553973969736
Ni 1.6556582969937066 1.1747411014982125 11.561641373689252 -0.7896120060831433 -0.46033699486484597 0.35790347358826746
Ni 4.021090162524833 6.78161355507966 1.73544555546443 0.761644831446256 0.6460022676785713 -0.16581789907049507
Ni 5.77869587660576 7.70195708629128 7.97092944189919 -0.8796278704216592 0.5728466694305037 0.42475549821581043
Ni 5.318139181608852 2.833035032675677 4.766883159190733 0.5494424315739505 1.5567921655253318 0.46817963083771624
Ni 0.6404509552072948 7.3482567902633695 6.898168363271916 0.06513941281181039 -0.1910653607833742 -0.269342082308091
Ni 5.037095440296087 4.55013711765088 6.859208980311656 -0.33881406105698425 -0.05486708435152487 0.12126273816793955
Ni 8.11439307881978 7.136726768401957 9.260533473701253 -1.0815545993995694 -0.6666153159432325 -0.3324608651454468
Ni 4.564664805729051 0.3434684199544009 10.589600466678755 -0.24651814243503997 -0.4210847342324426 -0.6017939485924733
Ni 8.065783289595622 7.1719410148158795 4.783705932156067 1.3459295675103722 0.8088387155232393 -0.514818670852494
Ni 7.324219081934523 6.16881502161268 6.94000430092895 0.42510619668700983 -1.3456711716426633 0.5147880747248746
Ni 2.2952116874325803 5.205721685083746 2.6604933766933843 -0.10892298565566404 0.6633541286934576 -0.42399419456975357
Ni 2.211188394227343 5.732341320755334 11.238232756450271 0.4771838912188556 -1.260187647956862 0.8279723510288967
Ni 1.2890515449113096 3.473811140003924 3.905623119506011 -1.4268226436120135 -0.5081728834012023 0.22868625645994164
Ni 4.105964828971559 2.770422870777671 2.4498944311003235 -0.8906129086782533 -0.9804786205921502 1.010882429694988
Ni 1.1761630759547417 3.253867014511201 8.242665137677081 -1.105522937289709 0.5164446364916911 0.18516287925601016
Ni 3.52963948745645 2.720970765474168 7.580285887204162 0.009933714173944182 -0.11446782673329317 -0.9377710544212945
Ni 4.249683877864596 6.8383566759086785 5.932105183276128 -0.028911026607395373 1.0122955079924307 0.77378943722859
Ni 0.8716739647173163 7.763627303326363 11.678281319205656 -0.8302981709485959 -0.3690690032867837 -0.3924657849441693
P 0.138201425715218 5.403022905217722 8.141322739021046 -0.17881379710953074 0.11900171004790475 -0.3255366272217877
P 8.210851855648041 1.7718888587812256 7.934077660569723 1.3564345808067542 -0.4336260612325629 -0.1542312226741602
P 1.95595756502355 3.2694543905601625 10.529815045085734 0.4083593162459742 -0.3333795203049742 0.05558673612636878
P 4.065542714325124 6.126101444943941 3.926912884840519 -0.32001158363850046 0.8128506648961098 -1.3466911282667453
P 6.790552974115292 3.9810031628777076 10.491266857286789 1.0311465792606629 -0.819691341967027 0.08935406238480095
P 6.252756800358627 7.847406053153725 10.239546584129815 0.2195290154407058 0.2680472747560674 -0.11890812189283394
P 2.3553059582546942 8.49024719345069 5.754951620330364 -0.32053094647708025 0.01534460077687035 -0.7545105343943199
P 6.981813067099555 4.0539948325921635 1.5139100865830946 0.4099261465124618 -1.0649954094893077 -0.3099410867763759
Ni 5.510151019051024 2.7845339293972415 0.3754900167127406 0.4340217540090848 -0.37419706854196844 -0.19439828181134905
Ni 1.3474521264125892 0.9978818963221132 7.082506972946116 0.11964885671360037 0.446798851169095 -1.0030035411675435
Ni 6.633954640654201 0.8041528209375334 9.04244425501552 0.8207244112172317 -0.6528827968484885 1.4648248338874
Ni 2.4192676373120823 1.446392565668169 9.32931899731627 0.8096285584143864 -1.009839076032138 -0.14107025981216995
Ni 6.67425901219277 1.916187566051447 2.42929482152115 -0.4633652401682084 0.2766905522533622 0.5943421203001183
Ni 4.087633132793118 6.8386465050972705 10.06605120897381 0.5921692810185156 0.8774473178305727 1.4567610830426587
Ni 7.924808560832066 6.929580413017998 0.22457686392912213 0.6453453508208628 1.5974724168535133 -0.639881242382498
Ni 7.612517610124231 3.8565215263774615 8.348541551702152 0.23021940527501641 -0.22016896301754985 -0.41588442097842576
Ni 3.107557617245123 8.141410593493838 12.380933241149643 0.5505276942183293 0.3071696946788258 0.4338075811157497
Ni 9.165938660842125 4.372997140448331 10.455090740253226 -0.3963530358137174 1.1658736704636243 -0.3336435725996383
Ni 8.815815943860894 2.403399489236673 5.778375253065882 -0.024167084164506768 0.9333065908920378 1.0049506375915853
Ni 3.695956155897516 2.6107994451606498 11.773990163008436 0.13931676745617297 -0.05783388028933266 -0.5531499623325247
Ni 1.3050464932567283 3.405728452171244 12.867868015173277 0.5359785927595608 0.38180907656127144 -0.9233340530603583
Ni 2.820898435403389 8.245314357604054 7.825496777928603 1.3470541680331187 -0.3589334575146786 0.9548868881659749
Ni 5.55080861991319 8.040667778971702 3.7293970099637423 0.20757081463756513 -0.06726057291987127 0.20193007141201996
Ni 3.1162253214164513 8.312210557195936 3.3877744396541862 -0.6999468402158268 -0.025892037275413473 1.2350430303704343
Ni 3.4464222816819836 4.482027258331769 9.407569255371241 -0.795485948365417 0.09031565496712188 0.10541085873734747
Ni 7.002608311381028 6.108929065519868 11.25009673314204 0.8210699674821085 -0.22333373389877664 0.5527501557909449
Ni 0.38308716431870726 9.117663986617275 0.4921036964589295 -0.0887619373267568 0.5416427330238737 -0.7150577277153363
Ni 4.508936087060103 0.43046880235620644 1.7724558371314085 1.1667103074323069 -0.676107571704384 -0.5030270775342047
Ni 5.893214634748159 5.627631469214346 13.716455273586815 0.26041804034558375 -0.17698368587932745 0.038705644100313984
Ni 7.9620606687282764 9.04343148568916 11.214557334607166 -0.30053599141239207 -1.2523329277991335 0.10466575304120684
Ni 9.348621621276493 4.971331385972143 5.816764940527315 -0.916189471595777 -0.5083742007787309 -0.049404261464740716
Ni 7.8262666367108 8.835288842469417 2.6990950017489754 0.04654185231528113 0.05609015812534856 -0.21057592001247605
P 8.684894665076621 1.9303710819681659 3.7015589163994846 -0.5792510302949507 -2.1114801617689376 -1.379815935845172
P 2.01640506516926 3.21565484742778 1.7698310715422225 0.08691279993315999 -0.22472881447409038 -0.5908752447974405
P 4.661467754718766 0.9846403252683182 8.421171840647082 -1.8159449660052467 -0.12948872562215763 -1.3920315040747575
P 8.581262615830708 1.8815076922039904 12.37101746003494 -0.03388019768721262 -0.8596534841822613 0.9876471133161314
P 6.1736243747108785 7.725007563946485 1.548455008714613 0.312184631394914 0.7085620926886635 -0.5596003459435589
P 2.0361315643178 3.1558866344428322 6.12251571445133 -0.9688582627444023 0.6517165444545292 -0.6242795312894991
P 6.925350718296984 3.9327647173014335 5.966862948718019 0.8707904746356875 0.7945706356399993 -0.0021640975308543377
P 2.527591296548327 8.387077059474096 10.2030136149078 -1.7634471532168468 1.1890102564810876 0.2761758174004727
