# total energy = -340858.38508633344 ev
CRYSTAL
PRIMVEC
9.29499693260395 0.00000000000000 0.00000000000000
0.00000000000000 9.29499693260395 0.00000000000000
0.00000000000000 0.00000000000000 13.60416756355455
PRIMCOORD
 96 1
Ni 1.8516563793734622 6.599029691371348 8.993143962575097 1.6686086706787069 1.6463634861272616 -2.133596019831371
Ni 4.332258739924101 2.114267933444234 6.498275640420812 -0.3019380139662413 -0.2793022788445964 1.3811719356524343
Ni 5.857223854974292 7.208958108409184 10.865390619603234 0.20921477799889127 -0.05348100263727564 -1.249846928152486
Ni 8.696594514962994 4.650370721891258 6.821142942922517 -0.3746446976023483 -1.5232544387792024 -0.01808925340154304
Ni 4.477911345038212 4.729629162466116 5.663170340775929 -1.2574432524425054 -0.8001278180128027 -0.5546250042161545
Ni 8.673199007172808 0.01490173940771816 11.69684949187184 1.5796806400877312 2.232088039961698 -0.3291893934830266
Ni 2.3274765777395428 3.12594471667493 5.570253831410089 -0.5132973491119612 0.21207178783171218 0.09973797672228629
Ni 1.3637805697225698 5.276072749068127 2.558372672084095 0.8903948791301761 -0.16658203093002924 0.45789084731719853
Ni 5.799752887685168 0.05875832439239667 7.471422801525214 1.9585306340206787 0.25584276227007546 -2.5739239185641414
Ni 5.903894035591901 4.502580267435969 10.879905687130114 3.294277090350462 3.1709266164155583 -0.6030576457962453
Ni 7.691061724838899 8.880226478372975 4.321513723235402 2.856321291394294 -4.42363158284213 0.9989903062430924
Ni 0.8555468573453897 6.793629751401281 10.923357939739397 1.6173609282473242 -1.2568518987154096 4.101608882310872
Ni 1.5242586952678878 4.45473891717928 0.06116386965107772 -0.21023139218886375 -1.6497745686913394 -0.5992053619296906
Ni 2.140015075509715 9.161678991637512 10.325889466361769 0.8552167885671466 1.5117369250579062 -2.8022527916846642
Ni 6.338072646790706 1.6982424516511643 12.18045053234009 0.8167679976726449 1.175578042235582 -0.21301718246411702
Ni 4.079248917894355 6.153752853592695 7.806207219854413 0.19065141317440715 -0.26798685383177717 -0.24827369167356597
Ni 3.5372762249145455 5.518820894260222 12.72611426868243 1.826624814316596 -1.0824164331792325 -0.33043612140593415
Ni 0.2862589562833314 8.534619894878853 6.236789710503155 0.2471488340405034 -0.03850535516404981 0.20994034331100617
Ni 2.0999164578669407 2.0552725866248807 1.386509626218137 0.7429757942818431 0.5279932605612391 -1.7678578806900327
Ni 5.261321588614005 9.243344836470477 4.818678023523852 0.327372651989262 -0.2373202779858558 -0.19561929870264375
Ni 8.28975249033985 6.596492157153343 9.778158522656485 -3.053101700284574 -1.292878967542296 0.08268204968126405
Ni 0.49045424185629477 4.9036593938350705 9.186486409492588 0.1741302755909324 -2.220747675248214 0.026856200960895683
Ni 4.124794403858564 8.353822905595216 0.42156994758442695 -1.2829349689557068 -4.300357984891749 -1.3138000339656792
Ni 7.802703935434022 6.811615570858575 5.648110586416907 0.3175906329018337 -1.1646439118215814 -1.4665976095171063
P 0.4362207220694852 2.0564809362525027 9.53117557676943 0.19472455480251624 0.40341739885966654 0.4801247190147344
P 3.40492476070141 1.276760806539525 4.2002456136066995 -0.0034501633321295413 -3.3774988145852802 2.7707071556678993
P 0.24235961431182937 6.505429070216333 7.132910159844946 -0.6137025271046012 1.4726970375466248 1.1157870382198782
P 5.100211403263469 0.988467175383221 9.103895712444634 0.04612893314757861 2.0499598337669536 2.4273242442933096
P 3.2759938554341583 2.701423607499965 13.290483257260354 0.4038832827524915 0.5923310034073606 -0.7935470794714915
P 7.714373577654865 0.5246440298199985 6.112855795695976 0.09685885540227836 1.4888546211430937 2.845050860686797
P 3.455387300150326 3.810326060768543 7.759014660397784 0.9123569852235642 1.70202195603183 -1.132591768482043
P 7.757344349412525 7.514047799389433 12.048953278363713 0.5216302944576887 -2.105248064816297 -0.44768948130416447
Ni 5.897768632479572 6.297462804305475 12.891092102341068 0.5832197851347117 1.1341645122858017 -2.571025256860108
Ni 3.796030355174063 8.591142772460149 6.51558013658807 -0.7542678222558946 -0.4386857351436574 1.3667699012944912
Ni 8.273644260303938 9.027505707985808 1.9039714117514939 1.977306629076601 0.739438727662862 0.383423729346559
Ni 7.563032434293795 1.9825857090248584 9.929668834965423 0.0556219602396784 0.1052671340706316 -0.28462163417498076
Ni 3.6947985413707585 4.888378418544222 1.407065512383412 0.07384054013023413 -1.0406519476479368 0.7561596399619687
Ni 0.08728652960083516 2.2372035655590543 6.360438268898272 -0.2953505905567107 0.6000504835388053 -0.9129604231355181
Ni 3.1406772871347814 8.419538535343573 4.064939269804172 0.807474488185861 0.4059262813244493 -0.7745101174446983
Ni 4.695181903081758 1.1454224970141649 0.48987516353474986 1.4837990609970575 2.960462282280282 -0.3720000608906497
Ni 1.6928606483096793 2.860479598483544 7.887465014313127 -1.98340271467201 0.12563335643180942 0.19094657581732277
Ni 7.059076279598397 8.936358966074577 9.57698039315372 -0.8110534637863709 0.14151583199002077 0.5336486590748035
Ni 6.256639176886128 5.157199030701543 7.015479025033799 -0.003902934598831988 1.596215918738593 0.8613822939479101
Ni 5.571458463038858 2.3204216749136584 4.623335293222789 0.28923059370190185 0.7132898371816361 -1.337203243380968
Ni 6.971164196690338 2.450625994788481 1.02961798670174 -0.060723543132301876 -0.8712381036960674 0.5788571372906418
Ni 1.6364214257026028 1.5530174164052881 12.457227662045446 0.028924139233517932 -1.2415366085145778 0.20565122901734906
Ni 0.3720778058364628 6.863583899843451 4.1112199900418025 -0.5452610465027512 -1.2238124517619375 -0.0445603031088781
Ni 0.7544117115122946 3.344906964197146 11.432562049817529 -2.542779888861169 -0.1575865122996383 -1.065087969203114
Ni 3.3989666675375205 6.962324654414428 11.049522653859107 -0.08386938512114588 0.2624610389175415 -0.9650787410973122
Ni 7.596698913918767 7.575868825337993 7.683361749211807 -0.11774366927108755 1.016230838491095 1.279102482583494
Ni 6.7077997478515865 2.540620157054903 7.243266872336223 0.800426580200144 -1.4327436370821391 0.5568068423588217
Ni 1.2445071664791572 9.13306899045428 0.5278508038317641 0.5787224114849904 0.13883288584121897 -0.10109140542638718
Ni 9.217802184341979 7.231898161339728 0.32660760934905236 -1.3088496319389393 -1.4903065230982722 -1.3651925295050422
Ni 1.8777939113186366 5.398106766460798 6.5507607712464235 -0.3991977043513641 -3.7573708220248387 5.624600040126359
Ni 5.107600925986233 4.511010829837916 3.2828489158216283 0.6591190075661874 0.707723141727136 0.8387925815728522
Ni 2.258684303939317 7.2060673643000275 5.547820355823434 -0.8224755895803835 0.9762882366598865 0.33898426808626136
P 2.4823777050035294 5.182592962875872 4.719558033069745 0.38138355898807863 -0.7061560543503322 -5.0672725493773765
P 7.623710175594684 5.230490083115376 0.802983648543839 1.2315123915093564 -1.0751376401296322 -0.673394286538279
P 6.88636593782269 3.803447762888234 5.611937246064476 0.8650162911560715 0.020443612566332536 -2.252575875502404
P 2.178933228516274 8.379142477792461 12.109668199653145 -0.5295603479380429 -0.7326682417082478 4.202734226298988
P 2.0518613226761326 8.626872741449212 8.0674895893348 0.3940313296590762 0.33096962531190094 -0.5412673519623259
P 7.716427772021822 6.318348662869062 3.1174490892930353 0.5437726348826829 -0.24069099423030163 0.289616773396727
P 1.0196518907730006 7.593994069752322 2.1385483249617248 0.24735632206561917 0.33692404312312296 0.5248997092375799
P 5.599538649385362 7.455916887303686 6.225430294503796 0.3507648056609572 -1.2193204774288549 0.5574943553441495
Ni 8.151424342968555 2.103309131821417 4.433625331185871 -0.6538680435798933 -1.6574804219760293 0.17783832057013887
Ni 8.951323911462818 0.744625009028271 8.059177073396476 -0.8314150581618585 -0.49817540586885817 0.2162369749529953
Ni 2.1587073147493117 0.9886437803287965 6.5219881076133195 -0.4238977782012055 -1.3185668592267032 -0.40573961923493995
Ni 7.469915152989827 4.31357579568164 8.987824435714419 -0.562575883632115 -0.018362818777903862 0.5980979877981248
Ni 9.318048728448916 8.477799577389218 9.802428689677125 0.990931697604674 1.9469760964138596 -2.635450417213713
Ni 8.676089751281966 5.157840385503896 12.390498877609312 -0.4533533644581612 1.1960075137345274 0.3122597076072235
Ni 9.01991169532606 3.7986236593748823 1.7500536951844488 0.08153199523722088 -0.49523303541108266 -1.3049258714045011
Ni 3.184177873729168 2.995377891911821 3.410986957833218 -0.6889576881941748 3.5771485746035556 -2.2133567821007816
Ni 2.502891763681694 2.3626860268890164 10.056132847992899 0.9020226931770916 0.3798131291771652 0.5912711946842785
Ni 5.943992653234676 6.566097516520085 4.245466704170877 -1.7240066878330373 0.49549245972005634 -0.8706570343816166
Ni 0.7299788820417805 1.981842109254014 3.0079363625416664 -0.8741740463959397 0.3057190782752283 1.3132894128778478
Ni 5.617003949003065 4.159845838056733 -0.04406107492166068 -0.16595982396499806 -1.2910002624623442 -0.08630499114583201
Ni 3.4042369309133793 0.17686520549529763 2.0884984833856275 -1.0995214682906354 1.1441398783309584 1.649654241063391
Ni 4.289139248212272 3.4433595738569207 11.390796839188349 -3.4579776859676383 -1.6596686878765996 1.7291653492158414
Ni 4.981495699848189 3.2200007926895884 9.033765888556603 0.802523829048805 -1.009096541439159 0.27349441391356766
Ni 5.84965772730595 6.206195227431483 1.3445352781534077 -0.22382764281605966 -0.09579673268635115 3.9781956734588317
Ni 7.5540441720637155 3.988064995994583 3.4825853912686666 -2.1096135408738443 1.948571723035754 -0.539399959736284
Ni 4.1624577322518235 1.0966609420410551 11.563651253419655 -0.7876384272965403 -1.3979162449903086 -0.4899728154534078
Ni 4.440136476679326 8.266338392555394 9.16323683315743 -0.8883081718044766 -0.4603287673347298 0.05560293407628489
Ni 7.290410168308033 9.194360201566115 13.394092731330932 -0.34333354619389256 0.1645349185930134 2.251913302217741
Ni 6.0391827188998715 8.57931024110659 2.0499577072627715 -1.4590838176385645 -0.39209734586115697 -0.23988495338923846
Ni 0.2150639257235652 4.24959833039763 4.5373983972060365 1.593050376526418 -0.16533813122059912 0.5541935731056907
Ni 0.7863818541600283 9.06328215196055 3.852849743163983 0.6017849497314087 1.1970981756955448 -0.6109797288567993
Ni 2.354878229295152 6.435595756736925 0.6864197369654398 -1.5965007969688634 4.2375932429597025 1.0061958228525962
P 4.196319406816642 7.119261386051101 2.405666093643813 -0.9593811764919026 0.34819087428619383 0.40807726622918106
P 9.034151630937728 1.6000779869025916 0.5112768944393601 0.7391939586419076 -0.045750980982869595 0.6475953231973041
P 7.684899141738027 3.448341692321577 11.525995361024105 -0.7460876004379473 -0.3355022230749319 0.027466066630752697
P 6.192038946794036 6.310838305183537 8.852885244298745 -0.5198189522805629 -0.2228256839141066 1.2575594663053955
P 6.610862222724907 0.7909996087369707 3.351304710725547 -1.6361616058935948 4.255319970815504 -2.9703211773522327
P 2.2885770147272546 4.6551111704303905 11.27429055659219 0.6688619458855641 1.276721641056143 -0.8945263848000465
P 5.4608851771143225 8.705434057238906 12.521113106857813 -0.5238422145073429 0.786164413854175 -1.6612491449898423
P 4.744556927865814 3.0300482312274326 1.858873944649219 1.1186131948147637 -1.0815581989439953 -1.112023200302072
