# total energy = -381169.6152712578 ev
CRYSTAL
PRIMVEC
9.22953681867397 0.00000000000000 0.00000000000000
0.00000000000000 9.22953681867397 0.00000000000000
0.00000000000000 0.00000000000000 13.50836007000624
PRIMCOORD
 96 1
Ni 3.45779060607595 8.000928598794957 10.155679347161422 -1.5341533450798932 -0.3962327081857692 0.37363322561869844
Ni 2.863048480578336 3.143081858342161 11.118907039841057 0.5586878614316184 -0.24911752773110002 -0.7179939275255247
Ni 2.3695820630073703 5.81632491346606 3.067194760400441 -1.7281497634671334 -0.3528214310796698 -2.8699977604401217
Ni 1.6797664783506925 4.5563731485712635 8.584441146799238 -0.9640505569431138 0.3745197419887098 0.57817785183543
Ni 0.8870904742891003 0.2127315950060446 2.7914891124686405 -0.5028288454804695 -1.2888536484329867 -0.15960277139871867
Ni 8.231583954376372 2.4890584176150865 3.3326067058761586 0.860720491994195 0.475625031372168 -0.2613053280465435
Ni 5.840321709293025 0.5918163623140957 10.498913824457674 -1.567597740781268 -0.8584077847006184 -0.2699504053160512
Ni 5.499594897160692 7.264605377918249 9.810203015362722 0.9802724181186149 1.1223297244344024 -1.1144739758354096
Ni 8.927048015589245 4.558837434911956 2.7218125698776765 -0.14145926772047251 1.4735334174049914 -0.4383862016253676
Ni 7.7026945743500645 7.885670142530673 6.181628136339948 0.9403226171985547 0.4484908941595373 -0.05423767829764208
Ni 3.399044603984169 6.299140445504596 0.29062057949194464 -0.3785244922727287 -2.1735129106309667 0.5546478870342899
Ni 4.4087836246985725 1.7129743519604694 12.317666052423405 -0.12785504667347655 -0.7136528769480096 0.417750527652887
Ni 4.854496418573878 3.324359191741168 1.1390199123248066 -1.2253137188978123 -2.1769417338068573 0.3036776223651673
Ni 1.338716632428381 8.04195389012221 6.517581432010086 1.7147466026873501 -1.7840206064928241 1.2777541960857155
Ni 4.359737865842999 0.572514631886045 8.021129286112833 2.024212035378888 0.0429649335973002 -0.03321531040970409
Ni 7.784957436352272 7.740572593609244 10.453025490160718 0.06898604025141022 -0.40905042877572784 1.45130057414872
Ni 9.214511170522572 1.3807848614204217 0.5671245823618344 0.5624331874066636 -1.7749582391802399 -0.587455163372298
Ni 7.436053254565057 5.7947093381480785 4.896348676403476 1.6781932290433486 0.03275251184067263 -0.7562894806716136
Ni 4.091712115529512 5.689058829751437 7.00750278447446 0.2810195186460192 -0.2879666393878137 1.6112686993066572
Ni 7.2596768052368645 3.390313462117896 10.96262882997163 0.7864747460057424 -3.4239995292499805 0.7521970557697949
Ni 8.224329538407144 4.393074952968767 9.233490790114331 1.3009792280519272 -1.061488938997946 -2.7487635615172725
Ni 0.6893864111928496 6.413660538820358 5.060474761462003 -0.1428602618330572 -2.1356691003103156 -0.10164547815764431
Ni 0.7176740187044132 2.0592296566698614 11.735158600982802 -0.17421820731904833 -0.05524040853054358 0.12178210100651929
Ni 7.679916077388161 9.070281198065656 8.490977318867952 0.5606197883470088 -2.4058210801142117 2.4348310941933162
P 5.677724958491624 8.02591295506557 7.3249490128398955 0.001204304720746313 0.08440520301995785 0.6024917459904463
Ni 6.46390613746728 7.762049725874377 1.2378802504561028 -0.25188120651916623 0.6242129397176217 -0.10238621297841077
P 8.19483193861369 2.35768518999931 8.225483230514211 0.2326501262036961 -0.4142337727488802 -0.20718823448716578
Ni 8.557598884759406 5.295483689578641 11.186907498538874 0.30705090971277443 1.4168115392329148 2.5172267229824135
P 8.996869461908856 7.956876019378764 12.446225194251626 -0.7200464391791792 -0.5806203998386517 -1.1482328174534095
P 7.426860635855959 2.1631819302849022 12.71799905948255 0.7236102452710377 -1.2868605292623578 -1.3214320965896402
P 2.231480503023187 0.8093196278749637 12.914113796332105 0.563173665117114 0.27685921662074253 0.06106909939717869
Ni 5.653275915358689 0.9776848392116926 0.9597620015900068 -1.3666372323713691 -1.744720523341621 -2.1136799976337337
Ni 6.699693115540924 9.02294290352854 12.659211524474912 2.6965020331093945 1.5584150458407353 -0.7690516654332884
Ni 6.400831482589788 5.269456395643242 10.287035038657173 -1.9786274047705534 0.7442482332363635 -0.44402154553427403
Ni 5.486212068718731 5.344271021402233 0.899722941384626 0.7527565278176906 2.1103817864984364 -0.6966617417066518
Ni 3.2959691363704975 1.0321391066651902 9.8890647930333 -0.9555358346038832 0.4065230343681837 1.6947948421557717
Ni 0.22514993684649898 0.6384882842901712 6.969881346339894 -2.4369075171063708 1.966161153982743 0.6637552207866182
Ni 3.3120746781851333 5.749493837087963 4.837816799566766 1.9600182743097982 0.22740224754119545 2.6775802565042275
Ni 9.151233465834236 6.09557378059708 0.20160261946444677 -0.9174138309211813 -0.7847603344177968 0.33406574773872144
Ni 5.180123708408935 2.899495921624753 10.269500764537145 -0.5770733059173415 -0.23976719686445158 0.22281771349430657
Ni 5.446405076256538 2.895490302629021 6.931180052393112 -0.7219243729281826 -0.802193699402896 1.7850837576500163
Ni 2.346434384571206 8.064169385335866 4.127506105366488 1.3727911677879068 -0.023996105804281253 -0.31608962287627496
Ni 1.0288441620074107 3.0735372981282447 6.901732292098685 -0.4553354278851965 -0.10653623059104234 -0.29973123612290964
Ni 0.9001087360252288 1.4911701222244607 4.825078192797389 -1.0565742753051481 0.3803024101087579 0.5477308481994825
Ni 8.230282589679604 3.5582541147592246 5.575710887616453 -0.3927766313163687 -0.4696914394965524 -0.1557898254105317
Ni 3.410618443202251 3.2754057282541598 5.600254994979011 -0.5237049175985303 0.38588864594728384 0.44673894446543705
Ni 2.481933215161849 1.3213097259169748 6.814630383922601 0.706041640259655 -0.4256615549698476 -0.029440416748304138
Ni 4.129414773588417 7.69495099292744 1.8050279066600783 -0.14271885115918648 1.380553842452461 1.0683255023038052
Ni 2.3978982820831893 6.768250115311192 8.342817409617526 0.3392652896617899 0.9523723492742372 -0.8765836842786968
Ni 8.940670811989476 5.096282595604262 7.1538380142883495 0.7965894658422411 1.3067505833180657 -0.7984437454421603
Ni 3.458325919213628 3.640535435835145 3.203939578466715 0.48220962656822114 0.7017617819373786 -0.5959791416829091
Ni 5.619680401200938 4.612221076090096 5.501752762877748 -0.6499093160424614 1.2387071094855828 -1.1981857523327686
Ni 2.548247437475981 3.027851090688446 -0.03985221719278928 0.41676091004610805 -1.4091254834425668 -0.12075880194832753
Ni 0.8835481780435659 1.77894708141091 9.222927585182036 0.5049368929624078 0.39570511781707335 -0.12171808053780328
Ni 1.223762750880362 6.331166938396738 10.457861767473537 1.1447893389894994 0.14781554895580348 -0.5458367165005631
Ni 9.022979821675966 8.273199936062445 1.055538751457538 0.37603694996418463 -0.22726726462522795 -0.45870434435742935
P 5.230507750108706 4.227506291299565 8.574323728497115 0.32624548036335427 1.674121115856504 0.08955975063770381
Ni 1.1946158734874561 3.854134607305703 4.501295887379951 0.5804159971373294 0.4135362324612233 -0.4135665714785265
P 1.7869767784760868 7.304846158612698 1.7842789848529244 -0.4256618120801637 1.318376340482452 -0.9994903858079625
Ni 6.8378592822831035 6.011261961412724 7.5288571706111025 -1.365479464617842 0.06318074642354281 0.5749583164568679
P 6.308582261708821 2.737083761560483 4.923905304596002 0.32819694766277024 -0.3723643862086039 -1.1129161444299864
P 0.3203138454667569 8.598836455434359 4.874869698230971 -1.8746759041875523 1.549352678528151 -1.201865258066885
P 4.464659240827975 9.179115896677798 3.3918954047351044 0.5750107669613581 0.21046459124559236 0.481689492398693
Ni 3.3841665905714504 3.021187365078035 8.6637219454431 0.2945067544991766 -0.41544399100689744 -1.1847093151128887
Ni 7.6735753855677284 0.548626744593987 2.1604462955606283 0.37436367602681975 -0.8594699074165456 0.4964273128294999
Ni 8.71631000054421 7.326784767720659 3.310912679494897 0.670073192584846 -0.7773748405870031 -1.3797048641886045
Ni 4.94898841691098 5.902658001221995 2.998936797624325 -0.3663955702196786 0.26679180508241146 2.017371872528603
Ni 5.87627075534919 1.8057588859791152 2.9271808403795854 -1.5372414970869137 0.44834665527218914 3.2146320277233085
Ni 6.750667847599511 8.198754491777713 3.7182979756661103 -2.070826135693001 0.8042719220881632 0.10696843303245449
Ni 6.435202277843487 6.651533392223576 12.42092334191315 -0.44513868985785277 0.5869345149821376 -0.7607896825348123
Ni 0.2364635031252273 7.56555288619896 8.764818600354733 -1.4900658678423757 -0.9061873660777425 -1.2609188696959317
Ni 4.593485116271351 8.436516590738654 12.891082410060333 -1.7677437237096716 0.12271952521912413 0.3053763502238289
Ni 6.748498906438228 0.9528020078465014 7.0930642829491894 -1.5094905522258908 2.042967718719836 -2.274023246742903
Ni 1.6948660006479672 4.335981037974303 1.4852170709520023 0.43605729638187485 2.021342684250893 -0.051276281676472975
Ni 2.8935428703522943 1.4985076040253982 3.86540387180752 1.1016166602567674 -0.36360977994442545 0.7431688841292556
Ni 4.799949855751814 1.1744216468453794 5.420823568951308 0.1456589076241169 -0.6498316687269905 -0.8077627088502412
Ni -0.062758081763313 3.528276579049231 0.14773996532345254 0.403526413633705 1.9256454532568834 -0.4691576784802694
Ni 7.1870218911023 2.646108216765716 1.1870218105619075 0.49303114266375736 1.2861935851023205 0.1893244668328675
Ni 1.2734730363896056 2.3254002700751855 2.305268804283733 0.28576448953017236 1.1227457289258989 0.3558435057354452
Ni 8.036877644851122 1.0426238605342024 10.395034464183802 0.6052158297898286 0.9538599895633572 0.805608895732032
Ni 3.5843090973051943 8.511589643529629 6.302893175190459 1.0639931934770386 -1.7010115124894445 -0.6854553314678711
Ni 7.646726662852097 1.0148152659854928 4.8951599120563545 0.06288301267746589 -1.675313079282076 0.6847943008451045
Ni 2.170021017095587 7.508274380467366 12.368443272393264 -1.0988776640590494 1.9786716277449277 -0.3557206070043357
Ni 3.6836650615656863 5.41933484465635 9.746025430830876 0.7823555816310461 -0.2722111763257699 1.0559155586752267
Ni 7.0255696028711085 4.4963996180775645 12.909345817592024 0.3517685643351232 -0.7300706561844007 0.9753716383828879
Ni 6.492868424123055 4.195110616933162 2.796635502219839 0.12333170488182632 0.16568368748547593 1.2598084102405724
Ni 0.8093648526055607 8.809251436689415 10.676372898459137 0.7360919226778161 0.9879733863072986 0.7972736363934592
Ni 3.1396853887789593 0.6723819124883881 1.7076322960279127 -0.2534642347355699 0.6223671447581345 -1.6569093799639079
P 7.4467133696343435 6.012480260277786 1.7525746027970754 0.7217107142554797 -1.1319045126070313 0.6032129404271869
Ni 5.605725341473873 7.058611344817468 5.360333184393643 -1.9143498257384062 -0.00796939135872176 0.5326652121156117
P 1.8979896477863694 5.1479310838533765 6.3605057901562585 0.13543825833737322 -0.6443313077340517 0.8132908377573218
Ni 4.534803720937565 4.301905587900013 12.462610391033015 -0.19739464543551166 0.9093426238772725 -0.8118129676602148
P 1.7372480338931302 9.007834151694407 8.456097976133456 1.5547365685478838 1.0604023908019866 0.8297111880968743
P 4.204100185831417 6.603844375285912 11.795419170072739 0.549643234730847 -0.8276118823656843 -1.0241776041419974
P 1.07580404553341 4.065915560015525 10.643925538686338 -1.2203275785371306 0.22406521274816252 -0.32892534118836253
Ni 1.6337572371209155 5.196238479760428 12.531867912650695 0.7755197896561353 -1.6369555625498002 -0.2192582782778224
