# total energy = -340883.51064129773 ev
CRYSTAL
PRIMVEC
9.13882261732036 0.00000000000000 0.00000000000000

0.00000000000000 9.13882261732036 0.00000000000000

0.00000000000000 0.00000000000000 13.37559066679115

PRIMCOORD
 96 1
Ni 0.18357244452478688 3.2441540985048114 3.185183103685771 -0.4674031576830079 -0.23549685162387185 -0.5643892826917699
Ni 3.2673301527542975 5.346805275818531 6.49411683268824 -0.24335080045065188 1.1748820446098218 -0.9385513842307449
Ni 2.256558089622712 8.983682000215765 1.9959453701282204 1.0885989078408604 -2.2019194867981176 -1.0252759794124988
Ni 5.780177384874091 2.286460317345236 9.071352553696117 -1.2440843146370961 0.37761020798857553 0.25239825536490074
Ni 7.624620266933478 7.417927514977391 7.299527670324366 -1.9071538222105995 1.8218870425212945 -1.410127956565152
Ni 2.605615420876314 8.371974905898188 5.794707199011023 -0.7551965047177511 1.0399919454664348 2.454386904838057
Ni 1.2455301394568257 4.366474630946031 9.3367905715517 -0.6537173769346419 0.9953820200665436 2.807634624821868
Ni 2.841378767693448 3.535819623493912 3.224292695231779 -0.46483565406614785 -1.1134496483359533 0.10953567953899845
Ni 7.3289336599768005 4.078885020860428 8.483601969082642 -0.19356884393151824 -0.18979677848359572 0.18773681063077344
Ni 8.789801877620002 5.910908242933596 12.904890344422599 -0.5887895659130054 1.0324619556379766 0.7053394719863079
Ni 4.828588337247109 7.474871518931867 2.8171672848373106 -0.11078035057937695 0.22093797997309045 -0.5645126956435117
Ni 5.986413195697498 8.807257028888346 0.8568697202339215 -0.20612688310218694 0.9580539730400468 -0.5209476665683673
Ni 3.8674400811244785 1.7557231917384033 1.761471511187507 -1.2162320683115184 0.7468954410512233 0.47569033739246463
Ni 1.0418166436858072 8.422302402251468 13.073008125957912 -0.6116245615296498 0.186854150915504 -0.054593776085480175
Ni 6.198433881260623 6.522706725477709 0.8046312960637757 0.4168339293758886 -0.6781356578780063 -0.6097196311974532
Ni 4.564119948475071 7.369427783154826 7.3560266136156125 0.28991373581185553 -0.0017064411681454485 -0.4004765710637877
Ni 6.10519961254877 -0.04414234118133655 5.562974986866384 -0.0258652978025361 -0.32739399214550063 -0.765731857031436
Ni 7.043637894377246 4.049001070783211 13.117428287347916 -1.0208529106441386 0.18549995088045473 0.47510129765821396
Ni 3.07560679230478 5.57477320691216 10.634397378017704 0.6839692338406479 -0.022290178856768064 -0.6235647646106616
Ni 0.2981449502504915 2.818577405172759 7.957165573416586 -1.0492494595089605 -0.5326127616111214 -3.091527094140308
Ni 8.018713716223937 5.141858038989279 6.269928718644135 1.4401126758527003 -0.9086633384220608 -0.04871726270004513
Ni 5.435872241400351 2.295964692904962 4.232785535993561 -0.9494472052076423 -1.319504283439308 0.7788611953245426
Ni 0.7787501503088287 6.906354500475123 6.127652785926358 -0.5538942966977171 -0.28981089168540414 -0.22888346007241223
Ni 1.3734462401390268 1.8972195828838287 5.173611792181419 0.2260501043886752 0.8058904315281928 -0.19032308330071093
P 8.101877002371543 7.887489361741139 0.6132296221716643 -0.29841277442180214 0.831482421064684 -0.6022338643433693
P 1.2897163469868995 5.330556449140461 2.751091769287375 -0.28527340882636676 0.3914064904417195 0.8433308357628378
P 7.745901582369177 8.252694992623622 9.521962310040864 -0.18980629156529244 -0.7243283543839848 0.24522436332428085
P 3.816363201313603 7.488451809395091 9.577818794099564 1.441987267167594 -0.8657724525958056 -0.15522161161188752
P 1.215326330586734 4.966858723995819 7.246159687674238 -0.9246437730107173 0.39152193297366117 -0.44125426720178196
P 5.448273623741264 0.5137297766485142 12.107665150237287 0.7241347503159399 0.5746330719069652 -0.4345051214034066
P 4.008059145295159 3.454986737122971 9.76060986928747 -0.9238400461624992 0.003673849307161415 -0.5517453686755143
P 8.215189264453318 8.034057799459303 5.039775562184227 -0.09258053974189862 -0.12452469674866298 0.8001339886603898
Ni 6.843634760603583 4.0449525723476745 4.271922544007531 0.31590424633834624 1.09729900671802 -0.21201933732722197
Ni 2.109660654289019 6.706470171395956 8.314855436548763 0.9653556489077827 -0.05281020182249615 0.13557092726049555
Ni 1.743979804628549 1.7232986489634907 9.482397605126708 -0.6093931010959698 0.37391373297359476 0.5601356496217386
Ni 6.914451497346197 2.4336593338264967 11.457878409686758 0.9660930412944394 -1.9360440228823885 -1.1326897275124879
Ni 7.251271945066652 8.276081239794141 3.072814881984111 -0.6666016890964778 -0.8714165382554605 -0.6515769335528714
Ni 8.797277434550633 6.1933983899784995 8.62316275759004 0.6461732460387969 -2.235963977977336 0.3320561735078604
Ni 5.22118301962238 3.7891112321606184 2.3885464496793496 0.496239622298726 0.09935411102030631 -1.0047210380792826
Ni 5.664370224207887 2.020292107559631 0.22900610134707472 0.05559290677395586 0.5326855238305858 -0.4657057153759269
Ni 3.7908019143515315 1.61382469239622 6.295074189175468 -0.3438120284922079 -0.3940308154384439 0.2515564761898958
Ni 7.626859278483606 1.0195544717016791 8.505350539233639 0.6208275681851566 -0.7912276873096954 0.9466578153879632
Ni 0.35449675849701484 7.335294280543694 2.1161656682538394 0.46962381948341053 -1.3863815048778318 0.0527117285714189
Ni 8.837735002438045 0.5934650904187604 6.516266597153729 0.03717840882251016 -0.9734327694889623 -0.6528401165360112
Ni 9.543489720683645 2.9634368830547024 11.641766143593095 0.5659944223953607 0.20651100591448304 0.8807326734500639
Ni 3.665252768736608 1.6879131276488175 11.072167088534167 1.3898800049493933 -0.34874391857618653 -0.6470258238470793
Ni 1.3992816917807058 4.255967987418906 0.9275100776993219 -0.7398657878979515 -0.5122308555206597 -0.6838183100850804
Ni 4.570983204287911 5.276089066125107 3.911597958304326 -0.05246927354330964 0.23247786229188994 1.9970570722306509
Ni 4.382705179978794 5.6123063515504255 12.761397120527365 0.8655140567280966 0.09115203482548817 0.9878098641462407
Ni 6.973296376412618 2.3399498463366566 2.252168713102196 1.5245525887653357 -0.8402059169806111 -0.12230763449268613
Ni 6.254555391176276 6.655046016324244 5.1985708307306195 0.17379628929028135 -0.3579649229538222 -0.033705105561929044
Ni 0.0038529276307505884 7.157690401093962 10.766962397783782 0.6701809218073039 1.0543014201105716 0.6916606889476347
Ni 0.8602410319108282 8.948442700063548 3.9389111575690894 -1.1181943621097905 -0.09339275123054884 1.5344425941855382
Ni 6.3222832058619804 6.5802264752593596 9.717272658381914 0.326129009390148 -0.14016163195497153 0.23089329141358944
Ni 2.7371048012160664 3.418934081754586 7.925933646997967 0.1708426059785961 -1.1040093288586599 -0.4688856557658054
Ni 2.2531218923049647 7.215959534333208 3.8236267375586706 0.17671346293707632 -2.452741913035466 -1.387837520598068
P 3.4453270015781334 7.557815473335786 0.8847166267416542 1.0697082415839447 -0.839221955800787 -0.5871764557896146
P 6.564644782635001 5.866859117743325 2.8372169478570064 -1.0706731766003754 -0.20810714675700934 1.5521909193078947
P 1.5704975341955831 1.5107022175731897 2.8181570193306937 0.30325519011576807 3.2108535345174833 1.2229061378975843
P 1.0297808142510385 5.409241712187811 11.396083518667762 0.3507761185148669 -2.424491917050837 -1.114316367211623
P 5.330117785653089 0.26052864232607853 7.46415442160601 1.1194328625025818 2.0224852824957686 0.6045763964336167
P 3.726172160545392 3.604013518134949 5.267428203896307 -0.45149471398286756 -0.7956196457298039 -0.8237971366052844
P 1.7541695918872942 0.9275448052254056 11.661321396307232 -1.2031394967936182 0.9380369064881716 0.9589145212681291
P 5.325575790794258 0.569327632026117 2.7447110433106436 1.7006055353002778 0.32172933766055556 0.5361925085425797
Ni 3.3852849367440934 0.37801003530241856 13.202952131386942 1.0519398618569302 -0.6406456313523483 -0.4044234715266776
Ni 1.4106595259844166 4.540861644821701 4.90350474983212 -0.29771266303098404 0.40276536709796446 1.1749293529079894
Ni 4.442555329537109 7.788406246530992 11.788496338472227 -0.11039082845044214 -0.5945822613353825 -0.8917835319475867
Ni 5.810317221985608 9.09661043174609 9.851590504332949 -1.097642763210684 -0.07341887921178324 0.582200599841578
Ni 2.0924888065229363 8.558808996228038 10.241823714934537 0.4333350123547053 -1.0849623395295378 1.021239861669912
Ni 7.112297868973616 7.7938438460098745 11.925422404408597 -0.48542916194678337 0.7102592778854284 0.27420069595197294
Ni 3.764619187449016 0.4119223784053343 4.212883008018588 -0.16710087954797673 -0.21593846987597004 -1.3834067385202238
Ni 1.6008384254054786 1.7425450094719366 0.3331283633684071 -1.2952155860952728 1.3374307860107417 0.4170411602906882
Ni 8.045380800727093 4.890759747759434 10.773851242300053 0.4280619368812241 -1.0978160555637544 -0.8603471678151764
Ni -0.44483219266315205 0.6681009411483073 10.920581437179186 0.8342281021306214 -0.6638092139530052 -2.0927311632962087
Ni 4.589653818969181 5.315906916426767 8.714785851868065 -1.0858149173378204 0.04935515339436016 0.4825968347043108
Ni 7.916605650715454 1.0619220535236897 4.295611286207883 -0.018738456949767727 1.6253210636346653 -0.09809067092685042
Ni 4.8465826790520135 3.6468563187349456 7.0836193296044065 2.658614256924686 -0.33781621592008915 -0.1368845038655965
Ni 6.826627411645265 2.033589094520594 6.677295393956657 -0.5771298701868899 1.3219794844526782 -1.349383587497244
Ni 0.49764544877820815 8.361108845763077 8.641019103172875 0.3197884118841009 1.9438964290472716 -1.6467560935799896
Ni 8.062680592010324 5.075382243007117 1.611758404594245 1.6846811507605375 -0.7148651520885559 0.9451565482520883
Ni 3.612183625587252 0.506097945850507 8.647051640006506 -0.38150671482950427 -0.4891621466266544 -0.47010564421583556
Ni 2.276407612426294 6.427672108703099 12.729951345658652 -0.33113083348011363 0.24303558320307822 1.2039131417348494
Ni 8.251095698659245 0.9584614422624768 13.032252632451991 -0.9859815526882503 0.43533687327608256 1.7459171147528836
Ni 8.984696409530313 0.5151654856873921 1.8468080093621342 -0.7065427482657897 1.1175844964399333 0.41394169542975806
Ni 8.538794974616692 5.848106253658173 3.9626254884728715 0.17031373005831957 0.9281474152886016 0.07753701514521485
Ni 3.359732788604675 5.489727323297917 1.9274763969253113 -0.12914574046044208 0.9458373763691968 -1.4792307249000847
Ni 2.7793535783435805 3.6827718917635264 12.299831743585502 -0.6091005095562155 0.20298833747320524 0.20422452387315151
Ni 5.128880910821192 3.7341960468352386 11.564803548615945 -0.4952458909268891 0.6263564684231857 -0.12061096351655355
P 6.203807508980931 5.54722879543426 7.3377955763039795 -0.23198755291903275 0.853482065264227 -0.3616359440475062
P 8.596534056142028 3.0240912490065326 0.7189100534554327 1.1953613955100961 -1.3020842881906478 0.5426598614344783
P 6.430331506095293 5.678690759306051 11.90291165644829 -0.9586424985536652 1.1823354155640733 -0.40418075938825226
P 8.477948693389136 2.6221566898792994 9.821255096416644 -0.8315397566651809 0.40978293606637817 0.3603989863166116
P 8.428251775798952 3.063799433436351 5.321117873103841 0.66632195307253 -0.6511056503434077 0.29622168030775436
P 4.078747938520624 7.153989177919261 4.890971768444996 0.8852267046656755 0.35178604783661993 1.4805502150424568
P 4.307584057766342 3.7780623955724364 0.5256276098612139 -1.1610759919646647 -0.4921718799872556 -0.8092560055663159
P 1.6386365959006979 1.04228272364114 7.261220467407342 1.5696042296883355 0.04443817570871701 0.8853840561791462
