# total energy = -340886.9346600699 ev
CRYSTAL
PRIMVEC
9.07212619929483 0.00000000000000 0.00000000000000
0.00000000000000 9.07212619929483 0.00000000000000
0.00000000000000 0.00000000000000 13.27797371724211
PRIMCOORD
 96 1
Ni 6.874158693218169 1.9431042815755102 11.457709846197204 -0.5386016322047047 0.04020999655998236 -0.9571651426771902
Ni 4.62483386332766 0.2266053830633913 5.744237166705153 1.5211595039233865 1.180995356596411 -0.8795016292564403
Ni 2.9524871886864728 1.8402263702793054 4.7970663651245005 0.38367775433889406 0.9075425945540564 -1.805322196184078
Ni 3.9198389350359433 4.595521823521835 5.059598275218237 -0.9830001014624233 0.2965379259965925 -1.2302330105763006
Ni 3.878769419653411 2.822247744721013 2.0803528502559123 -0.4475534699469324 1.5162044739109566 0.7973903644769816
Ni 5.121569062191186 5.039384670795037 2.59968127224925 0.9569599686449197 -1.2034320883333725 -0.8137916886531404
Ni 5.616217672024894 3.024819251011397 0.031573720871620886 0.284774100592445 2.347783568454505 0.6259543478887607
Ni 5.6263330927564 7.956055105178387 12.382812700755986 1.4946627431844386 1.105735310410831 0.3001636956746379
Ni 2.2324960357587225 6.445763821144264 0.28027154569766805 0.32984399634789 0.49872510772474105 0.13563469061889544
Ni 0.447172358917016 0.38938019327943113 0.599646677026732 0.5232189791010473 0.2975738234602746 -0.5664664769357728
Ni 8.114826386095043 -0.05586343160393642 6.659939484078296 1.1692312740819477 0.2976895231025325 0.5165245978000073
Ni 8.808453940237364 2.6912190257747093 1.1244755291451927 0.15452407132423066 0.3598158601196319 0.5075990131756033
Ni 6.874040755577353 1.056412809417799 4.6100326894052825 0.2895139292702756 -0.13703671317274463 -0.48835764844748797
Ni 0.9265725390058694 7.67019240809343 2.3672370687528574 0.43727831327316946 0.09844985403848205 -0.9066085127755612
Ni 7.761122329162378 4.038538634453893 3.652133191360883 0.14758774921571358 0.35879693193681433 -1.2614690857724467
Ni 7.6827754471558505 3.9294735330779686 12.58911285092139 0.7873664045820763 0.9443232537175156 -0.2705080775917341
Ni 8.630812636790186 7.420572855243777 9.017776015645516 -0.6871604870844359 -0.3468775547914091 0.016837383272312937
Ni 7.183146240029229 0.8560657884757246 0.263979821437904 -0.5806427684361549 -0.7436579079505321 0.12554928135843538
Ni 1.9629994543685063 6.738503189901401 9.151724144808322 1.5914969159963688 0.14674802692323757 -0.12513096287409417
Ni 0.22192960921135746 5.240540925395632 1.3044002867610864 -0.05612358246644528 -0.4654902569310112 0.05659923655128316
Ni 6.686147949505422 1.8248763327208242 6.9314210466847035 -0.28547292643168254 0.6302812573988887 1.0554656156220015
Ni 3.812896711194704 4.3848489085200315 0.3210516602538911 -0.8216487228037139 1.629409888992058 -0.6569258565696106
Ni 6.360649132980155 5.8023141971059395 4.629525059794261 -0.6640799511158886 0.5633420723741781 -0.158229802310592
Ni 5.579529993604978 2.9615956034079356 9.248029300660601 0.9536589292961448 -0.8405617576581329 -1.3986078717406945
P 0.35039454528885094 5.948085121154212 12.435566207492872 -0.32647765097881837 -0.49207160696396546 -0.5555932816666947
P 4.185507079162756 6.322364760346118 12.448193699973753 -0.29397016526941633 0.44620646900073474 2.074334405956576
P 2.399885836581145 8.981541036323808 1.0455271651705047 1.298151785905461 -1.0334770271660523 0.9159593578628419
P 6.573980180963423 8.012801254663199 5.470710746849524 -1.238875259632331 0.45143814971331936 -0.06538701004624223
P 5.106781496458133 1.228465683115552 12.774698615296442 -1.3205039283484161 -3.4791607478031565 -2.0667866755163047
P 4.279666677164811 6.393834970680466 8.269787374000728 -0.7859224730466982 -0.4561460967119499 -0.8884554960156184
P 4.850874960140378 1.848309634738293 3.6707755035233673 -0.26069854770048007 -2.0063703792117766 0.42284799678045243
P 0.2453665400793129 5.923127701932354 3.4766247447872285 -0.08958134790425863 -1.3012903315344428 -0.3284656279431246
Ni 0.48499042426352024 0.26378114187376056 4.288506556950263 2.149960834342639 1.7690210477601986 0.9536753843563769
Ni 1.8042100291994172 7.0275048426573 4.551424032408203 1.3725528265248554 -0.5231580439561249 0.5387764672196721
Ni 6.441554354579763 5.762950241452127 8.794984554443582 0.3263436965041154 0.49743441393777554 1.7327412394925576
Ni 8.90111663741368 2.726065062572656 10.295899796032852 0.5512853983199603 0.3570503815593528 -0.840401577931185
Ni 2.436419288855379 5.696669287313672 6.740629696286571 1.2635341958315915 -0.5400013407657087 1.0197149403849533
Ni 1.1200809912058733 0.18489900442045376 8.73129006348948 0.11572278218631685 0.3376223547417282 0.004189355490999237
Ni 1.723740269658206 1.0640424675659566 11.140273428240627 -0.31182904782770815 0.8954638090126513 -0.012992041384293756
Ni 4.061373176141066 7.297890492416742 1.8053531171027084 0.6466692118386089 0.15346991902810345 -1.0925118697420217
Ni 5.9255499596321854 8.041841130682524 7.632923206383031 -0.14645646382474778 0.6820128814452254 1.4856052609678607
Ni 5.641946221975162 3.081139010564028 5.181622908894568 0.28525489688360545 0.30980661808104065 -0.596298986916173
Ni 1.1282640490532434 7.555448155705918 6.932071518134434 -1.7080295956784906 1.4022621806638302 -0.9693755687004532
Ni 5.132437469398669 4.760970189333907 7.115705868160295 0.7706892010367115 -1.0473203608070478 -0.34851329062261915
Ni 1.5100554087524913 7.573429109867212 11.529397787560752 -1.2463646260308405 -0.05156733055433054 -0.9888524464781421
Ni 5.195134933681567 0.4231965437517947 10.325310722014438 -0.5241926558682263 -0.24488343504509438 -0.5758972833313695
Ni 8.472005067368665 7.531851555416551 4.666610097342464 -0.8043734806630339 -1.7340941539760266 -0.41578003419007753
Ni 7.528104767289096 6.441436416938948 6.62216405772501 0.8695951687760055 -1.206789691951696 1.5556464819566627
Ni 2.770881366082643 5.441697179996226 2.4440099368608057 -1.884119051878323 -1.0004334664475223 0.2763689072478853
Ni 2.7033575306525153 5.359231552687365 11.186122139714064 0.37443206737091 -0.24219688935186676 0.6992968653366538
Ni 1.5004933877201987 3.731247575245335 3.811056883997978 -0.6961349226689043 0.016370985158855676 -0.6524714203426827
Ni 1.7137700029461664 1.5838571555245042 2.490177987177065 -0.4208939583778751 0.47223194653021894 -0.6022991703636659
Ni 1.4468226890228137 3.832719306977967 8.2575055295287 -0.8370737991095326 -0.054290900133080695 -0.5470927003948514
Ni 3.94397079077209 2.646384578012289 6.693758556188525 0.16073379967936835 0.20517094694682084 1.638587184615952
Ni 4.546713784476546 6.896140455040982 6.048528980986504 0.06942904132609978 -0.6705254496309162 -1.488752805457907
Ni 8.323004466387284 7.499246333794103 0.2903025956553588 -0.3077849596653215 -0.64711144158235 0.21440326417836622
P 0.3757665606788064 5.768248363162619 7.8404843820925425 -0.2657661920313745 -0.6017744082084474 0.7240599312139465
P 8.680101498524955 1.7736641802281365 7.998969891033375 0.9006461245445392 -0.024307723507429102 -0.501476188107317
P 2.3971641987161663 3.31714130196257 10.38095914422704 -2.696614390317543 -0.5620932875687417 1.0977522922053546
P 4.133505651689225 6.428399771565698 3.840972220197205 -0.29204363767066477 1.2367343020299282 0.6834233886395069
P 7.051301029723432 4.092173044646411 10.399574240010875 0.8823995196295253 0.19660608809594526 -0.4049520903366381
P 6.656445808272284 7.7292882382683405 9.925258986666423 0.20661307870998608 0.4243693185209853 1.0401958339471247
P 2.450136343694873 8.947184894341557 5.6120417723273945 -1.7258311426362858 0.2378967193146161 -1.0838539369567075
P 6.899488069614907 4.102034445843851 1.4604971048690898 0.9490142314352816 1.9536439953523386 -0.06799513709305063
Ni 2.8491647432056544 2.089727985488143 0.04305086774823715 0.09137854901399747 -1.1790145787209565 -0.5508123153382837
Ni 1.2430536620718393 1.7443884289271798 6.340842867024082 0.579505569507918 -1.4875816679679412 2.714915759729892
Ni 7.69732713760727 0.6936711003481602 9.545774668664057 -0.8329890875171977 -0.3055792102632544 -1.3116035405349926
Ni 2.8684339392897056 2.019555089202769 8.732073895194594 0.9004430073947977 -2.073273311681913 0.6345585446180039
Ni 6.401491845207272 2.1986388607183844 2.2163993622126155 0.753271005560264 -0.7717487526494773 0.7734521084938293
Ni 4.393022894241185 6.969207359589451 10.379604675782902 0.4893871181532668 1.3431167806519257 -1.1090751734173416
Ni 7.302952738845604 6.262261924161166 11.608069451685832 0.5551063147279472 -0.341926895654353 -1.6961349011234337
Ni 8.042086078090373 3.8728271769815406 8.013416344820683 -0.4242363924875468 0.39551022819744786 0.4168812376740562
Ni 3.376835892467775 8.580970375356205 12.340588303706081 0.4270586924276903 1.117203973172063 0.8698489366580244
Ni 0.5635523156613811 5.123029674512058 10.359209628835371 -1.6272997846275912 0.276416215546053 -0.8106870815858879
Ni 8.586858185270776 2.7234160017174105 5.4256984854132595 -0.5925726871045215 -0.6293309776704774 -0.12540298558855822
Ni 4.293438164761605 2.7357450212457652 11.133873043194818 -0.6038552019968761 -1.3183323746183941 1.207179985411579
Ni 1.1445848041169004 3.6900601222219866 12.283758690660077 0.001848623172964558 -0.2504326469980977 0.5013193508144785
Ni 3.2646771960519922 8.410459763115274 7.414089006636775 0.5752699341600157 0.05573508877877498 3.338705495867166
Ni 5.805779749320679 8.317506757900025 3.3859098331096145 -1.219488627575603 -0.5246649675189545 0.8104852499877268
Ni 3.057370039876545 8.846221201677055 3.5034727951126245 0.3692646642373576 -0.5600621160713257 -0.22653475733457762
Ni 3.642567541478104 4.335151801105516 9.119790260525901 1.3275564643198234 1.9067946390989676 -1.3448054812082582
Ni 5.205812826238501 4.85284361152938 11.28822982749448 0.7687166506913728 -0.6726887758308222 0.013593679524034653
Ni 8.000463163008627 9.10170134806263 2.5055534266889534 -0.2298998171520686 -0.3824608512126575 -0.49823994055820636
Ni 4.441422687606727 0.595685786720566 1.6527091502327418 0.6752174557899467 0.040275559690595146 -0.9914631446281117
Ni 6.140414196946058 5.928543761283663 0.33098654567368596 -1.0946214598858568 -0.7451918280965554 0.194768006445942
Ni 8.319058091483063 8.545707020752294 11.38618157425507 0.11698802205198561 0.38098169556396966 0.49422747696470365
Ni 0.38751133527881226 5.084935816528569 5.578900388045546 -1.0886349032851188 0.42071192427405607 0.1632532236671124
Ni 7.3364923894683605 6.3468867175095784 2.307910806572046 0.7870347322742705 -0.575258621306106 1.7922208829154294
P 8.669949789288584 1.9247967308704181 3.2924859845437253 -0.15706637813011015 1.0497153434017856 0.07475945240007771
P 1.8080656828414707 3.6816321169667687 1.2066263536743391 1.1490697115324082 -0.517074042545574 0.8969383366756488
P 4.95933222905979 0.9627431062314398 7.969811170160612 -0.6003232775842178 0.9738757705636517 0.47046122778304134
P 8.9677060438435 1.68614537861663 12.235214650487691 -0.9606518156742101 -0.010992751566077843 0.22203044170632083
P 6.4023809135765 8.039192069827278 1.3510600463182858 -0.7405867252243761 -0.008462786055372522 -1.1522067144994932
P 2.061704187605076 3.733062000488654 5.936967230475773 0.8445073725694423 -0.888286831648238 -0.21282537816828506
P 7.205382021386107 4.231466470576033 6.010806172965273 -0.416094994327335 1.4214032723686554 -0.0020219155260352275
P 2.9641176544961496 8.703516656289992 10.016438391206329 -0.7934635186187496 0.2517652497665922 -0.16056127865724606
