# total energy = -381175.5445375147 ev
CRYSTAL
PRIMVEC
9.11922415535122 0.00000000000000 0.00000000000000
0.00000000000000 9.11922415535122 0.00000000000000
0.00000000000000 0.00000000000000 13.34690633665954
PRIMCOORD
 96 1
Ni 2.6974847114011387 3.0944445341450404 12.257972506824531 -1.8426301886059169 0.00787811719649611 1.491859983628321
Ni 2.313556259819678 5.875324549451371 12.881459326417781 0.964052870935959 -2.633527232049071 -1.6476248693381885
Ni 6.385846069246267 2.655746022940334 6.058681139664615 -0.39175538914070596 0.39387834902097973 0.029316746686246287
Ni 9.13089665327392 2.264704576602607 9.610987322425665 0.7396480154601907 0.9792642885690748 3.2798804553091574
Ni 6.290723443217283 2.991889740518164 8.466343232032091 -0.8709462834872614 -0.8553671981020817 0.30701594270978094
Ni 6.263429605646126 6.57833465041967 11.54742263141459 -0.696412344700007 -1.340982250807426 0.9974124202330114
Ni 4.300133622228252 8.495998036708887 3.0554935924752487 -0.6096121590853114 2.160566120662311 -1.1123741558835873
Ni 4.404384591527776 4.055939040711224 3.639247952897923 -0.3924544720902596 -0.4718897326994518 -1.4961303288689007
Ni 6.7304341882911505 4.456282095576376 12.923836360561841 0.49813632510080663 0.1945587186486133 0.10857177296383236
Ni 6.55221719275051 0.4954565616700876 7.535796636112495 0.43121950867359926 1.5922978146311093 -0.6939739104618436
Ni 7.420732090938638 5.817362761411852 9.62448103824726 -0.4718496234901357 -0.990569686279565 0.7949231338834115
Ni 7.068921546448931 7.4488193010018415 8.320768498965878 -0.1642145591391172 1.1242289983396445 -1.5145332568561207
Ni 8.324511028514559 2.629418823118104 7.695251740099877 0.3488447058201089 0.7761998464422956 -2.653665911780475
Ni 4.4016305858657345 4.348000429248302 11.725590383145379 1.528548083077974 1.9014639709146735 -0.1963651757297328
Ni 0.27937016443157014 0.26804773585544267 2.4681234597181394 -0.8375895624036866 0.4713315462031366 -0.06005865585479334
Ni 3.0832643654640384 1.1725954240184835 -0.12241463975533162 0.6469152664111438 -2.535213389367821 1.0561649556818713
Ni 1.378926987294466 2.371700432340126 1.2226362540512168 -0.46798371277682627 0.1748077612739312 -0.019771783310288532
Ni 4.298437446555604 1.7857446912326278 7.410682706039402 -0.47986632314702515 -2.3975554976713096 0.4227436099921042
Ni 2.258631173387642 4.1011065574135115 10.361082712913229 -0.5435085825880188 1.151788396015152 -1.0349646674551722
Ni 3.781122104846069 2.9806548564928828 5.519399411071885 -0.4760544056001027 -1.7750240594211688 -0.7463516527326114
Ni 3.1898316176713717 7.432650916767407 0.9459690276270277 0.14357682828410756 0.8558950455810937 0.9431397749323758
Ni 8.12732604695721 0.40848287424905194 9.257934739620824 -0.5677677122456996 -1.8667754183935525 0.7161401621462375
Ni 5.538870778255959 8.228047876550741 9.98854417216584 -0.24077275531083048 0.6854681869836775 -0.36642565212666567
Ni 5.197392314610929 0.03534793624902162 5.252194291518337 0.3641162872671987 -0.22451335602917466 0.9989008318530798
P 6.056778869528516 1.2461510851775073 9.740892492812788 -0.01818566977009126 0.016754593750519534 0.9712625013105208
Ni 0.16506433869838133 4.466003188409938 9.291702314342588 0.3927668611243558 0.892323977832089 -0.4365640608149643
P 5.23074131694896 4.695953541966342 9.541369342209919 0.748722209847317 0.40158805896041155 -0.9598630012243275
Ni 1.0990215244113666 4.500327947720944 6.704645022687665 0.17470928802285393 -1.3365897781666853 -0.8648843935638976
P 8.528799885604126 8.012159366474032 6.582586944592551 -0.21553429245901592 -0.07535029190654119 -0.6698934724738721
P 2.3544650988922515 5.17390119346716 3.358028409829724 -0.7694157336409265 0.6657498826191438 0.7144018392988922
P 7.735628016488136 6.538903125642628 13.397224400039413 0.057438187512810754 -0.2697981960089031 -1.8204608515977294
Ni 0.3336769674732536 4.761940247166775 4.439287509643329 0.2210048286552839 0.7342386715191613 -0.6246708531906467
Ni 8.731784693655046 7.212111602426986 4.339266036456569 -0.611484693517676 0.1482816899589446 -0.18902030532888736
Ni 4.135768728014236 2.817566653645377 9.628831820039846 0.03884551211228794 -0.48783237207163727 0.30254762252578216
Ni 3.906857965999134 6.210383079367667 10.085602809459894 0.03774559417988983 0.22209986149167554 0.009287853059829165
Ni 4.2630001419109265 6.455124814327485 7.3701878797385385 0.4337008803345563 1.3030939604020848 0.5446660932312297
Ni 6.3894025666244 5.148650062082417 7.588463802670619 -0.19512281868219944 0.08357062293380446 -1.0912119199836756
Ni 0.9392162422205985 6.104043807761496 1.4317628594974499 0.9012948138721317 -1.2903510589141198 0.7302043535487877
Ni 5.487146539464243 2.0374352749158735 11.933134803219545 -1.6984792329858942 0.938541614038732 1.0941193234384576
Ni 0.9347751801099558 0.07030648163125794 4.907938112228746 -1.2506416561396396 -0.32199056174174223 0.31820358389548425
Ni 5.222917022717068 5.509324492345318 5.327644927434224 0.3383602613490173 -1.6341301772858632 -0.39129490456451965
Ni 4.248126687491094 6.351366283126471 3.1813552989201552 0.5008917763587567 -1.2032932487626633 -0.5714266491545256
Ni 3.027755648693027 0.6611081783970632 4.461723536564919 0.3408454896647162 1.071205652065078 0.3028787806129558
Ni 6.725473330409858 3.7256589841952903 10.759968515775752 0.1898551425253569 -0.07114319580372909 -1.047646633798215
Ni 5.403997454608306 0.8360185432984445 0.9224113361477185 0.5409158821601782 0.8267927288984986 1.049769850788805
Ni 2.153422685563236 2.8795500194894 3.650725408282841 -0.21807737059584378 1.024926823603196 -0.47590193918263846
Ni 5.377670254786078 8.78377338994411 12.367630264061223 0.2243356928007298 -1.1302078416308987 -0.7980228558546579
Ni 1.2647087061121234 8.566708499965404 10.593986783138293 -2.1052652912074774 1.710187008341126 0.35216837087670316
Ni 8.648225243717018 5.83984164868646 7.415180307339132 -0.5881485898948967 1.554349360411794 0.19882597856539952
Ni 2.080587443103885 3.1541389747533928 8.145283622949567 0.586587416055364 0.35070232785413796 -0.36224735237926
Ni 1.3616551769504055 6.937960369917224 5.975089772442424 -1.2911357595989443 -1.733145416909512 -0.1506332209102567
Ni 5.661633772369867 7.435897360527958 1.245941343024438 -0.04117955956210328 -0.28702047342446046 -0.6086351398840228
Ni 7.676517206218759 0.8583223414713607 5.132673181552959 -0.14822229747591892 -0.9026199604414583 -0.22318306725352527
Ni 7.537339608821162 1.3471008953722003 11.613529710372438 0.5462100406795819 -1.3219825697764718 -0.8539878012560519
Ni 8.773988462542222 3.30390399126897 11.771090751525362 1.8077210354335576 -1.9757732231512102 -0.03783172613579291
Ni 5.29941819324311 1.850172009121111 3.929716212994077 0.9562773407555982 -0.5050279100143173 0.6119598333818815
P 8.06760424867672 4.155967809277222 6.121825382729756 -0.5450229623500162 -0.36780916273775366 -0.6904882659060882
Ni 8.114768875445188 7.1899792456661435 1.982082496876057 0.18257403548291137 1.4207250153547082 1.1911589273929746
P 4.5619465446031064 3.237087436680306 0.4061219071434145 0.7618461488237848 -1.3406145830553622 -0.32353296652819763
Ni 3.678166065361147 0.7962496072316825 10.91319154204976 0.3348915860741265 1.6975407803320248 -0.48422408589508864
P 2.1932554561983233 1.6319216200163602 6.435157361355281 -0.06530524896571333 1.3611736381536363 -0.8820724753074101
P 4.805274799835717 8.579356863717893 7.243432489337075 -1.4823669565362212 -1.2941820026244357 0.8445474817787585
P 7.179492138012675 1.0197025136549582 2.338978832616495 0.6600654306398568 -0.15604025085844092 0.10985398211036565
Ni 0.471897958268374 2.4301728969262477 5.068087189166067 -0.6271370553429522 -0.27706978996965187 1.9135059896808722
Ni 3.7455753695128338 1.8745476949973903 2.273632296944125 -0.47531007123491037 0.4345166913676323 -0.8349462112435685
Ni 2.990485380015004 4.246001908288261 1.5440369221130794 -0.5901985304453901 0.34885241912959275 -1.163857154254228
Ni 6.177234699958661 2.9494306333576863 2.125535186506651 -0.15028020844621215 -0.7070983636589435 -1.526518454242455
Ni 0.6833618208377236 7.353286309890765 12.688450037551323 -1.1740950299321522 1.2310346805419894 0.21944494036733175
Ni 2.4013835066114653 8.679476824524354 6.828784107710189 2.6858918616937166 0.7481609380272082 0.6499260282130097
Ni 6.514509201318256 8.27810329734195 3.510623121566929 1.1793431657049689 0.10275310939952627 -0.09352567726398732
Ni 0.3986942991575448 0.8300345084791348 12.834505353724788 0.9564953703036752 -0.11594852504387773 -0.36722089433445143
Ni 7.910863025765573 2.496551728760681 0.469835189789057 0.30493540603166835 -0.5472356537306189 0.86062253296375
Ni 3.507454191210772 7.3254270804287245 5.189504185810712 0.8485915699411449 1.4493084834193557 -0.27951233797287345
Ni 7.977561030441633 8.012049935785475 11.261318831947088 0.5683662650616469 0.6310024518356294 -0.34986080578944906
Ni 4.2265688418451814 4.066079617850926 7.376327853289043 0.41713372000449445 1.3899324554538837 1.6355206298754865
Ni 1.4567230876351096 6.434460652638129 10.354422943592075 -0.11631670701657387 -1.3287191171693569 0.5040303219877384
Ni 6.65268368407074 7.01231852279234 5.837363043590623 1.1089751575043674 2.1128531308570646 0.5266591151308478
Ni 3.2471732984757287 8.47301759211172 9.189758508726829 1.1118136553944271 -2.0779645465099956 -1.6602595273830634
Ni 3.0538092717938614 5.1516867636898995 5.5764173594225905 -1.8849762576722955 -0.29448387168104123 -0.44235984156113495
Ni 3.14015008506607 7.92356610486234 11.627117354201713 0.0002663662875092187 -1.2612322871712924 1.3447859408242324
Ni 0.4040098948542464 0.6732011814051195 7.330387938310018 -1.6146923802762256 1.1115933118535049 -1.367597282291793
Ni 0.9061225781558703 7.801678556256895 8.356151088266277 -1.260947408941022 -0.5315429255857104 0.9978019423619461
Ni 5.435267273863736 5.002386827600693 1.3995701747685152 -1.0905125799238058 1.0845139391382095 0.603145063303729
Ni 1.877265223763246 7.65903565372163 3.138137472319009 0.04733015254453139 -0.7919756212193134 0.6573937973449645
Ni 7.557620763100565 8.870944052604552 0.36295606011933323 0.06000851934314826 0.5044249863229958 -0.4742883148386154
Ni 8.711102293517596 5.4253729157732895 11.477124357084975 -0.20523548163616914 2.0367060540808404 0.9540276254894732
Ni 1.8595465714409072 1.145821382217976 9.025364432995863 1.5428668136934913 -1.0804161149197522 -0.2529713542595514
Ni 8.86654858661414 2.9888712773587747 2.8995749235730965 -0.7534797791369604 -0.9242082281351955 -0.7329526057178861
P 1.5838085939470556 1.5228557004202872 11.091172349687595 -0.23578507228825196 1.153698211443355 1.3953991349954096
Ni 6.726813856344692 3.991703226527718 4.0259878612529185 1.6181469144837295 0.11869060656538913 1.5160841462830084
P 4.417078551400496 6.567090647170343 12.682444116594302 0.5264436566859321 -0.3513831559712465 0.3627083511760786
Ni 7.858865210252461 4.877252835234697 1.7315071942936977 0.3494897956032755 -1.1915373937783156 -0.3058239792842088
P 0.8002483869760703 4.244697859249612 13.306278378623723 0.7227155013709102 -0.04015806027612438 1.1697817472687788
P 2.4036177165028563 0.21975232530520827 1.8543923860098284 -0.1785194057975635 0.38709372199897846 -0.31322824216807993
P 6.859498566221187 5.960744321094883 3.3395957222645447 -0.6342764946012108 1.6868552755937207 0.7800690995897146
Ni 2.151708271442495 5.90781634472903 8.229154950349987 0.5972919469570617 -1.108170145104569 -0.3179719275006524
