# total energy = -381163.2686079511 ev
CRYSTAL
PRIMVEC
9.33103681102960 0.00000000000000 0.00000000000000
0.00000000000000 9.33103681102960 0.00000000000000
0.00000000000000 0.00000000000000 13.65691556860110
PRIMCOORD
 96 1
Ni -0.49401121241230456 5.4179265229458675 1.6086754011024638 0.5561023600926294 -1.7915858204345918 0.27343322165832906
Ni 5.019929812476794 7.63678174467874 8.731111738084763 1.1475656161830559 0.5967278469234756 -0.14965080239232936
Ni 7.536174506447489 7.544637756779129 8.972128684905199 0.08423396754941621 0.08732340510801735 -0.281658694891915
Ni 5.265018823734635 3.2976723665431393 0.19345012078338616 -0.1604898019893623 -0.1347725997289163 -0.17000725456149432
Ni 3.147619964577202 4.343541620591531 12.665000317099963 2.1806973441945474 0.11063071237539013 -1.8575788394959494
Ni 0.7446130001816477 6.516721417436445 13.514446582056632 1.1044279044533172 -1.4770177764091659 -0.34317336646694446
Ni -0.21456252453241495 8.61549552724222 7.615478054676349 0.3644155636751724 0.20328504277801765 -0.8172289964694635
Ni 5.23678310653117 5.413680901224923 12.369860557822404 0.2258449303564046 -1.6478693812488263 1.3163644522587459
Ni 7.699766242736701 1.9875014965700426 4.842168896883727 0.7410695783980658 -0.00017252102212228352 1.2699426704610968
Ni 6.621826215380871 1.4693770189901256 12.515935138822103 -0.07838625051938758 1.2651308508947503 -1.0324681262855637
Ni 8.698840347487215 7.628617087523078 1.2903554803322248 -0.12980188598720227 2.119522315347124 -1.0258701613530719
Ni 3.1773206545503117 5.743915622820378 8.41111689621802 -0.17296633718981824 -0.04150069034694788 0.049730277345591774
Ni 1.5356460419838507 4.993420337071954 10.94701461979015 0.09599342207818952 0.5831984449784731 -0.11109119695157642
Ni 0.5408931403519516 1.8746332760501754 3.2646041054071975 -0.9028935258178191 1.413324866235895 0.1904423824873946
Ni 0.3791134913994584 3.4495069965281995 5.432775934828747 -0.3883041973673119 -0.29060330567971243 -0.11718136900971432
Ni 0.08117255488975121 5.781127797376697 4.835667963580471 1.2339839929783007 -0.9221744855346181 -2.537185168382211
Ni 5.068861769190269 3.3647158655870593 4.241646699288872 0.41325238267221737 -0.0486900090065355 -0.15750089456436747
Ni 9.072464389967044 6.799433168867574 11.423367778258026 0.3057046800975251 0.18979703559391184 0.04619732449166882
Ni 2.3675826164804064 7.344403039175306 11.774131713805676 -1.2883594824053877 1.2317245075201626 -0.23003917094341025
Ni 6.616675483095242 4.378626318769003 2.2241515181917912 -1.3948874854663138 1.4254098224248872 1.090929098635934
Ni 7.225385665437632 2.262216549506998 2.6718387986620584 -0.11102949047570557 -0.591922198004716 -1.5371165414732755
Ni 1.8438315237406446 6.260071251646187 2.0819147926070896 0.03289006585980142 2.2448211712576502 1.6596100667245226
Ni 5.3980140905228025 5.671478784535348 4.735945307633057 0.7085718628806764 -0.21905541823839694 -1.4110203864724344
Ni 5.940473911944966 8.945655600543681 10.524920506915938 2.569920196721387 0.43023271928029777 0.9873529791144802
P 3.3637640998386273 1.3365310487899478 6.707075500226404 0.18902930418995187 0.7266307772649163 1.02053537940372
Ni 4.565452336564041 6.868501502886097 6.4971822264833525 -2.9727614113626095 0.6959048089359693 0.18160832913553238
P 6.768482119970055 8.44646379652815 7.016294860855023 -0.006707493927162642 0.5501474280607751 -0.028350526118235048
Ni 9.52036348497152 4.581734995691618 7.621665465144829 -1.0302996578793353 0.10351621281779592 -1.1790698574389242
P 8.39206385227957 2.7035745877501967 9.062291693702926 0.3368278838648909 1.0051290721509785 0.11727855670921093
P 4.345865048742113 6.71955949429333 2.8264484789763684 0.8229486725620601 -0.8651073082079811 -0.02622422380385161
P 8.346173813546375 4.036083959701184 3.4167009375249133 1.9680588852260883 0.01164941131347026 0.48755366448895376
Ni 1.63030940980578 6.747767218386548 6.835832610123027 -0.10575435811969529 -0.4410246676894791 -0.2206456455436523
Ni 1.170541236056158 8.580168222109265 9.914415033102978 0.10411425141311101 0.5647250687646339 0.17074464694815109
Ni 2.9092586308156263 2.705179526071081 10.899830366259824 0.40686756219179604 0.6570896358409846 0.22865514611169008
Ni 7.230928301266733 6.140624650218044 13.246729806681671 2.319821793134256 0.26150484565185933 -0.8724956302522522
Ni 8.328958050743866 0.4679179012464847 9.744755323615676 -1.0561515859454325 0.5786193102482229 -0.2862015770675909
Ni 6.25878356857478 7.9594023402867435 4.77198550397366 0.26488430364705345 -0.471794087661852 0.8731209225410771
Ni 6.505962732064471 3.833675110534769 7.935774289030096 0.4911256981109283 0.23131752343520165 1.5886964704330961
Ni 0.8223899907983186 1.1895298958410399 8.523759305648555 0.4856621038931958 1.7137700977066936 -1.0720952537588826
Ni 1.2435565986196468 3.0678302693337005 12.453481576755177 -0.4691257968010695 0.7468859279695267 -0.4243670045281401
Ni 4.060372648359684 6.292281990504867 10.743021360583699 -0.32396182653550015 -0.31559417129709516 -1.7701204514719642
Ni 5.7010768331042145 2.2713329724110913 6.263922170512635 -1.3400872497969825 -1.1694809281989085 -0.17568630722414258
Ni 2.012769944087222 0.7606782461529652 11.663033590957157 1.02720584944536 -0.8765877980437549 0.4096327836417591
Ni 3.7860494989662 8.944171965700537 10.274534266095506 -1.6041886525314244 -0.9039913868676882 1.0241920023197006
Ni 3.423258790152341 0.632250521853594 4.005928848238382 0.08912497709313039 0.30204959984344115 -2.0345396425571414
Ni 6.191208200436149 8.37316850286218 2.1796163459946003 0.4974650100653949 -1.3631649575520524 -0.4626980388978547
Ni 5.546974761189069 0.7902865588622567 8.409218030239533 -1.5160628061267696 -1.8279563886438261 -1.924097392043473
Ni 1.3072409244338081 0.3381894304242571 1.6638768814078113 -1.20472663877508 0.12879812731303625 1.5922237668600643
Ni 3.2270737424977267 7.2896391844935025 4.540705494001149 -0.49949541023186234 2.4943091949542913 -0.19843928464994212
Ni 8.638505863866062 5.379585292942879 9.729241541916245 0.2741711282656182 -1.399813976233654 -1.2188432806821203
Ni 2.4045241909709945 2.5945787474813002 4.578631492868792 1.2249925881129677 0.4281681234417851 1.0978618212000253
Ni 7.468515158978114 3.5438531091006515 11.40465811647195 0.16584618120526923 0.5831225974352151 0.029489010598052437
Ni 3.8006152473319004 8.571033137131673 2.0801530928688168 -0.3574152210979393 0.41381931091928087 0.32714665202138493
Ni 3.057099577071974 5.1523278929130045 4.457302821328309 -0.7667484712214085 -2.0707202062427568 0.4388024632271798
Ni 4.317694648795894 9.10804363309223 5.747731083747179 1.5949676481537887 -0.5647705772905885 1.4281187367156178
Ni 6.5509663223064765 6.162123358888495 6.942315602195329 -2.079382767013761 -1.2341524002353648 1.2766203395915885
P 8.915926917460322 4.673897645664727 12.600743998733067 1.1034066622776544 0.689347981654058 -0.3442491160296265
Ni 8.519805745377864 6.42171280125479 6.6701329926321415 2.394525195485418 -0.5472063431545802 3.0010504881152897
P 4.955303051950951 3.3384303350642033 11.34631580919678 0.7630080303423697 -0.09300554309445919 0.6736470259790334
Ni 6.296191694902834 2.1832479854974385 9.84589816335634 0.34365904785411133 0.783038980851316 1.4059882233651657
P 0.5696933852787514 7.984726774024419 3.1771312345043 0.12827953580540488 -1.1233190849308654 -0.04950144916423733
P 1.1856201914430715 6.6052263010038175 9.31566853180152 0.24484281161514607 -1.6521937196557932 -0.4838931849182311
P 0.30574821495786964 1.1347847032327343 6.095545478578367 -1.35349478145214 0.7050126847745084 0.9615907825487116
Ni 4.324478312512654 0.8058003405616889 12.52201244305694 0.06937710504224182 0.39845876930281054 -0.844008578556153
Ni 3.273337022700893 6.644929862372207 0.0827728276922609 0.6480923174383806 -1.3149793989857612 0.9138734218680907
Ni 9.239788540955987 1.2787999244218575 12.023398230216191 -2.1378167427809376 2.1630698609207712 -0.9674590684040305
Ni 1.5767679209381376 4.005235552207907 2.830477620644728 -1.4341261192519625 -0.19947209678983066 1.4030684786152094
Ni 4.90618447450249 7.791359699468102 12.399851443038417 -2.6660388315235313 -1.1878368049982768 -0.8738832546283982
Ni 2.0402311852404935 4.478132494663833 0.761930471284725 -0.9423591880126093 -0.3017112426674159 -0.24589850657317003
Ni 8.128303436486323 1.0433498741260725 0.5339144579671293 -0.3571696807460365 0.08915068812474324 1.6234490434229332
Ni 7.688121108873541 3.660164482181021 0.3986956051215974 0.023549248074849767 -1.3716845649872893 -1.2440889426227864
Ni 8.344130316498273 0.16040425413564227 2.9132252545377657 -0.9948593147938543 -0.6902478677605081 0.41902322371772344
Ni 5.78982432362707 0.6114609719760918 3.7926213481487516 0.04112530928540015 1.6127041462016032 0.1945227232043553
Ni 3.0341638887421265 2.0452792761218794 0.4457865482844293 -0.24571081604239617 0.28445399824886497 0.6279114716151315
Ni 0.5847602103178907 2.615778862975773 0.8467421305067139 -0.602975113384768 -0.49218087884832007 1.4620670686366044
Ni 6.63350867339103 6.195537801487837 10.614168141008557 -0.6529049083356755 0.2633938351444561 0.9450282502043401
Ni 0.20219050290648138 8.82438011591267 13.223854770090693 1.6892515437400393 -1.308900539781533 0.2734933854723032
Ni 7.773630729644379 6.948085915321113 3.0799344902049284 -0.7685328168153409 -1.4216747808624872 2.70809333749142
Ni 8.619881114514405 7.947859847827826 5.267130437351008 0.607879749775237 3.0483119922054147 -2.2568346507787584
Ni 2.61345543482519 8.877865618559815 0.20009848446728212 0.9811417080974457 -0.247675910188567 -2.7460009111704706
Ni 1.373789878530013 9.435077809082665 4.607201261187883 -0.46403192721792985 -1.157838973084606 0.23260256079521233
Ni 4.305470990654274 4.2658420775798795 6.584162418645885 1.1125705881651098 -0.05444310944022882 0.35544472763512974
Ni 7.577193743997534 1.4777376279175234 7.379951489879221 1.5719891849807444 -0.6421067892789071 0.21035994734692803
Ni 1.6939377493994452 3.699914698733157 8.82512566574894 1.4828716640867816 -1.3492992553135537 1.2306760116509903
Ni 3.199668487564951 1.3720916298416355 9.068300881369494 -1.2200588982567762 -0.1755181570773945 -1.820072357910059
Ni 4.218981611024756 3.4160179056348623 9.058522887959873 1.1682275154077817 1.4274834171244641 -0.13650809436278427
Ni 3.1313839606333715 8.498120415972428 7.852658079185461 -1.28604883199434 0.8381948000878532 -0.30931810848039626
Ni 5.684943470564628 6.148798638410455 1.1269970199617454 -1.1649568150763097 0.9152900997099591 0.16932694066501805
P 4.327240299390455 2.131889959229139 2.724240967942608 -0.04925308059885711 -0.2582878813764584 -1.735488463220392
Ni 4.015975575506383 4.696646713259589 2.1869365443244475 -0.06668387448079482 -1.0094009600534553 -0.2583709280085679
P 8.294787794167828 8.734811494155872 11.541186113773414 -2.1003647685820668 -0.03890644725721041 -0.14266922886817368
Ni 6.600402155004415 8.617231100077595 13.172409032076951 3.1243189438593477 0.1188980945905049 1.3476887162933242
P 2.279115057060031 4.489339069799776 6.430180717104806 -2.4879115189580636 0.3746434120507677 0.23587968888458732
P 5.397025000627373 5.619094344224623 8.920027908111653 0.0238292412091138 -2.05804646742983 -0.28176385301121154
P 6.859870293892969 4.146367483041488 5.883508865693996 -0.31555123387430173 -0.2505457755371943 -1.2978931329274357
Ni 5.358646446477388 0.8079856693683815 1.0580341266584894 -0.27889578743479715 1.8062668194855345 0.13947771851406948
