# total energy = -340872.5356850036 ev
CRYSTAL
PRIMVEC
9.22891594423212 0.00000000000000 0.00000000000000

0.00000000000000 9.22891594423212 0.00000000000000

0.00000000000000 0.00000000000000 13.50745135750195

PRIMCOORD
 96 1
Ni 2.1862656291772367 8.4475684052049 8.114412838876508 -1.5059552853791225 -0.5167431415687165 -0.4369425272003056
Ni 1.2777526673444028 8.5848669904956 12.18214068415066 0.7112645792214912 -3.026065264992072 -0.4075959557173883
Ni 3.7493671543964227 2.068080129195204 9.936486979666194 0.5171807433267672 0.5070752794616493 -0.47417261519635756
Ni 4.241868263762437 8.07531084411828 2.332453506485951 0.6610990141106937 -0.9907656043404548 0.5245567240758644
Ni 3.153040738549238 1.7887116089737363 5.003970931407784 0.4595852043004859 -0.5940708689166027 0.04696839832973847
Ni 1.2319034120023178 2.655971315698052 6.615976483208634 -1.057681392326398 1.351841047898801 -1.2861035964916754
Ni 2.0647669483039386 8.227348008471239 1.3653876862558028 -0.925856819482212 -0.25390209360393695 -0.4421626379486643
Ni 6.492440980545078 5.2623556650206975 8.108117795183102 1.0284605477880675 -0.3967363872950651 -0.5466353011424585
Ni 6.742406173971077 6.586059105784633 2.847627294112614 -0.6877009329689382 0.9220886106890314 -0.0056068046638161504
Ni 8.869874378473511 8.535861445836487 0.6856872420752052 -0.7173663212438549 -1.4669297960455445 -0.2710564938960364
Ni 8.034076046842024 0.7634934653063877 5.0964151385153915 1.9391897676002217 1.1945844081347556 -0.7598041786930915
Ni 2.058149815437538 3.8911140772625825 -0.11498306608434691 -0.07095473394200684 0.0686628525840366 -0.4850815487993774
Ni 4.899391622478657 7.221986800752769 7.3981391229577556 -0.9405475887251673 -1.5986980617304982 -1.4474814575129458
Ni 3.95282783943499 2.096283696893556 12.430853513657594 0.24110905560432666 0.39232565982187917 -0.2463332801177435
Ni 9.034758194081743 4.5595921594270825 13.645768336844753 -1.2810086984672713 0.1566524305211431 -0.3644181347783337
Ni 5.751451304334129 7.886348786322549 11.473918274665168 2.193125028434939 -0.6177103627124135 0.47322619212268824
Ni 2.9861542481404375 1.1216640088096441 2.0239566811697394 -0.5371556437867975 0.5532196392281956 0.51673825647271
Ni 5.840639549830487 1.4074466257426153 4.89191250884556 -1.4456194646035425 -0.1819456578702931 3.8543212086996586
Ni 7.450070234030605 8.848103365318927 2.66017139542957 0.4151567987837818 1.3901916226525415 1.3946483728723142
Ni 4.297287905133054 7.840425699651411 13.247055164775116 -1.2693348616737687 0.2767800266433749 0.9532632365196227
Ni 5.2100923129671095 7.6659068956017276 5.053596659230943 0.6896182045963091 0.7628499074979508 -0.47705225073699775
Ni 5.189216504677295 1.2540343528860376 0.9480422554079585 -1.029482818404995 -0.046858355114435424 0.3640705216309278
Ni 7.468121993984131 1.417100072016331 0.9307758762172365 2.1183169821851133 -1.6476554654658078 0.33558424126577685
Ni 0.5260777520362183 4.818278678597501 11.042004076811887 -3.5848557134398256 0.10479867907464531 -0.026155318239129147
P 5.331517162511354 6.327271068536766 0.819314564528731 1.3965005955897045 -0.7390803158821787 0.5966712826539272
P 3.3841789430666527 6.7902950197782594 9.047952775475176 0.6183263990298576 0.46226995022150064 1.1408712348820158
P 2.925714076394199 0.260880232534914 -0.3049040082661566 0.5565129652674867 0.9426034428129314 0.8357337401418703
P 5.18112274522983 3.9715440813499963 11.190720677140675 0.14403808419124225 -0.39539889943056417 -0.5123743230770594
P 6.6497293981769525 0.4966218204188004 12.644609054641027 -0.2807140715904585 -0.021067362193260494 1.0581105094440166
P 0.16392677700537728 0.6497101583191567 2.3103548668086926 0.8549630206851276 0.6318162059861764 0.2848787444911094
P 7.484475633369431 7.938630596208401 4.664055184012951 -0.349336814965179 -0.2981893455570865 -0.10354166673909265
P 9.315667943297198 2.766561417703729 12.266859365564455 -0.5097435703224318 0.5947750940724789 -0.56796028787248
Ni 8.092245905219874 5.1070699221893925 6.151131666814364 -0.15467808040359168 1.1631583284149905 -0.5305530508686154
Ni 0.8802161820815525 2.068458514756602 3.9647211436538603 -0.3896329434810644 -1.1129899350907155 0.4511699836535972
Ni 0.8901963319863292 1.099569983590451 0.008276491986872327 0.19244835717382985 2.085480395271066 1.121195353719643
Ni 7.170351014996133 2.157932856653042 3.386817490188694 2.0702309253111637 0.9481570256413089 -2.933507350957993
Ni 4.420540080071367 5.774292871759986 3.748236612170295 -0.8210905363073988 0.23128409909410488 0.8504581908362385
Ni 7.599670964524806 2.7327928135779866 6.720092500547952 -0.7314724216279338 -1.1171353247176568 -0.20289706331097956
Ni 6.673982989770955 5.3257214031806726 12.782506596588673 -0.652309955064154 0.3737481539300079 0.03431214301830865
Ni 8.790413410579923 4.080500665200369 8.139630852206269 -0.6176918507696523 -0.015442816917631467 0.2114927753997906
Ni 6.316371718585276 3.96133690010838 4.492105710214322 -0.5854386471629014 1.3396442487222928 2.8629493382337725
Ni 1.3829253955807956 7.05444505729862 10.068630292405748 -0.15685477633993633 0.7708290690486853 1.4640576167040722
Ni 4.264931325175454 4.842975258165822 8.542166641337639 -0.2838729289344143 1.7741671107375123 0.9812836329919489
Ni 0.18534893713018552 8.079426940712999 5.777447315293788 0.11458146949302203 -0.08632093198543198 0.5928382820610822
Ni 8.51089722770035 6.662631422929012 12.495311032595943 0.627382595694855 1.3807142792897251 -0.40700871575535064
Ni 9.246543361471067 7.055487924821499 3.5034949852748136 -0.9236027333407125 1.7018111255726045 -1.0121396991408569
Ni 4.375982872987715 8.955518720175313 8.639001043849076 0.28863409776848353 1.992865916967439 1.9141330817419095
Ni 3.5260827575070506 5.466923819995064 1.3742483686338094 -1.940573792431942 0.5615482136985489 2.4749086789404924
Ni 6.3446214308642865 8.239742442836057 0.7935086692413842 0.6619351368587438 -0.23105989889844075 -0.9395086059376917
Ni 6.0048588834772385 2.8541899763738368 9.241136139509527 0.028278278119402915 0.44068168252776363 -0.6043516820173204
Ni 8.864133992639621 8.726576997697233 8.820811614534383 -2.3410087116245166 -1.3319738766612286 -0.30204342919585403
Ni 0.9088442799219606 3.2278318748802075 9.609322825690473 1.9423967045732937 0.2502279871864594 0.17960338289036165
Ni 1.8036532241908934 1.8161122609686338 11.213454266247792 0.05180207227295594 -0.5815904770614049 1.1291362058332748
Ni 1.8581407450322114 8.828842617352153 3.9025191718180876 -0.829846428123158 1.8077444324723255 -1.053824994694785
Ni 7.03619949010633 8.773893650704252 6.716242196737824 -1.2525913236668427 -0.7409615920652916 1.05934155363764
Ni 5.408024877242813 5.993055099744846 10.138828197177991 0.9194131207393973 -0.49915833860741776 0.15515244893684893
P 1.1421522026219284 0.04165655874347192 10.171137709663318 0.7005855022410902 0.31035014928933646 -0.6753555240297079
P 6.893658880452848 0.965501518945832 8.364125160000501 0.6627087817999747 0.3746737510680709 0.8930510858061006
P 4.791394845905976 0.6088888164855999 3.367516134990941 -0.7749878284120653 -0.5768876722690969 -1.555141003075154
P 7.450946981063112 3.4244077884845567 1.337460986041401 0.32716593529509463 1.6803149033720417 0.2019688950697554
P 2.9201582688829393 3.4109889444291235 8.238573139162176 -2.314720467351949 -1.0110449234147814 0.14749441817095887
P 2.394054675881553 6.858210613591143 3.1790865856560075 0.6871733426002424 -0.7431807112037975 -0.03155694887067468
P 4.725564987138848 0.3049335407977779 6.538943643149285 -0.19156698301014105 -0.7104045452140411 -0.2460185770908021
P 8.516508408708399 6.460001340342295 1.518832260318841 -0.2903155992359645 0.03253113985848591 -1.196658259944649
Ni 4.475184492486923 4.489037095600545 13.19975143225068 0.6487201808303665 -1.0532493246969734 -1.8629982107393075
Ni 4.642670862444281 2.8141272514463025 3.2282674797216213 0.01542584763676698 -1.5614039532657302 -1.1624813569526238
Ni 2.6493172671671257 4.3957604402578605 10.936619083504464 2.6779579515586205 -1.1849718247456562 -0.3474226286616016
Ni 5.784684631324236 4.516419289763179 2.309422746279395 0.8354581178829804 0.29671790321788255 -2.311083127709678
Ni 6.583235057448346 2.9068224850726914 12.763232005247701 0.14450911029038982 -0.5225314661157194 -0.7637953021303556
Ni 2.676653316749101 5.0172725682283446 6.497110812107699 0.9803729482522213 -0.5424395178935562 -0.5262186851593196
Ni 2.488051186682506 3.7345639729212405 3.417615306211655 -1.1657901096108825 0.43591948525242985 -1.3615312786033713
Ni 0.6351958419188957 2.9157007023913484 1.729345683065223 -0.6524248833754636 -0.46534936047777276 0.028637204120718424
Ni 0.576975224502321 1.4198226022751708 8.497402706532636 0.4670046366930086 -0.2248743389130192 -1.1350939660786064
Ni 3.8136834709179586 -0.16941244475403572 11.255664559959165 -1.1482227901510804 0.7528801978797486 -1.0610477376954697
Ni 8.374955293081003 -0.1462054122493645 11.384161527935099 -0.9050506813701381 -0.8067928887378041 -0.07104395122170346
Ni 1.6805948564913444 5.406059118106769 8.576570194893238 -0.07805766353537524 -1.2958280228682908 0.19983565077683646
Ni 2.7060104989639107 7.466737656564382 5.4851057076660465 0.2839824579290851 -0.9438879659523098 1.0486187679034973
Ni 6.1364816853469675 0.8128607834778614 10.655082690883669 -1.4961933208963523 0.26071757386387356 -1.2923768310948969
Ni 8.224948490277008 4.821841040224322 3.3220628001509045 0.7634847128684722 -1.2818242523900312 -0.661133466893055
Ni 2.9356720769002598 1.4295314220456767 7.626348069494982 1.1740474645236683 -0.9790966526429588 -0.7356165257032944
Ni 1.1845406144146409 5.536685197034279 4.584455782377386 0.33958976288074416 -1.4460462677283161 1.1805862940834508
Ni 1.1784218430193505 5.370933863309673 1.9614436948603302 0.13513486816434148 0.4218126135374026 0.45474047461367484
Ni 6.4541502075148225 7.852146423138619 9.007471057755264 1.1626909018602687 1.0617676465806296 0.16059110345391697
Ni 8.086727013373142 2.0116268492178424 10.223033750854865 1.022687392749716 0.5526550249739773 0.13383594684725983
Ni 4.9710356984087305 3.4496857897691724 6.917692823842915 0.2087229259641373 -0.7671883869723046 -1.6041693692577148
Ni 8.549649446537188 6.405523048417108 8.44079345787265 0.48451539188326237 0.16673064069275156 0.0341866731840379
Ni 3.720231466168774 6.42021548289871 11.510361418685864 -2.035670670837791 0.6674583806698183 0.24861821949717824
Ni 7.387562785070874 4.475359841893425 10.491643200650046 0.012029677471024444 0.1616560543833216 -0.26181980578911684
P 1.4252953495412448 6.0528677051941315 12.330695778447145 2.0015963548619014 1.31278187711381 1.2081258942646163
P 1.5027905582987906 0.5318384414856002 6.057065939142424 0.45680892710692944 0.2529140186590548 -0.09604124459698943
P 0.815083106482365 6.2696734029590795 6.745499706658411 0.23672018250801166 -0.7185639410963819 -0.31059234720712964
P 8.8907132710988 3.5006201778998016 4.951953068523298 -0.44593316073469014 -0.3933276187238323 0.2948158010991632
P 5.664717950528793 5.616949080631322 6.101275216087913 0.6549108830221108 -0.4205574009740628 -0.4266527152385232
P 3.8760063415550556 3.9537045864674982 4.929273930021357 0.41285668989569546 0.07527135903948971 1.2840634261331951
P 7.624681327241604 6.788947598023038 10.454078743319352 0.166235703334204 -0.5214068655929729 0.5702848222405985
P 3.623798521509062 2.9646601024698023 1.0624863527902164 0.26826710407635734 0.727559716837089 0.5910320820902788
