# total energy = -340896.36785690597 ev
CRYSTAL
PRIMVEC
9.01718647224909 0.00000000000000 0.00000000000000
0.00000000000000 9.01718647224909 0.00000000000000
0.00000000000000 0.00000000000000 13.19756387331906
PRIMCOORD
 96 1
Ni 6.168693359996271 1.933834836045631 11.222178964662612 1.9077287208774631 0.737253032865453 0.04060260401271072
Ni 4.734600017501845 0.3549489228911821 6.128104298360393 -1.0182679235257817 -0.09200204153060929 -0.5597250444468812
Ni 2.6691413099748815 1.593463096865946 4.824660069485605 0.48190366529202816 0.028563670570305646 -0.64485606988927
Ni 3.204194105897868 4.410134595325179 4.930926710783157 1.3947681862796302 -1.0851734270990796 -0.685399024308639
Ni 4.899948166529262 4.496167571813731 2.6884101358273482 1.0847558799456865 -0.0674174102127097 -0.7791923534117162
Ni 7.213379503071546 6.075221204637259 2.564273234304977 0.13035030229150454 -0.34515465856303135 -0.33894595864915816
Ni 5.150499710886342 4.426843441927557 11.542074476716188 -0.47573636013905163 1.0396142504120418 0.296292899865322
Ni 5.534767113994993 7.834907117622058 12.404178823906808 0.17712201122940463 0.366876109400523 0.14784203131836474
Ni 1.730479245880048 6.377828966714538 0.591147811480856 1.2156358294884162 1.104195476727537 -1.429810265485428
Ni 2.924435894436037 1.5709111134053162 0.4907820170352184 -0.15200053357142854 -0.5369170454134301 -0.6868316429901075
Ni 0.4594959867213435 0.12193941316997062 4.780328875448223 0.38397343120244193 -0.6693964782327956 0.5727847058443167
Ni 8.731260542613622 2.2999686770833803 1.2602041144050713 -0.644721858304251 0.0661835378056086 0.4405567269141251
Ni 6.685720800086472 0.8459329249042167 4.829846755165955 0.6379979093168561 -0.15947061669622858 -0.38766502112141626
Ni 0.7788703053946621 7.619008621021554 2.5024955878087267 0.22892434061267672 -0.572623240565788 0.2247126165241743
Ni 7.646366764891826 3.943919001216846 3.7567393419309205 -0.026396487715657765 -0.3531263639145983 -0.3021763552292925
Ni 7.735140966079311 3.8812585721613018 12.560728904056761 0.2105769484537406 -0.4050575055662508 -0.37929967987585644
Ni 7.772616393213409 8.817455828459348 6.919694247045563 0.4160839385837415 -0.7710013329604914 -0.6540331084028478
Ni 6.832177943376175 0.7273109346511455 0.5414369639718173 0.5595617793961396 0.08330348531534686 -1.1973763690575958
Ni 1.739189848048368 6.476585193368204 9.158304576805394 1.1457578735503557 0.22039342032353013 0.15902144497395193
Ni 0.023129985115898217 4.838685401382712 1.310169246573682 -0.31339125010850544 -0.4272769790860835 0.4750948699003108
Ni 6.476657330860282 2.220905985766786 6.969752256235225 -0.05344860673744343 -0.8994603317665542 0.37320385139076373
Ni 3.408676844377157 4.191431753720175 0.6200965870514302 -0.607667890874747 0.7129792479197528 -0.6189982282859017
Ni 5.728348073984118 5.432223669007277 4.789620184427764 0.8044056194525501 1.4675450610320404 0.03852978064408204
Ni 5.403476878414518 3.018954043430168 9.181492271914953 -0.44453216662210543 0.007603266268554647 -0.3070905047014582
P 0.2241952099080305 5.6597272846456965 12.386784671129696 -0.2847843850050902 -1.573320759307974 0.36773434363576024
P 3.9042884665069426 6.060369898455869 12.693231951222783 0.35330942645968183 -0.06391736747925121 0.20649712195741213
P 2.4522238712987883 8.547580453412092 1.2698245506922148 0.16492109828783855 -0.655669101344374 0.949556734202313
P 6.273635376595555 7.73978481713178 5.706481396698222 0.5106547692827915 -0.7690616927356174 -0.5037225609393324
P 4.822256087562133 1.041593248102466 12.495545466215816 -1.0335392478625556 -0.9502984974643439 1.5961513840492447
P 3.8949466612829475 6.106276394976487 8.17788392198438 0.6134896397628467 0.40789806033883946 0.15578031232883494
P 4.715988544545931 1.1697905887101323 3.9215635924221264 -0.2573460862884794 -0.8411045175354805 -0.36431709042409516
P 0.29221184775030573 5.643063523975867 3.4741398149998997 0.06285575898395626 -0.4672841156066404 -0.019898024475507668
Ni 1.450369364144341 0.985046471500463 2.6563792859077764 -0.11700550555348235 0.9361335188178715 -0.2108659404490691
Ni 2.023844391784938 6.424646199072631 4.786558849607739 -1.283287724309435 1.0687031973581984 -0.12194999404295127
Ni 5.871730356674032 5.608049788758903 9.139986162411043 -0.02898378882685976 0.34588228075767524 0.5224677027573196
Ni 8.654434113551421 2.1748552142620134 9.996362792730734 -0.1538177892858254 0.33269843507754965 0.5079957343933896
Ni 2.3429716395478923 5.151257154553153 7.024113266827288 -0.16710113665829288 0.6815349133675423 0.8716589932835698
Ni 0.8507462990630668 8.858213511482957 8.805783982241259 -0.1399780551892557 1.0490178031141288 0.901973327996395
Ni 1.4957258122878707 0.987607352469203 11.186862251978924 -0.3935965561145027 0.36920655730591256 0.19902935282545722
Ni 4.087003716751941 6.808246330379569 1.605404556960673 -0.02916659426162719 0.6432735558934987 -0.33595627989321497
Ni 5.645092390940538 7.74822490370481 7.8036273993387395 -0.371224873287522 0.2017866038556202 1.1652992860173932
Ni 5.292854034314156 3.0898471637690212 4.931758095379347 -0.5645139811950923 -1.1157708402699622 -0.8395729113823024
Ni 0.6906822213303042 7.319674097647278 6.917186567477231 0.08227015895482606 -0.19237379518215256 -0.6146296669045608
Ni 5.147424850286551 4.487357780593805 7.055932212863884 -0.5452942137335319 0.41329069210932046 0.3140394252154656
Ni 8.16152764737453 7.301333140286654 9.00415667514161 -0.5489305249345385 -0.6936725771713409 0.002957797076743293
Ni 4.5722726259551605 0.0633962314747316 10.47981564057091 0.5569811631531569 0.9066859029807159 -1.6003602799242698
Ni 8.22941804460567 7.066137864555504 4.62553534323035 -0.797749290478297 0.4974999770683884 0.9200168157616672
Ni 7.236914359861728 6.0002432988095356 6.933960337822478 0.07916760877010236 0.8403835802090559 -0.5000985910335
Ni 2.302565626798159 5.194485546680406 2.5429728363318858 -0.5090295749745426 -0.4815581090271513 0.755850336251666
Ni 2.340185328916411 5.025467402743562 11.523783113881368 -1.3741011448485818 0.16309818614648686 0.4587976754021841
Ni 1.0395283123917565 3.484484331363768 3.968256387606386 0.4626070218459452 -0.5156835899559505 -0.9066092841065095
Ni 3.719508280551235 2.4977426287994913 2.552065767208215 -0.331681563777261 -0.08589104353686497 0.6395935359387501
Ni 1.0276256261990209 3.317612277816221 8.234263880635956 -0.3123540670932427 -0.1655903564407213 -0.39914422540560934
Ni 3.762051366503754 2.537400215068923 6.865966242946477 0.004834445274165868 1.0237438590386885 0.07969211381500468
Ni 4.133514364768706 6.877741786809427 6.05780090201927 -0.277257994721058 0.1186247863244602 -0.41628577018190244
Ni 0.4951400232753313 7.305003135196079 11.18521300856631 1.224083188924821 0.7504001117703722 -0.5471873169911867
P 0.23474982671757355 5.443522203703865 8.022838810262888 -0.3082495580065659 1.0128650073426557 -0.9085098435633321
P 8.505668570515247 1.5123805557711907 7.842229974786543 0.42733482890721236 1.0163694209514882 0.802991769824159
P 1.7619311924257004 3.190587171454809 10.30709954844646 -0.8354907708931287 0.023098276580360216 1.864302788483344
P 3.9481390445033613 6.122399124455738 3.717410882969091 -0.3723980676600167 0.8882500648730315 0.2908210781174733
P 6.9009159561392215 4.003098796279666 10.487589357060877 0.8704132938019267 0.2930913622088888 -1.3570663008534822
P 6.252048232091457 7.684058604502156 9.977121018437796 -0.07966717411434023 -0.47469172092462125 0.9415788582031591
P 2.3547390679429827 8.407137773524322 5.849582343169034 0.1507275803962759 0.2829175069996805 -0.316317679726681
P 6.864360282029108 3.986191571574076 1.4791567320763923 0.4608136773909483 0.4516266115750416 0.7256781835436599
Ni 5.25021175931003 2.8632813355276037 0.5217542492585575 0.43490441372435423 -0.5472886184557413 -0.9544243467072596
Ni 1.7015070256245488 1.1800972328906598 6.9755061229470305 -1.0984364627565726 -0.048140307150652574 0.2552256975113669
Ni 6.760518362184001 0.7186733716935537 9.098717204912338 -0.466905392110983 -0.1358079829719661 -0.14122015512647293
Ni 2.8744175608670197 1.7856283585730557 9.239773053482761 0.681400187561891 -1.3988829797789522 -0.6433524887605501
Ni 6.2908491856424735 2.1066672498760552 2.553636561098196 0.8343324889189696 -0.16940664486301793 0.8344055082487501
Ni 3.8670565034086057 6.617478732581455 10.572661101467503 0.9570867240307711 0.4296699047982923 -0.6607940812757652
Ni 8.247226987962224 7.321982497393748 0.24731978471202293 -0.4043980176053809 -0.1883155659523789 0.4074671434490079
Ni 7.614346735596066 4.025317143839438 8.231953677452182 -0.2514011815589542 -0.9695180078155882 0.510725731730043
Ni 3.140541786326262 8.379572234364328 12.289637110549352 -0.5767645164276711 -0.30444869620323695 1.3056329247738547
Ni 0.03871258512322102 4.9021754115971445 10.118004638745886 -0.32734411274417174 -0.6662409633229494 1.320218021676881
Ni 8.69645420268638 2.353548799323709 5.697836619991422 -0.07041043140276261 0.41634027756892167 0.8118679892678664
Ni 3.7379574441499748 2.692306462118167 11.487265311954594 -1.4042146764045105 -0.8126537183939553 -0.08187343773703964
Ni 1.3455175194101534 3.106438786946773 12.68960253365265 -0.9286449237503103 0.062120166369512377 -0.3860038313689094
Ni 3.176367068329094 8.389049297385968 8.01762597474166 0.4187398881493498 -0.23575756148442625 0.03302144923134313
Ni 5.615362727018228 7.6831659030377 3.5691358748790423 -0.35096175216311165 0.41236612341252205 0.30979504811681485
Ni 3.1741939263802688 8.375911256641412 3.687756061694811 0.26834809382593783 0.12688316967851052 -0.23535569806031725
Ni 3.3527522536443195 4.39167641453993 9.471442609288639 0.8820678473217196 -0.08306385850071502 -0.8895253320410293
Ni 7.058274877919089 6.150099921413378 11.451236241536645 0.9787256424567854 -0.27583771733476364 -1.269133801406556
Ni 0.6462112609020219 9.191849412339936 0.17804524935165178 0.016296166056862255 0.3121283242356818 -0.002573160043814923
Ni 4.732246531822827 0.2450708983965167 1.5876929992184223 -0.7419656078497738 -0.12556933596309344 0.4407199919648667
Ni 6.022046855789865 5.702847470534833 0.29990891815494136 -0.396272303174453 -0.3810948241030663 1.3006884362843858
Ni 7.720433934882076 8.76201816579803 11.266733784925433 -0.13809343657203316 0.0007386779382374375 0.014037194819356467
Ni 0.18512013388712165 4.967045051347553 5.778474613791252 -0.49704797713263427 -0.45841740924462987 -0.046995909133564225
Ni 7.700091162116309 8.764398703036578 2.7858471480946525 0.4283594135169848 0.1881885534562114 -0.18954506748410582
P 8.445460816190327 1.6366013171281022 3.597748309392806 -0.38140515625463345 0.8787344120731124 -0.5985826407440271
P 1.754023119856739 3.0923268900591743 1.810217324466215 -0.06610151961476357 0.3784028790931999 -0.8923139505297599
P 4.704816250460477 1.164488483042459 8.179018284047293 1.136777010207984 -0.8561891797827447 0.5800149050441687
P 8.247515537930534 1.5831203839393797 12.175478627618558 1.1261681243438864 0.6683392406128748 0.9018018354155373
P 6.390038237248603 7.717548435198989 1.3522488491396056 -0.6761394533835839 -0.27476325332366225 0.11843683868337021
P 1.8170081676266308 3.283175642535875 6.157653618552509 -0.5483643680184234 -1.2926820210401415 -1.1752790229379242
P 6.986948932627774 4.0395823328977025 5.895761158722244 1.0338992023051357 0.02755734079297835 0.3003688697069085
P 2.544244259629746 8.367876943461315 10.185101523564178 -1.8235307487723045 0.19998348920861045 -0.3526694788828378
