# total energy = -381176.84264896275 ev
CRYSTAL
PRIMVEC
9.20185336771060 0.00000000000000 0.00000000000000

0.00000000000000 9.20185336771060 0.00000000000000

0.00000000000000 0.00000000000000 13.46784254123611

PRIMCOORD
 96 1
Ni 7.697690904638234 1.2469155595207542 8.136166584445267 1.123762343115871 -0.6424004092599259 -1.9540286323852671
Ni 7.811287785849417 6.014184204903161 5.234896717199577 -0.8324473560811146 -1.478851487183795 0.3143947516723553
Ni 5.229937838359179 8.38918258810334 2.59203421956592 -0.25864809292935453 -0.7409965590682851 -0.1846175482755014
Ni 6.8667267279760535 0.5420324186861355 12.984306639322416 -0.5284257201129674 0.04028558699292417 0.17332192075702407
Ni 2.292917850158158 3.5291592596420576 8.981084451724591 -0.3109384176926387 1.149329135841382 0.42832238963146235
Ni 2.5815891956807184 1.265797762861811 6.04281945274772 -0.3731565430925961 0.9582804872285561 0.5065443466588438
Ni 1.1049493640305863 3.3668937753749058 11.232477097683342 1.0248738588780737 -0.3906053346966628 0.8565383355920475
Ni 6.60871595824901 3.243450910940073 8.316285504834406 0.053180954898353575 2.1604321661876082 -0.026109038382226005
Ni 0.7152941178619441 2.485448230521185 7.470396842012936 0.5481154852324108 -0.6320807725014727 -0.4444905147508925
Ni 7.51952461755756 9.273903992795956 5.83410761304003 -0.9947999223108286 -0.4685092462629931 -0.33191784815778325
Ni 7.065910048405154 6.78415849669959 11.57427718464365 -0.33578787263615073 2.1124209284156525 0.8541950321708515
Ni 6.766196478706537 3.1277191997215192 -0.04164022736790953 1.8849582599501669 -0.5788825912119385 -0.7420684519762252
Ni 1.3375538162992189 7.517049318971428 8.7767775392778 0.5657838490464514 -1.0075055428029551 0.14992693887185146
Ni 3.140537381619225 6.044412293585117 9.975401771735266 -1.6144051880531098 -0.5662903563692246 -0.09041618510072816
Ni 3.5926152412404635 8.74587403455041 4.808369644136386 1.3285921046731892 -0.16041061201199472 -0.2788381947239843
Ni 2.2524388966994304 7.053846418492813 3.917027505864875 0.5413344577548355 0.6262675082538053 -0.7697751738628742
Ni 0.5829907887111736 7.8919328297485505 2.3985284427340074 0.7032568784256662 -1.57899929774999 -1.2598788584671916
Ni 4.107136878577302 2.7415174091639387 5.3081480718274925 0.1059379348854111 1.0016195163358232 -1.5622801852230965
Ni 8.059029287092727 6.044219054662035 9.415126678524937 0.16499591738983196 0.6537330606639258 -1.3580785441680805
Ni 5.305393036895566 8.030982037685543 0.214901926543718 -0.7428423540277722 -0.9363353504160327 -0.592581943075902
Ni 7.399127566624623 1.2822690805910955 10.367033576031423 -1.567367884158649 0.13903420321874765 0.2507998005295294
Ni 5.406447791813445 7.324012836666998 5.559579516316301 -0.16199235467681777 0.6874551355067193 1.0734072877020868
Ni 1.2908544098879795 0.2007540768181455 11.944926002449254 0.14225193882509693 -0.3642132178563792 -0.7792232066496516
Ni 1.9445172736966116 8.150983408918838 6.489264857853821 0.5412362416140742 -1.1733776921501535 -1.2015567256875308
P 8.459751602441822 1.7254671516040885 0.9029107084666261 0.11663063871256688 -0.42520724104124835 0.38896111422502044
Ni 7.858373670106817 3.53542572186197 2.085738119054896 0.6562992787292052 0.2769497194520198 0.9818071095955866
P 3.7138588626935647 3.3153633958866413 3.052243757107476 -0.22342346539910551 2.5923160479180836 -0.4646412786671547
Ni 3.7048870555505187 7.633489572907945 8.051924536020783 -0.15719544750880668 -0.8892587086432039 -0.9142863410357932
P 1.4430898738618803 6.002488649130021 0.9864377728757106 0.23092234487931199 -0.21930275836251265 -0.12486382525563658
P 5.945970865055572 0.10250128628494164 4.303703191876678 -0.5800015353077302 1.405220491961206 1.5339160322581067
P 6.9043715105629255 3.3515082763562667 11.129420939633553 0.8344651578420921 0.3066297630149558 -0.002028343283938442
Ni 7.314240468271188 8.340863655479613 1.3329390867789754 0.9956802680332529 -0.473249846271772 0.2509401827621356
Ni 5.642134864997893 4.021936917205545 1.6660802296145598 -2.0730506541481457 1.6011498657051007 0.7433300922974682
Ni 6.30853309402291 2.1434153366678315 6.305536050344459 -1.093792536226658 -0.30841719393268174 -1.0544322892614808
Ni 2.935970976904296 8.403463864704374 10.590155518288865 -0.42626165044769165 0.13560306605001163 -0.4050294805417928
Ni 0.6870839956481634 1.273784971682492 9.739499375179385 -0.19046089443015585 -0.2372760550114817 0.3656728331210412
Ni -0.20083413294342187 7.523913901667544 13.191967627362686 0.011212066665735529 0.13446998088683293 1.6125928174347197
Ni 8.072684837657118 6.225559981193325 2.5562233663776204 0.9559613521770762 -3.38048540801743 -0.4730688406092176
Ni 3.3671146198584267 5.113709227052704 4.4317147765643545 0.636272184875001 -1.8518969586198235 -0.8409877894519581
Ni 0.5074932616487784 0.6397524219028446 5.397291947600797 -1.1886323043163787 0.8387828113808393 -1.2711045519796818
Ni 4.218240057495391 1.3755850767322542 3.321924317417915 0.7150237891536073 -2.500411194086971 1.4263932693840788
Ni 2.2902953219163447 2.109764158491299 13.08949026589679 0.3333352973306001 -0.13592342550390785 -0.6249374765884721
Ni 3.813726578512517 6.246346968204752 2.0406205112568765 -0.5470497629720579 -0.18968776370955717 -0.12667182499865282
Ni 6.410609254677074 1.5301026003692066 2.075798276925749 0.7729669413272946 -0.7389414763114692 0.15794440985968927
Ni 1.23829342280995 4.85744680948687 2.8728655859234804 0.01247524964887529 -0.07269228545840385 -0.2477586997103604
Ni 3.0171589301587525 8.645251766746094 1.9988974672076465 0.26093868873574416 -0.2567948417706997 -0.7017517546350496
Ni 0.055680415407765534 3.880044336543217 0.24421627117510436 1.4558735382313832 -0.012219167774011212 -0.5539781146607751
Ni 5.842910106079042 5.137992918386548 10.486264752128438 -0.39400021931082463 -0.35837912767310537 -1.1854945300183455
Ni 1.870267517966111 0.5984213768118647 3.612438794192529 -0.41525732891738804 -0.1166596921782894 -0.08413240897454544
Ni 1.1625345631087216 0.2582003279087321 0.8452298101122984 -0.9882628925232594 1.4528193247860917 -0.001362684675481524
Ni 2.3086622214625185 7.495470972560717 13.022487889967177 1.277077224623349 1.0757886434500699 0.8221531732439582
Ni 4.537167097260347 6.820607038334057 11.650196156595431 -0.09562395455391273 0.4243299806426176 0.551786763436411
Ni 4.540930655333686 0.45142820876554696 7.002995135791376 0.43245569507354553 -1.1303960463823048 -1.0843591587279002
Ni 8.769219136829289 3.282687614178994 9.557184892549905 -1.396568986933795 0.7308137049980122 -0.7954067583880495
Ni 1.9439191532204085 5.3465437256583375 12.294012116995065 -0.398211686289011 -0.22345431863704093 -0.10463181447947786
Ni 5.141158355983684 4.727562647616003 12.747178555882993 0.212793239378769 0.2533518775274217 0.6954998601880666
P 5.116386966415397 7.287739130248652 9.513105253824435 1.1860264912624154 -0.4520305318816796 1.193283429935145
Ni 7.546320414891458 5.64740752704196 0.27084919570240495 -0.7783567448842982 -0.3036979340801415 -0.2796902583116344
P 7.188763994217264 5.2703339751365865 7.59023350006894 -0.12008080204469641 0.6681821462097203 -1.1244634829479538
Ni 8.65807915049728 0.5588920546322781 2.9070605936406837 0.006766629299872217 1.6271375480181136 -0.16437345331448464
P 3.2751973054462358 6.344493937422935 6.128810773518762 0.40180865961164985 0.6123604112544099 0.9656595533014466
P 0.927832088246638 5.195265254446362 9.963766028009745 0.5742206669598949 0.5307006321900731 -0.3609520306066042
P 8.5102605761938 4.208200835348659 4.026184492771934 0.7194537999005028 1.3090617479497453 0.6403813219473681
Ni 2.8198435859861006 1.935030162758683 10.424743000131539 1.03670350452315 -2.812151538855615 1.307709347686909
Ni 0.5218021438102518 7.192555157851043 11.116801517771016 0.7900038422049233 -0.7218418405167052 -1.7014863952433341
Ni 2.5108545479795956 0.5139327187141155 8.441792345004814 0.30387405464668954 0.5134022501209415 -0.28813196132108443
Ni 8.171181477307542 3.6940564740045034 6.420793866108791 -0.1505046657521924 0.3247601540670794 -0.6253740499052585
Ni 3.1325685765055042 4.145674240951739 0.6532911089280382 -0.33433699912223713 0.576146423227698 0.37757164144115624
Ni 6.413314599600207 7.990475478666376 7.643956681241498 -0.0985033329842368 -0.39274706363001394 1.37950791768645
Ni 8.784457406192248 7.388481022148209 6.957595031091519 -0.2558633310953658 -0.17435421867628037 0.8485285779136935
Ni 5.673467176097454 4.715002117615739 5.822754366216348 -0.1211866335143655 0.006817537142465678 2.1437529057597144
Ni 4.455316610555327 4.969405760778603 8.394344827905647 0.5407788423616816 0.22806584926712337 -0.8131645965921028
Ni 7.939303971463833 2.2454454880545947 4.578904864275145 0.36282353659770417 -1.161576328639851 -0.7300488018075298
Ni 5.002210368434972 2.801255841956405 9.838232502464248 -0.46816754665285826 0.4322039840740557 -0.8524451393592802
Ni 8.413309847928023 4.96661759917415 11.415370376896716 0.35746021540326184 -1.2379512051561647 1.687409348324978
Ni 6.007678494492768 3.4366806321675836 3.947922728924133 -0.19894064976639286 -0.49567552226513995 -0.48854636741952634
Ni 1.975941603330973 2.3665878891194163 2.104727063896321 -0.5427917590266523 0.34821298577338095 -0.21636038790473708
Ni 3.5928912968448645 3.905303424345947 11.190605903793083 -0.7189938295449488 1.2968994015555988 1.084494398754184
Ni 0.5275891894638535 4.88476711246913 7.654946454852719 -0.2700373086029027 1.2577767245225242 1.6731404971107895
Ni 5.335170234756999 2.158322339305508 11.931781154753006 -1.9273351822544809 -1.0852803849905892 1.6943600686111981
Ni 2.6313160118868937 4.2355303401844 6.820115659358223 0.0824935878195418 0.7430809524011396 -1.5905970298899186
Ni 1.1554123285151652 3.1570271030554693 4.891183564900767 0.13087095068166496 -0.2781694507917339 -0.1616059178716765
Ni 8.76761801432376 1.6884941043212587 12.177313290975757 0.6673257117466959 1.5191563574504288 0.8300055794088415
Ni 1.162810618713123 5.569955526300403 5.447122744751296 -0.7226067437071878 0.2640031865936808 -0.02903469666945322
Ni 4.145619029830859 2.7488604882410166 7.4895615422558315 0.6816560123264389 -0.8599851564900673 2.0562523516438844
Ni 0.14655055889392754 7.571036593338865 4.64419661564282 0.7776496915149446 0.9022000992952204 0.3568516352849854
Ni 7.40064587244883 7.895309909975728 3.654607207950193 -1.5673424302373522 1.6755714751497852 1.4699526420322684
Ni 8.5684622994551 8.557631717909084 9.24564694112943 -1.0830828631186378 -0.6451054668959147 0.4511589279100036
P 8.153421900091052 8.769200733122329 11.503786386059748 0.5131914196617161 -0.1396381553513337 -0.28470390947614194
Ni 4.296768675094114 2.0390755200575765 1.164187215993738 -0.01249710402574622 -0.2684555659380796 -2.2013633571843316
P 5.998623870668401 6.340261084822113 1.6923285166663944 0.03256893507495681 0.26657120443117316 -0.38843403807695687
Ni 5.1634728506727985 -0.05099483161572551 10.825667756257195 0.4597129881276018 0.14855396978372482 -0.1762306097633868
P 0.5495457320525942 0.2847900037246764 7.401454715369727 -0.9184440719579086 -0.2381119206492157 2.6990718507191
P 5.581329017201741 1.1593691255115852 8.63603887104187 0.6181127403571549 -0.6762752076304999 0.5088804509911881
P 3.904613285334943 0.3478355826578717 13.162365264717375 -1.0184545856152913 0.41120732721773057 -0.500288595557119
Ni 5.650140477525534 5.927778800725519 3.851358478504518 0.3139648632237883 -0.23599461719589676 -1.892337326023057
