# total energy = -340897.4034024458 ev
CRYSTAL
PRIMVEC
9.00203287018602 0.00000000000000 0.00000000000000

0.00000000000000 9.00203287018602 0.00000000000000

0.00000000000000 0.00000000000000 13.17538504495232

PRIMCOORD
 96 1
Ni 6.4894575588950465 1.9435749309125359 11.424771734886155 -0.5930629964773786 0.2501002033593434 -0.01841964015776828
Ni 4.625001495941373 0.33947386572113747 6.115868688747501 -0.608503756512481 -0.6588032760979815 0.39058039499599834
Ni 3.0026281041846206 1.5722590740952453 4.784852396171105 -1.5024688694924189 0.1034899875655508 0.10050236569213658
Ni 3.413534902096811 4.10771767417324 4.623914950559346 -0.48192834788237643 0.7060167005589906 0.19380024321603398
Ni 5.019362557215905 4.563130523193477 2.4391458491061124 0.8207760903907735 -0.31509717705601864 0.010471074734652934
Ni 7.2335295978082055 6.073833695695515 2.545088974971884 0.3778958575497943 -0.5172586477525543 -0.4164464641294828
Ni 4.582169822969673 4.55909761241346 11.088232531920122 2.0504781681642683 1.263776907970017 0.17940849327073619
Ni 5.554398388042506 7.910131399452996 12.493532700535853 -0.4043823338760971 0.11075592509934475 0.0993386844013386
Ni 1.787506684945668 6.495272872207304 0.5220657016930107 0.629913846757141 -0.2870857794447572 -0.34989551568212646
Ni 2.678176831119047 1.5386454829064418 0.3001178776873052 -0.37614133675253286 -0.22710091425069273 0.8878960239677225
Ni 0.47393093108624834 9.095924195206914 4.893456522989049 0.48102897599655864 0.034394418319469794 0.18226935975829897
Ni 8.695342729135525 2.135723325107771 1.4280933161492229 0.3125060192900747 0.7644907855354834 0.18397708647802508
Ni 6.711267651795987 0.662699061893322 4.984867666997271 0.7903853939140582 0.7059228552936035 -1.5117988886440932
Ni 0.7949605314119013 7.482435810012387 2.624246551672608 -0.2377617363986486 -0.3712084182272897 0.6529789561067206
Ni 7.566379767654484 3.86279936258412 3.7856042290754575 0.1516485495486485 -0.29436457249435755 -0.5872422760305435
Ni 7.615971967402507 4.006183744066514 12.568263077411551 0.938673511630906 -0.9599866712863854 0.1982701060619295
Ni 7.741532323562504 8.735752855232617 7.030964951238956 0.5779564798532434 -0.16454340323344566 0.08440957389533203
Ni 6.89113727299135 0.8718243901064909 0.4073500946774032 -0.6157419261321331 -1.4793561947343556 -0.19152121737387018
Ni 1.820211070802369 6.4251560372395495 9.104942431857408 0.09418696499707005 0.0061706475870861475 0.08770469970683605
Ni 0.15953492887174417 4.672667260629298 1.3181046766572468 -0.6960233367917046 0.1505162357164182 0.7130520101392172
Ni 6.23475403744459 2.2120515628393895 6.989792352947519 0.7869095195503157 -0.6332570521977611 0.16116805900330952
Ni 3.413894983416456 4.129178520824046 0.2789937070703673 -0.3005210790140566 1.1516277020675714 0.3598693390653867
Ni 5.890570308062505 5.628413103295409 4.7058127461025645 1.1158999096486588 -0.8055644156473416 0.07766017098664045
Ni 5.3305268295866 2.9305308219588238 9.294799808656405 -0.35151428223247205 -0.07480676069824536 0.01769201796312437
P 0.36326443851004203 5.5019615458692925 12.427800755838069 -0.7287442240634933 -0.7871614876601217 -0.7386172602028311
P 3.942098271202805 6.221422026584757 12.519514368154795 -0.22947224269634675 -0.6469101242048214 0.26905848962940115
P 2.299659347908869 8.410581419527755 1.489661820588618 1.1064703888046428 1.0468467636047392 -0.4438009448830357
P 6.288073078850934 7.69663918503584 5.7240462007764625 -0.5928151421326306 -0.45184001313742833 0.6785676032091024
P 4.718127527234402 1.1453286574588797 12.606221949925162 0.30497114436561024 -1.088119911321913 -0.17027439217995194
P 3.957383723221709 6.148244500400027 8.192955471561081 0.08805565528835158 -0.012000109784669656 0.008156053448231114
P 4.775344448925895 0.9722285650728323 3.741638299946878 0.8161887281304072 0.27778738486196675 0.7752955894604712
P 0.2270195693928967 5.600137717670334 3.4934801566842575 -0.08941422619877505 -0.24892958009000998 0.4836358174917864
Ni 1.6023078602195695 1.107115027411619 2.7621531960799124 -0.6745903637289091 0.44990988599425097 -0.461027078953335
Ni 2.0589719918255702 6.414830705398747 4.843706787663682 -0.1906007624421298 -0.008978035128894214 -1.1489285579688535
Ni 6.156571380916803 5.562779280757229 9.121886058353274 -1.043875853901873 0.011873868619450518 0.8274735570156071
Ni 8.579270515748158 2.4416664183436234 10.208947256870598 0.41646060519686984 -0.16880449250264476 -0.13473017652675506
Ni 2.407665739736202 5.195541344884911 6.911951773673393 -0.3449713389076317 0.06546028648633888 0.07086551666231021
Ni 0.466359321137426 -0.016730278313977266 9.148236809324851 0.21242942828144706 0.1554859210168677 -0.003602886859909924
Ni 1.3931366216381458 1.066785919611448 11.383519918704396 0.3033737179715033 -0.015408878355902494 -0.5826718830510418
Ni 4.104918041913005 6.872998176514264 1.5503211196959112 0.1149707345116407 0.4068464791458735 -0.4632531400703764
Ni 5.612326470340296 7.745466211979619 8.071768303028165 -0.6624164473705365 0.4158628237118709 -0.24416044083614083
Ni 5.40288517076914 2.9539901199336556 4.77945027617314 0.3698344206978985 -0.5414804964143964 -0.5434101093369416
Ni 0.7460866938965688 7.2414063766754255 6.744571573049897 -0.31064042683624565 0.34554186669912107 0.7452568770065358
Ni 5.153654885377278 4.6290254046884 7.165472427988818 0.08667934376611523 -0.31691777520452513 -0.6640735233579854
Ni 8.109922519657683 7.038590573385725 9.25108323584168 0.11414052530086148 0.8797440842845494 -0.3119030955987532
Ni 4.5079750670569485 0.4626630863912764 10.394838337933713 0.07866418677112258 -0.6407016814012643 0.47483261737785964
Ni 8.105853600745702 7.233610616105125 4.626931531814667 -0.15232577812133122 -0.49248118369755833 0.07500139320755471
Ni 7.383719516231878 6.210232499576808 7.036538109863753 -0.9255081778935416 -0.6193993203790622 -0.7491999208146839
Ni 2.2153463069141357 5.192003545919405 2.5779752018950055 0.877747622679811 -0.07089354168676823 -0.35512153996775614
Ni 2.2999654170305663 5.379623917520113 11.287405212458319 -0.13734730243462798 -0.9429816520879565 0.39176618777398337
Ni 1.0107572662747817 3.471408972196655 3.8205195142347756 -0.063355067217878 -0.9071553864179667 -0.5650639401612914
Ni 3.770285469534486 2.6098423986835333 2.5642993133749115 -1.0569519703595411 0.37353552369856957 0.1265520115913369
Ni 1.1035052121821842 3.272139969905452 7.94296541458477 -0.6484584425285477 0.6221025782428382 1.3993900013223577
Ni 3.804349162372845 2.7037696109127713 6.686112370805631 -0.8536329890197943 0.09278828487733051 1.4695605488001724
Ni 4.2612293427706325 6.740299208192317 5.956473291387119 -0.7423217056376119 1.0539262961593399 0.6207527490831631
Ni 0.7909051155494063 7.283274832117076 11.278986511205032 -0.7523631490340139 0.5287121410051346 0.11682527122187622
P 0.1723376201917003 5.437705034378751 7.985706167023259 0.9636859745148435 0.2715038658461001 0.004078798055063944
P 8.390605908320483 1.544073708800081 7.968222418547926 0.46640814075959025 1.2622108490344779 0.35744813121840374
P 1.8189057760186584 3.0380691080706193 10.35054293439766 -0.9138914195902197 1.2822364002267852 -0.27394667095963793
P 4.037933914426159 5.990051774647257 3.6328361284031305 -1.5270612141198023 0.9780468712222059 0.8138765350574627
P 6.78276179781138 3.975855894919466 10.56072960230048 0.11599480490078087 0.05858618507432491 -0.9131465710043951
P 6.205704476982279 7.782617602133929 10.302136302394565 0.4975578268895174 -0.32654012878563765 -0.3730876375278736
P 2.3489004683702386 8.406458488417826 5.796379336266627 0.9908851606374547 0.45316078883138083 0.1105137271815516
P 6.992032058755706 3.9294684189162776 1.5301493641694326 0.1389673545365542 0.018686263555593625 0.7749042675593235
Ni 5.362421032474102 2.833930005931226 0.6281996706581934 -0.13631449029473944 0.23632474684180588 -0.7616216915178045
Ni 1.5147360832820547 1.1029740922357087 7.0855379758409605 -0.16749040167691157 -0.7549316810921385 -1.240111188921961
Ni 6.794212383776072 0.652201791222389 9.23677540460561 -0.322172081624929 0.4842719084138885 -0.27180854157071255
Ni 2.685009374159299 1.506715271886976 9.108842112549157 0.2803348338741688 0.0014632148090878026 0.13660451073133248
Ni 6.445545641964414 1.8063659440620428 2.576420550797441 0.3903914189136438 0.9296836494274698 0.9764908395889956
Ni 4.182740617121148 6.884988884458422 10.313744423936601 -0.3198403481679588 0.6939253166120952 -0.0289364805286921
Ni 8.098093848307366 7.013078811888922 0.22061912393621774 -0.8597707264864161 -0.13342791277556376 0.4999718356476486
Ni 7.624586912974999 3.8275744074899083 8.272758494027268 0.0429883306360679 -0.5227842055564739 -0.44227422382586407
Ni 2.899293767479673 8.328716931506603 12.45387514439682 1.168469970435891 -0.32529262953178173 -0.43132389546194744
Ni 0.05001709570520338 4.908646553458247 10.130909533073968 0.5157740927872279 -0.8556901286591392 0.4450666989693367
Ni 8.730477663899826 2.4436288615356854 5.908777819990323 -0.945038020396353 -0.14982846562077423 -0.38120281043584026
Ni 3.596447210443168 2.6593535801346366 11.527236475204163 -0.36371725205656713 -1.0790158921381159 -0.5385257846614467
Ni 1.1675906850458937 3.3025398353164297 12.608330226051681 -0.6034317413062124 0.16645810375765527 -0.8398336212428568
Ni 2.946581446781972 8.245592158866696 8.023361671025071 1.0069692106835109 0.3211840066800468 -0.4650115175223798
Ni 5.474109255794799 7.6751783383850345 3.508104859481614 0.8544500856044511 0.9322020449739493 0.33188390959605424
Ni 3.1746299485457525 8.415289482782105 3.619950618379656 -0.37091428402563864 -0.7953113704607657 0.17994302561796752
Ni 3.2410559499871505 4.192543831048466 9.055099975592231 -0.11511934427436304 -0.048173217271117036 0.04093736164431014
Ni 7.2601216032639435 6.028139376232642 11.27318920195876 -0.5223219212080746 0.7514666053616735 0.8915097094609097
Ni 0.48869786600486465 -0.15977528315260678 0.23544907308577176 0.46801970822108424 0.6751030416992695 0.5170856125097998
Ni 4.446932281344234 0.5334262673277911 1.6281878048657104 0.429039727413461 -1.8253356631915274 -0.721001604003597
Ni 5.85629956846535 5.456006167449678 0.2736338966274606 -0.31588599150590113 0.6639082014247147 -0.19899104338835405
Ni 7.866795612633794 8.78566012613533 11.349632665712663 0.30737281182856735 -0.36082861765486246 0.14295796375318603
Ni 0.01980717319033854 4.972696018189993 5.654704440849244 0.32511805162713037 -0.17336408684886917 0.1761899863334385
Ni 7.910203415716925 8.831309435433246 2.49685428179892 -0.10130814942288359 -0.1488149367545953 0.10790868545853674
P 8.494093279586279 1.582827460826808 3.722111990185862 -0.38675073683726297 0.9187916851053144 -0.2524738457978426
P 1.7978140127204885 3.130348948262484 1.5759733129073772 0.5038248908451516 0.00914309995184877 0.7076125842912007
P 4.671992108154966 1.113506470835307 8.223904460984516 0.19301605675184177 -0.3692788053047446 -0.6470325087152986
P 8.57344620040291 1.6135964095904207 12.391185886850032 -0.7386242021813666 0.4065613438052869 0.15797886264205052
P 6.311154291440137 7.734735788654216 1.4497008959377833 -0.2097184571081872 0.24997370508380823 -0.854362153876335
P 1.7305058120459615 3.380983550800959 5.885589483208523 1.2595587561236112 -0.9344605019908229 -0.21025118968320564
P 6.953674396180588 4.119690378051415 5.934391304459926 -0.15997429580552447 -0.3931707814309938 0.6603672781509917
P 2.3332099248667344 8.401336331645885 10.234533735241229 0.5101271789140956 0.20626623689352863 -0.6472633937791821
