# total energy = -340897.2984741251 ev
CRYSTAL
PRIMVEC
8.98576704472721 0.00000000000000 0.00000000000000

0.00000000000000 8.98576704472721 0.00000000000000

0.00000000000000 0.00000000000000 13.15157836521724

PRIMCOORD
 96 1
Ni 6.516217744188767 1.9142829031128574 11.238641838296104 -0.20559029387242658 0.4727168565864375 0.6283650142127823
Ni 4.575669443719612 0.4500063198986156 5.8994957907730114 0.04326343867432549 -0.701936616952346 0.6277893442149705
Ni 2.664774174819318 1.4696491733884909 4.703570157489826 -0.4078767201826008 0.28313836476123494 0.9358134164742916
Ni 3.4766831649418903 4.258885208892749 4.953384368383484 0.32385204043051324 0.24225988137931828 -0.37279864553254505
Ni 5.012898901318905 4.352696617856057 2.639889889872758 0.3127297052651066 0.09986653188035059 -0.06598633419313797
Ni 7.136235676992236 5.9608613917397 2.556338429832276 0.28945453678724986 0.8839766343086581 0.3870135035803464
Ni 5.21396442689007 4.625351750248168 11.34559043882113 -0.4948707669756574 0.24386116442816713 0.19204186576403057
Ni 5.676506790528601 7.7405464888313515 12.437526484699175 -1.370844328474181 0.1973879605672923 -0.736925474322705
Ni 1.7213315252709893 6.47396666708671 0.37328673861625705 0.927618539368325 -0.1589689944694617 0.2058728581098519
Ni 2.7794595208536754 1.7473453211473087 0.4669939126807165 -0.3513677293522787 -0.599902130886399 -0.008848708639881533
Ni 0.7496187537169647 8.903367657386402 4.77107663172141 -1.074413360369098 -0.4021210486457462 -0.26449478151811867
Ni 8.46418828831728 2.3496792642151667 1.3393438683310568 0.6475950660869879 0.10785134985804005 0.1182540332486028
Ni 6.790732930379288 0.6750494665117057 4.750520790807189 -0.11594826793356161 -0.06925060676670654 -0.4608152200528451
Ni 0.7781701302342074 7.415028088342387 2.58356170996592 0.11052606847672578 -0.6472160854810144 -0.029604196019678043
Ni 7.367089020639394 3.793485371303037 3.6974742465433486 1.4216418707420226 -1.109477808172399 0.5190098261157061
Ni 7.595498235623907 3.90737098406175 12.563597696279261 0.1804485044994763 -0.4031749438315572 -0.994384946260597
Ni 7.906091276889878 8.723346798461987 6.762239062771755 -0.14380179981072008 0.423558906804548 0.40862491120253497
Ni 6.849203317172798 0.6210423102576667 0.31148892225003527 -0.6339743899797597 0.7445652502561498 0.3130886312664221
Ni 1.4659470373259542 6.752444576586888 9.170989861602235 2.026745857544335 -0.9251304828391488 0.04064322744265904
Ni -0.07701341586790458 4.967359033442847 1.2821332860908665 1.034300294398296 -0.5387998642584398 0.15303591681447837
Ni 6.428516656882073 2.112392111294279 6.927370505541746 -0.6191810337206691 -1.0233558795716504 -0.02759719289197828
Ni 3.4391406298222833 4.266424267524953 0.7513341366643878 0.5253951608167596 0.18314044950934266 -1.5334979708840815
Ni 5.955101515001627 5.503189313892176 4.708172667419998 -1.0280378584283523 0.9171011847767689 0.205389233605214
Ni 5.2074227884106365 2.835279106340272 9.252490769580895 0.061040560152088426 0.19794203329854942 -0.17468974763882816
P 0.13693051117128915 5.731787229986673 12.251852679665678 1.1807940392188825 -1.4558696815766412 0.7634371474599885
P 3.904594382014847 6.073066666042843 12.600238060377805 0.7304486083491097 0.09683982923888483 -0.29337804021137215
P 2.3338373567436808 8.37594805498206 1.3171696907545476 -0.35058817087377686 0.5100644439969603 0.7275967407226114
P 6.129919614750779 7.65834469101561 5.749015641328181 1.4943590959010908 0.5379115481162156 -0.12115783715895907
P 4.637275863245707 1.0269204262982452 12.595595114495492 1.0808331478525128 -0.023983507398790953 -0.1740999365736292
P 3.9220177845033395 6.16341855465645 8.10439727337171 -0.13324973532648665 -0.4528273167513621 1.4341813979699303
P 4.598834751411892 1.0806642995750213 3.671631180242729 0.33482833693635883 -0.9507762084317111 -0.3476959369276464
P 0.21893552068661878 5.483699184961005 3.501252948038478 0.06391428215545766 0.49244236003982295 0.22291695807633222
Ni 1.2208871958271683 0.9731046668843325 2.456227998102371 0.700771135889335 0.8725323970274586 0.4431481417903852
Ni 2.0045359482879017 6.486537755318478 4.697981010327452 -0.8384814780903367 -0.16694532780671892 0.7763731387953662
Ni 6.041544594908429 5.487796694777794 8.970612645794153 -0.3161747263909135 0.7244790210292362 1.497876107915414
Ni 8.70266156250092 2.302279342540698 10.01522964190201 -0.12675512874107847 0.35145000465343984 0.8293103531140298
Ni 2.2840831640779875 5.221413627850854 6.9754003294928735 -0.19454483469154235 -0.022443930825812957 0.2414193877558939
Ni 0.6352586924531503 -0.012580073998910979 9.12966791282267 -1.3795626821837854 0.7817847967292407 -0.2870716383773701
Ni 1.4845745326114845 1.1052763157771766 11.426854122547239 0.0857303495892846 1.0441584181392987 0.09641508299664041
Ni 4.030727595388214 6.677062976031985 1.5957859810687145 0.26336786700252707 0.5714060803292353 -0.291526331714614
Ni 5.621244322604813 7.7342744233661795 8.02010898042558 -0.5070649950490042 0.4511704978742294 -0.5975693689881644
Ni 5.3072636471262795 2.7357797067760283 4.726597982944831 0.058127500270351504 0.7676380729152134 0.5430162163326325
Ni 0.7384135020907918 7.221411763732005 6.827023748136004 0.35652536229381826 0.215882419827054 -0.30189739053629294
Ni 5.075314039887787 4.61269979011212 7.054401397052606 -0.09441065097210193 -0.8389108523182713 -0.9945042454472809
Ni 8.092914361540847 7.0195914337209055 8.927594184178163 -0.26379287035508764 0.7602762332335035 0.8288408696767791
Ni 4.63599089854439 0.5121024637339544 10.39270644373662 -0.3036056314766513 -1.1913263062087742 0.08141012494737591
Ni 7.970654013805717 7.054231566053621 4.560665009745767 0.5061861919884766 0.7865349098197164 0.4023683887698618
Ni 7.416393924947983 6.119882512853076 6.853235230889449 -0.9337272233692242 -0.6071158750260189 -0.39928075098347365
Ni 2.3263432269471864 5.135231135191172 2.6254237033507244 -1.665997715418421 0.27946682944691875 -0.03331661187425875
Ni 2.356876863695972 5.232250463024202 11.338554583148882 -0.029060921921698336 0.7412009617696074 0.4319124209755658
Ni 1.020792133107347 3.30930528038638 3.7857342485662797 -0.27420198150355357 -0.027668412449545897 -0.15347891788916793
Ni 3.301972894398443 2.7029187563374446 2.812017650939571 0.29838346384576353 0.09776336949441873 -0.5520240762581977
Ni 1.2415275029525246 3.270423865962603 8.253470251682092 -0.9000061769676952 0.4589627402251386 -0.42420039704328877
Ni 3.606141112157826 2.684947222053286 7.067118953288791 0.27707518928629055 0.015099831755915928 -0.12879684176145562
Ni 4.177483144352652 6.785808729985429 6.034693846039307 -0.5719023032393634 0.4041082542791041 -0.6657691658928534
Ni 0.8296972147570326 7.570490845667501 11.403075985535867 0.2200506922721307 -0.13189990616681155 -0.42001155577292176
P 0.24326448522379843 5.340933316607651 7.99743519419597 0.3397627981234987 0.4233095097979032 -0.43506819299572813
P 8.43269317448429 1.5572424314894797 7.994331510225096 0.14322535848195977 -0.1802402451434122 -0.7289344856974285
P 1.7538150734896056 3.3356515496469563 10.49595919823611 0.7515265120653315 -1.5751367294707908 -0.8061025475389989
P 3.894350607472877 6.036988810967395 3.711059827885458 1.3030831617688075 0.4367244976522284 0.6792090934478432
P 6.865853943687071 3.8451175893014247 10.179255835313526 1.1222857585703445 0.27788045879640527 1.0660464764616413
P 6.3025182300158376 7.5598067685355685 10.138302302986785 -0.6649019327965516 -0.06969309362076384 0.38050732703071244
P 2.508143267765734 8.401620391706981 5.894879802192126 -0.3479800438269684 -0.037151926459948914 -0.3520794107073226
P 6.9598450679932204 3.9633253560554773 1.5668787681726455 -1.3139620134648402 -0.4318702548837207 -0.5430583824244776
Ni 5.4356433022851665 2.927095674998038 0.20590525975388965 -0.3671756429188128 0.22374588173553078 0.19678606531723528
Ni 1.5297280125004329 1.1074418856584176 7.029216088906787 0.019264504656566823 -0.13606817861188825 -0.11152828448899503
Ni 6.941666861064794 0.44708235127058304 9.269259109644729 -0.3817638251456329 1.0549614222920733 -1.4364334272289003
Ni 2.7337309518676345 1.6439730559448287 9.256686224259532 0.1471879426741336 -0.17471648711170557 0.13297128485411938
Ni 6.213145790020717 1.9214535452922366 2.3298018487201726 -0.04413427131505303 0.012435654660191487 1.0942669047599154
Ni 4.062258652289771 6.801434979045505 10.300184492358198 0.3114035302545153 0.5053696096244522 -0.24054572690168896
Ni 8.027030716855123 7.145922333971398 0.30730245333854056 -0.0064634962371566095 0.13528142104453478 0.4688476034390184
Ni 7.607673950101425 3.7905020966118665 8.104936419400236 0.9548616913549942 0.15534425323268083 -0.16329693242085425
Ni 3.0925955342208544 8.355083103678153 12.399873424643719 0.6536636408785711 -0.22775346023302712 -0.2949937214379242
Ni 0.17306946946330357 4.884483303091449 10.252602159610746 -0.8623973654759858 -0.8954818067347803 -0.6808080625038468
Ni 8.753053744633702 2.2893218663218198 5.8613557021384555 -0.4227801196569945 0.5098212176379026 0.21016608616856708
Ni 3.747235627822755 2.756824373422778 11.485891511247413 -0.5608758702218728 -0.17451439840322847 -0.3122237121629655
Ni 1.0919324515711888 3.483889750189838 12.56484671791201 -0.5624678972993409 -0.19917230616122472 0.02585218517641354
Ni 3.111196072204958 8.412079824660362 8.055354753463671 0.6667904080685162 -0.540717907216759 -0.15119886360573961
Ni 5.515832288261081 7.698214539825016 3.5285418242722586 -0.05268524620885765 0.39424575966272746 0.19124739488719322
Ni 3.0951385063220624 8.28856146952534 3.491704671873304 -0.20274562533477986 0.06103104707039167 0.4026177857765066
Ni 3.3265309959977456 4.228989561611051 9.30307165282366 0.5468787846118324 1.1873842908418906 -0.7790357732291939
Ni 7.274984907433082 6.069346558446022 11.365922534133512 -1.1214236676803655 -0.11109325383410545 -0.9118499636801586
Ni 0.4238110115260261 -0.052702422865009126 0.2729543584379425 0.8151368898271252 1.0287243429724153 0.3801417161611776
Ni 4.39052669752421 0.21195717392408003 1.6612679619631887 0.8007076017756727 0.23150649951755617 -1.2434826764973552
Ni 6.027427954728222 5.622457401168994 0.4935172015539919 -1.0574358519744949 -0.3643052633495532 -0.9603435404051721
Ni 7.768707883054628 8.764609441178415 11.355901606616666 0.6120428800139912 -0.3780215844943812 0.2611232939427245
Ni 0.07936948401255778 4.836023060894216 5.616525896278507 0.2547094199965807 -0.2592492168484632 0.30118622340188134
Ni 7.926174466452425 8.845526274292839 2.5010094672316376 -0.3550379791150144 0.42272406960807846 0.3794449472044691
P 8.549615976537027 1.6197833707983513 3.8124848773482496 -0.725648358746989 -0.587395513778956 -1.1872562499044585
P 1.6068348803466153 3.3555011092638094 1.5283055655618418 0.05504063381491166 -1.1729233782215542 0.37450560092132273
P 4.730278553166227 1.087664212178701 8.153321181153476 0.3915047065824806 -0.7398963840255709 -0.4427161964592891
P 8.534340172395492 1.6895039380537442 12.325686032542 -0.60294708836031 -0.0021792670395059245 0.024122861190132648
P 6.327885050657927 7.777855394005264 1.4447666855953591 -1.025094459529312 -0.5533790476241953 0.5234871451607694
P 1.8306613540886676 3.281754918328765 5.956323579332949 -0.4320144937710688 -0.8418619645267954 -0.09955619972878338
P 6.92363242641064 4.040234537024534 5.889658172905863 -0.011735029048741082 -0.7152184216629166 0.7848181842389258
P 2.4245037472072606 8.552257792076798 10.172640513543525 1.0056201528547841 -0.20188739109954265 0.8034224296036744
