# total energy = -381175.5484313276 ev
CRYSTAL
PRIMVEC
9.16731869349506 0.00000000000000 0.00000000000000

0.00000000000000 9.16731869349506 0.00000000000000

0.00000000000000 0.00000000000000 13.41729755470532

PRIMCOORD
 96 1
Ni 7.486270920140061 3.5914255004833926 12.19161458343598 0.6002206905680824 -0.09382829610607066 2.393677759883458
Ni 7.24094430049549 2.91481319839801 7.759317678511933 -0.16950434678314677 0.6283277332169437 0.08405553299002297
Ni 4.5862537743599034 4.053256689319918 8.440137779947745 0.6207946580646923 1.2648881387563249 1.0283849573551258
Ni 3.6935585997494957 4.58739052189684 10.759975484050024 0.07558554784579886 -0.5992544700000711 -0.3897496715645868
Ni 1.2345353270683297 6.758083282225661 8.20690468732515 0.527889130883207 1.2077625973879265 0.7100091095478354
Ni 6.143075362787097 7.368773394487639 12.482045328536003 0.3295192660186196 -1.1585627386245079 0.28851094192705795
Ni 7.2920704377010415 7.721907683764145 10.060370629566355 0.7305936185674062 0.018571335244284146 0.5069382396631528
Ni 2.93917993189135 2.0658919712784596 0.2651967832438249 0.5203943651680586 -1.2144423234009472 0.035147751545726566
Ni 2.618287102997116 8.17148216730323 10.313997339694325 -1.649147733740618 -0.5750693881134354 -0.05275260911168335
Ni 1.310660742767613 3.78582766393703 6.0485584720184615 -0.6932498878116253 -0.5113505097982355 0.40170504415425007
Ni 3.3054968256687673 3.4414206622021575 4.592848743537897 -0.685081235957904 0.9275465484798091 -0.06105881498453356
Ni 5.481277447957259 2.366992558783634 0.44977066416239475 -0.2029042623998312 -0.606366141344188 -0.25126799841519953
Ni 5.784147327999761 3.2931209452263257 10.41270827883512 0.47484881532777573 -0.8372116102389774 0.15526249215215196
Ni 3.162404145797607 4.43680814252829 13.074807832062248 -0.47865687621995634 0.8409811045837389 -0.0382713847763728
Ni 3.5309028614604316 5.742720214133544 4.089834291516466 -1.4343696027213362 0.36013724801479263 -0.3816098160662718
Ni 3.761158408921764 -0.18961132262458574 8.273991126642029 -0.7592583334919505 -0.45565784422162164 0.32974372332459984
Ni 3.9099164918399083 5.686011179750624 6.6112393354826136 -0.37661159152073204 1.7560894273001948 -0.47474160032595014
Ni 2.7697403776560594 2.088406906364857 7.790499396835577 -0.7120338532873479 0.6852347308166328 0.14855088445993125
Ni 9.11728361998998 7.9872923970443175 5.940629793777758 -0.29568843351210367 0.7921440284763777 -0.8638304983780866
Ni 6.416646491796975 4.194928434769909 1.3926083226661516 -0.3687843821668294 0.7538392193589082 1.2584431544619297
Ni 5.0810323071298615 8.374272427501188 10.334445961112776 -0.8860772255914288 -0.10968454641203693 1.0484747861264652
Ni 8.72285972662995 4.667384546149241 1.6864465601813243 0.16124570631878038 1.2040144431994038 0.048664297974922645
Ni 1.1124816439493195 -0.0951045159066807 3.7083133994325395 0.6695070356687308 -0.2272963180909505 0.9279674380673116
Ni 1.640005839638092 6.853469234820921 12.594911524707298 1.1248213805080047 1.32319073115196 -0.60611828699944
P 6.589560459874995 4.836659088645299 8.877192456138504 0.003948957345419005 0.196513528382139 -0.05604053583433575
Ni 4.6057068249516515 8.852329770695581 13.32062581999698 -0.9408180687777344 -0.512531160369898 1.9364379158866976
P 1.9153370938664496 7.149555298917195 3.124714547825007 0.016398753072997565 -0.6547895269528982 0.7327636296355315
Ni 5.925030684028974 6.56317691623548 7.718622116689648 -0.23362328875024285 0.12471058750722391 0.5313691190120075
P 2.835295874725613 7.732055905726946 6.645601196714024 0.3868931759523982 1.1108230093463838 0.6949223904180418
P 4.218121751450928 2.729321668862931 11.98543058180114 0.2765663679706721 -0.049157692671573404 0.38117401408043383
P 8.158629586280783 3.4238652466115833 5.572190665687433 0.07499650811154826 0.09882472087939755 0.9221030088667346
Ni 1.9542706970064854 5.845348348617344 1.3238846002033327 -1.8835253841583819 0.11786476822998411 0.17366953390442993
Ni 4.195918505205304 1.1603533829644517 4.0823473422147325 0.1405951199479643 0.2111960700949782 1.2457323917634802
Ni 3.415431313273031 4.335142576523346 2.0044370159288345 2.1450744527846153 -0.4488837587225818 0.8700785361703275
Ni 2.398363123875511 4.78266358064087 8.172113795571736 -1.4483309499974346 -0.9480302702554576 0.47485627152694354
Ni 0.07810830676572797 1.4218603203726596 5.721766473446664 1.081665671056137 -0.43586934874078487 2.2523683874772886
Ni 6.146934804021369 8.854108230551754 8.38416121434064 0.17643629801628968 0.5974043041652098 -1.2300445487145784
Ni 6.868503637728776 6.7359808764873454 1.7591012289654167 -1.3075597094829223 0.6017605242513765 -0.12322680387284583
Ni 8.142210918227144 1.739819607236093 10.909685134664409 1.6830261316556174 0.4537493143449992 1.086341993485884
Ni 3.643935902834729 8.164258320052381 4.5777135001227345 -1.7159151690741545 -0.8348150849823429 0.48741199670476704
Ni 0.8490761548080523 0.9724966851670387 1.5114717788266658 0.1486411301808924 0.1856850703080673 -0.515276584325519
Ni 0.524935344846591 4.927608058918973 12.807145956780667 -1.1292269657748681 0.19179015476454067 1.3877950973959066
Ni 5.927212505914382 4.6599773525214685 6.307632403004874 1.7170284567429914 -0.12896961989389402 0.4433240052466172
Ni 5.086037663219915 1.8543010849880983 8.168478036917312 1.026492111207787 -0.9860964809995597 -0.5673517077542035
Ni 8.668937557176292 6.468368504727533 3.0410306777369884 1.1263167341066087 1.4972359032282538 1.1045664869137106
Ni 1.1262692914940835 1.1345382130934036 10.321967406699256 1.7785680680186853 0.23502016909776946 -0.0031061497291494894
Ni 2.401470844964391 1.2312625942402173 5.398973259355602 -0.21918011674171928 -0.38372351997516496 1.0270189302455346
Ni 8.154421786930353 7.499086831887123 7.953948108204842 0.08145023415669198 -1.0248795153050285 -0.4030314762751575
Ni 8.23624010763316 4.207029295646962 10.132434923016747 0.9233697913943001 -0.1366443628303324 0.16204146274719833
Ni 5.415483600597703 2.5900792629071967 5.676375410911328 0.31037148944557513 -1.4029532931935838 -0.16033707846158193
Ni 3.534065586462389 1.9220934078561378 9.962960532969841 -0.11855125277404746 1.3739512495342787 -0.23082695695202826
Ni 8.517566788386967 5.06119422914657 7.972799782680276 0.8668947391257069 0.4155782025919166 -1.595016756224169
Ni 2.339921466230649 8.122657027128087 1.219106729450086 0.4634002071712019 1.3504390253449519 -0.32333319181256576
Ni 5.48607195571385 4.725697861330255 12.731512826103426 -0.5296665344986039 0.39617228726147896 -0.17198803243694893
Ni 0.9065433264595573 2.4467482327460335 3.9022461961612485 -1.1683133902533687 0.4774888240537841 -1.0303245975799997
Ni 8.24824929532175 5.656263230094533 5.284590788647136 0.505375266051407 0.4233357350501483 1.127103234563646
P 8.982249013384676 1.9811859451390836 13.013208949806737 -0.06999288424936978 -0.7876674807622628 1.2629598113853606
Ni 1.5687116009707838 5.500840506375163 10.685602859714145 -0.5217323672531917 1.707516146377182 -0.5010126182073371
P 6.8070275975458046 7.950879806587002 6.2041452907451795 0.2664130815867541 -0.24220126022724092 -0.4867491663097875
Ni 1.3696982761374812 3.0876263259687224 12.044158259794004 0.6822823330565282 -1.5398676218558511 -1.5728692735928524
P 7.541164825391423 5.583566391643748 0.11226023639555825 0.07585937033247579 -0.1553581371897518 -2.047600846616474
P 0.4797991337751805 8.050776080054618 9.82160964367947 -0.2928766750949214 -0.6590138494468909 1.0549992175085443
P 6.473804724803361 1.1990303011767922 2.426223522581158 -1.0162722332519916 -0.205065274606892 -0.6199117412391065
Ni 4.277635985400802 6.5722892311686545 0.8330159289213019 0.05743458796838496 -1.818192624388843 -0.8038052668643899
Ni 8.375253330617738 6.33056536783066 11.490533790618066 0.05776137518018439 -0.24496031102961685 0.33985664338888566
Ni 4.75993779722101 9.468556943540694 6.154245740801256 0.40995211465439074 -0.375953646221759 1.0162035847975852
Ni 7.976245777834583 8.690489923783833 12.14025284613608 1.8164707566017297 1.2209086478515812 -0.8169438611288768
Ni 4.227664930369878 0.8930490331178733 1.987826750911309 -0.24443554887439836 0.1967780948974353 -2.3759518033586047
Ni 0.3595999992587673 2.78752497621779 8.288548828969878 0.5219020600618366 -0.6497442512195067 -0.5002703407246739
Ni 8.822398474662565 0.42508857490074364 8.696341423403396 -2.9248026240951437 1.5999432469915091 -0.39456586200630756
Ni 8.938539237125742 7.330013970405682 0.3708473827512349 -0.3761109977352297 0.19582550117617886 1.5043259773058157
Ni 5.511520432831047 6.558235731377349 4.955061428667847 1.570735257968985 0.8179424775967203 -0.24102035254526233
Ni 7.149903657033353 0.93591908297049 6.544662599093587 -0.5593098112863335 -0.7634111793180595 -0.4659114036288299
Ni 8.111491232773352 2.551099823172929 2.005751609451387 0.30685139210745865 -1.0720129784577217 -0.7401120995808028
Ni 6.86568010352413 4.323637591371298 3.948213883052014 0.8031023272600943 0.07502633290821917 -0.16673706845065478
Ni 6.9453074350226816 8.972577492001879 0.7435328129311435 -0.7687557314594244 0.7738871391487189 0.4748801827863435
Ni 4.698489258994577 7.84465808311547 2.544925633929978 0.6311592891284679 0.44086680195537625 0.9294147120367993
Ni 1.5762288024247113 6.194861546949579 5.952973588604237 -0.5865586196999576 -0.5551186560231214 -1.12875465412414
Ni 5.999084285669004 0.885744513461179 12.017202675458483 0.23933550864367167 0.8258172523591067 -1.4577162478670767
Ni 1.4935945903445882 9.448663861644327 7.484114766747423 0.19171662121412789 -1.3940871010522058 -1.0826722579437806
Ni 7.629152751677758 1.712556000987337 4.2147490948473925 -0.4653794423847598 1.3380861602065537 -0.32325348761456585
Ni 1.3687448749774709 3.4020928643517334 1.2661451591820938 -0.6369514703302127 -0.09553627993611288 0.0013912239205717976
Ni 1.240677430695319 0.1506685521657037 12.59915140967369 -0.4862598853781948 0.1848044674753269 0.07750153392158911
Ni 3.8811036087061357 6.830147575676055 12.0087229055257 -0.09025523404283166 -0.10360105922211833 -1.0535437160089403
Ni 5.802683646706883 5.820569085775923 10.728283146066643 0.3707618176081744 0.39164920258014485 -1.740251431826674
Ni 5.143113390356685 3.0324849031085117 3.2678768993193996 0.8564763720058605 -0.2059440776674195 -1.9185319821405538
Ni 8.292784130276846 8.851688058376343 2.6678282107741516 -0.6962436803326267 -0.09331150437065219 -0.2639373663527519
Ni 1.0187824780217691 4.953624909804639 3.850093319244916 1.2312727646947246 -0.02685131586488924 -0.3016245964908805
P 1.469512043735482 3.656201775451015 9.814994506400012 0.1237461667114256 -1.7341100948156263 0.2118380745543513
Ni 6.2748647385208285 8.996687540567525 4.146763341551697 -0.5545357869364578 -1.1705690190567646 0.6789172732390373
P 2.630057940395705 2.4846917654506737 2.8348338418557626 1.3691659123304936 -1.631786616754351 -1.9886469937900846
Ni 3.390037840068911 0.596056321187705 11.685379652303862 -0.023038884097334515 -0.05103382664836372 1.4028802738638033
P 3.6757556665500726 3.5731642013416574 6.634826846874023 -0.2956017873355683 -0.5041169681642738 -0.6124329163635582
P 6.697441468057698 1.3687632096151634 9.650994839168089 -2.198328427012749 -0.9329615488477933 -1.8600075035420998
P 5.3502672943254606 5.537968147702488 2.8648476437583943 -0.6910212555914228 0.1474573942854364 -0.14820224287126088
Ni 3.777549575018864 6.543879710064117 9.159023339428854 0.5532132114702923 -0.3902361242827021 -0.21943979816100917
