# total energy = -340883.9737489826 ev
CRYSTAL
PRIMVEC
9.15692173465796 0.00000000000000 0.00000000000000
0.00000000000000 9.15692173465796 0.00000000000000
0.00000000000000 0.00000000000000 13.40208055450394
PRIMCOORD
 96 1
Ni 1.6506724672600603 6.4803808675968515 11.146764583382877 0.635626580871202 0.9226442260821852 -0.4305373950049102
Ni 4.692748324377461 6.254186590913868 11.695070974528237 -1.2372032712465466 -0.4520680699878343 0.2821209792403141
Ni 1.7680550448974648 2.955698615924356 8.345663190058572 0.03387582681183843 0.5921155449624448 1.0632627430689174
Ni 1.393747561779891 0.21579567654529436 12.854310690529505 0.47819767719535067 0.47214530035368363 -1.7143835629209763
Ni 4.416456529771532 5.79644123842801 7.299617675767465 0.824928164885934 0.3866720610805276 -0.8580902534601996
Ni 7.918869148179797 5.641496968500363 6.10714016584247 0.20300633519533426 -0.5589547419397599 0.3768764151463445
Ni 4.472039043716383 3.2932685296932083 7.659865621502679 -0.2702514814962378 0.4091201056713986 -1.3216161875759884
Ni 2.568122753448283 6.987848304221184 0.1103976778619296 0.7247577286119196 0.5124126325141628 -2.181587717219301
Ni 2.937668637348176 7.54354524676768 9.109219505223509 0.7604585244476387 -1.1321870768444566 1.039001299418391
Ni 5.362659549697289 0.4889906002754164 1.3068502074415302 -0.49565521055016576 1.4240296542479087 0.46136337924683124
Ni 2.5325206423745468 1.5971868883553033 6.558241256035348 -0.21965757059877009 -0.3509990331589503 -1.009648814398203
Ni 3.117125986325308 4.637220751962045 0.9519151076026593 0.6512344626117881 -0.10134568752903837 -1.2580173797784207
Ni 0.26987553966010414 1.1204134528418672 7.575806912851782 -0.3636092657237931 -0.19122991138569645 -0.08486980136120223
Ni 8.274377471309105 4.738514618396632 1.734845637430613 -0.4185365138892921 1.8724117907437237 -0.1086278230127484
Ni 5.432984707373805 8.303606364968406 3.8792996063328022 0.8796584665492785 0.18568712719059632 -0.23534309965482697
Ni 1.2259652878076495 8.556447283427259 1.4708781435690619 -0.5484307024799845 -1.315150891566619 0.8515797060351914
Ni 6.283717662985062 2.0344756780482784 4.022259297306411 0.8946742232318206 1.3016963087236098 0.03446203833261162
Ni 5.640306568695942 0.955717061439546 6.133087218810201 0.2575525458723306 -0.5478935990295919 0.45328600155533544
Ni 4.223098973847401 1.1681393280775447 3.5742010521520617 -0.4343526549859423 -0.23066677722508017 1.0647293003121148
Ni 6.951751719382535 6.352724223955144 13.123812627789453 0.5504024814943747 -1.4149832277749244 -0.28338441933376995
Ni 5.644125004991659 4.431821844170125 0.9968545316038365 0.6897542159535411 0.8875340126426134 -0.6862058364806505
Ni 0.6652558463923876 5.4351091131786164 13.208635023699493 0.33032402130810207 0.2272371827182409 0.09633563590895666
Ni 4.249232828015211 0.9227338299355339 12.316096142649158 -1.203854520582772 1.248320464205631 1.0904051078116639
Ni 6.154980502597803 2.540697773338756 13.039124838626527 0.6038426035913859 -0.9180895168319672 0.1070458232376092
P 5.096760861076105 6.783566540861106 9.140030714930532 0.45303069101141985 0.19138931978169618 1.3905474633300632
P 2.1605664881010953 4.5341687565855455 11.86521024011323 2.366678348476479 0.17578040959984564 0.2955555074786652
P 0.3054739879652117 1.6955963244945644 0.7375964425070033 -0.9686155506059769 -0.5000471689702742 -0.5707730747309266
P 6.415485764412806 4.347880344115356 7.239268068451989 0.8831168574115243 0.015689642821114916 1.532244815203271
P 4.238391032873414 2.599723289794853 0.5338787455157877 -0.8929189311036105 -0.5148173853009134 0.5948720246616593
P 2.9223124798711555 8.440035339476534 11.53050644279656 0.06823553523863087 -0.3482672360500841 -0.432010637116327
P 2.5207906258402213 4.568232504835108 3.104430830257245 0.3355035086265125 -0.10336734594475747 1.3190923927128702
P 6.489345493816294 0.6410724165195125 11.866268780247008 1.162385454804708 0.9902709240922236 -1.0495153115758378
Ni 8.4169690540355 3.638841592916393 13.01561810525786 -0.29024232279586787 -0.9492692848688814 0.524276216720968
Ni 1.5713643695209576 6.063869132951795 1.9660716425176648 -1.243068214667756 1.3178315237225757 0.08084576780347366
Ni 4.338851619444907 3.2880857120831943 2.6242610925325827 0.10673420553446133 0.42393480208672796 1.0340912637112836
Ni 0.5529031657747371 4.089114897399121 6.465418457747447 1.0921058925528546 0.04103943443981319 -0.3207592604378024
Ni 0.9695348560923929 3.3742615010016443 1.978455463252264 -0.11597397896517445 1.2316008374581047 -1.2396198511078391
Ni 7.405642007886386 2.376202834211029 1.7232932651747934 0.07560148868539883 -0.10773873553957573 0.2422881635140924
Ni 1.2388216056953876 9.063218794012082 4.874711922788976 -1.3671763927042906 0.17912104393730444 1.655278272118388
Ni 2.778612909634492 1.1351103119656705 1.6314758968755487 0.3745027727078453 2.01054019431875 -1.9445440899335993
Ni 1.1669031436652624 8.862050383986642 10.098695389424254 -0.29079253887238304 0.46668016347405433 -0.24012946529987675
Ni 2.295850847412665 1.8514471296578863 10.905058481556141 -0.013884985512208346 -0.23659908354911513 -0.7654184395560754
Ni 6.3960639337576115 7.696099560164915 6.242018873528379 0.47113074304624025 -0.5935211670607197 0.13271777408241656
Ni 6.151381832419825 1.769144718564588 8.767747827172629 -0.2932188889256886 -0.8348937607390783 -2.3418276079813864
Ni 0.5531165220473755 3.6364791071506977 10.994302754893523 -0.7884110437965067 -0.9064426766216583 -1.4965105950264548
Ni 3.122308803935322 4.272189230397376 5.3677077605601875 -0.4828164069142847 0.5090838252512457 -0.021998358647962114
Ni 5.650003748641181 4.711281933640126 9.939130536871142 0.46267207075592576 -0.07171192382300552 -0.46937853624182385
Ni 7.73284628643521 0.18229965743322435 4.876816183366327 0.5351725519184978 0.8323288282253796 0.5014831300858524
Ni 8.538792738635548 1.4439641196832784 11.7746519485302 1.1459895299451877 0.3341238546701665 1.2207330415056652
Ni 6.5991461403916984 7.588212710198155 1.8738385499790302 0.158023856947373 -0.576600222935665 -1.237775598810249
Ni 7.244516815897325 6.294632713499437 3.855925648326933 -1.2935898775663914 -1.0965060785030794 0.7156166855425998
Ni 7.644106559476469 0.12134660898612373 0.36994695706476716 1.0713385780985163 0.2881635858899682 0.5672632618054553
Ni 3.654728851844616 8.513400595115108 5.4144941356425305 -0.5442616587039594 0.39454606451196567 1.2580790862542914
Ni 3.0328456801723576 6.661449834770737 3.9864484084208223 -0.9394551269919369 -0.5233506195829051 0.2456809912457253
Ni 1.9419999270879738 2.4648418350324715 3.756724138471654 1.8710290514635841 0.08657804230156058 2.8038923841706165
Ni 1.983407526438652 2.719651491629403 13.245999842175928 0.5327634282563727 0.20646832560200573 -1.3785872056443935
P 6.630856559797138 4.2419897030513924 2.976454610052658 -0.8578675959264322 -1.0207971177055386 0.963528623001373
P 4.33510643852177 2.712408366665584 9.674171348403291 -0.47128012413991094 -0.06809001079970207 1.1685851558575164
P 8.71370825451274 7.436793855075905 5.143356772189741 0.8051365840813037 -1.1873349256611938 0.9904030787947137
P 4.731244022668095 6.456261536174983 0.5765454215826795 -0.028589381601918505 -0.085919068561323 0.30610242975657603
P 8.705137375920915 6.920233595330117 0.9717380114227274 0.16599144853388187 0.8811625618986307 0.10380957568849863
P 2.3856436203522384 8.594210427992095 7.394785561670074 -0.6776440629535684 1.0669941850868914 -1.625281725756298
P 2.514197642308048 9.113288841170311 3.2980108993755866 -0.3085573190549718 -1.0759578220380825 0.8875982902216455
P 4.987582885167628 6.465647380786758 5.068465973417195 -0.7359489693420487 0.8661406345685018 0.2549364484057222
Ni 7.436757227389616 5.997353254649424 8.547229926172417 -1.0864155270362967 -0.23549788006513633 -0.5926315653669149
Ni 6.73458616737 7.093482551481118 10.704898248595828 -0.7942831863065676 0.4393673345917143 -0.7783498029057627
Ni 8.761031225199229 7.8559610969769755 3.0405429884461705 0.5582641436306385 0.7767768019916881 -0.5832773778455245
Ni 0.39211861126817205 5.550797660325116 3.8917090664478042 0.9820552210506506 0.6300981948538051 1.3129451421645517
Ni 3.6660284930650358 7.92891429114479 1.9865501819223212 0.9624629007410198 -0.3107478989483874 -0.475900910741374
Ni 1.6712205992686675 6.729705528171877 6.072295332182776 -0.17739891903987512 0.3663356635160207 0.17737835021458484
Ni 5.067440398201079 6.033779488664682 2.895359081222611 -0.16921149813307632 -1.5942603376741187 -0.8028719564168432
Ni 7.740519786712934 0.24858935977275645 9.898589182301219 -0.2571619953021313 -0.6599605296308764 -1.276337518243847
Ni 5.675395892161621 4.40444264866846 5.229826498290667 0.14926487980782036 -0.5105712084300498 -0.986416840453456
Ni 4.156097778701688 3.369032898783768 11.72415335744238 -0.4050765317296443 1.2554727589796957 0.28472062164669026
Ni 4.972913496808542 8.858534126102816 10.490035662358768 -0.16567288885219855 -0.7781371726743244 -1.1458931135766395
Ni 3.519929809376387 0.935132301744649 8.751142665593125 -1.811702902899441 1.5552816424180764 1.1475977549725718
Ni 8.573534099081474 3.5091521126855985 3.9917154697093027 -0.8711727976757706 -0.23291212161583114 -0.3161148196872556
Ni 8.989642929177343 7.6488681586941505 7.573823523639186 -0.10828432363040061 0.8733075846305862 -0.33869707586314574
Ni 7.777019276100771 2.7227740018856124 6.352532844294279 -2.348636917593736 -0.5443735016914754 0.49717164719469215
Ni 6.648236396941672 2.6010785141875776 10.748736094931838 0.20166421934514303 -0.540915625049862 -0.3587239126070338
Ni 0.20008972466420566 1.2798537712615947 2.919441784958188 -1.1845823026167213 -1.4245901547370692 0.01923879362495396
Ni 4.924043006376306 8.683078351852851 8.032510207662694 1.6407903629148581 -2.015801185607373 -1.2725749658776213
Ni 5.595877185226351 8.241449181334527 12.781175273622399 -0.6589184615196072 -2.083039647040058 0.930669667489823
Ni 8.008671078040942 3.6186963654569744 8.59878797308617 0.6768364794506085 -0.3893411232722585 0.7437905768736545
Ni 8.705247258979783 8.052734184647635 11.902789330554462 0.10777215988067244 -0.4886121876604552 0.6696636158512531
Ni 3.266383807956456 4.844377788695877 9.510960209680025 -0.5765768258968974 0.10446906364936848 0.1581426419134244
Ni 0.8783767861463654 5.716702765375001 8.771970083709693 -0.38712637500912683 -0.6888898110707168 0.5086768196208142
Ni 8.521284704588998 5.619639396706893 11.080920823123924 -0.6575951147224933 -1.8213692223446116 1.0398747031622801
P 7.327505996108558 0.1565421527420429 7.478320494407025 -0.6938602677021147 0.6534412404551198 0.33422001392839856
P 2.35977531691003 5.1238104074011614 7.417716324671835 -0.09818528752318574 -1.474792486623073 -0.08599285922205191
P 7.126685549102869 0.3386641658967614 2.723114639368108 -0.3441619556324589 0.8003396769132927 0.3029769967537169
P 0.24060543985372584 2.0345306195777133 5.313147159062824 2.2043566354847 -1.0450539333703743 -0.31087054056918073
P 8.78502235971908 7.19665358683806 9.825332894029357 0.486716256189323 2.10942122235738 -0.4767558025425015
P 0.22404514718992635 1.7983095137728828 9.743741060050082 0.8261710361540997 0.636066496622098 -0.2514400052166895
P 4.291656845660432 2.4373893841582275 5.48879522866581 -0.034812736803811015 -0.027649900506784637 -1.267704010938565
P 6.796166464944814 4.371999675537223 11.820460364388605 -0.8250893730541469 1.729442771246944 0.7899375077433621
