# total energy = -340855.4910062688 ev
CRYSTAL
PRIMVEC
9.39098258941827 0.00000000000000 0.00000000000000
0.00000000000000 9.39098258941827 0.00000000000000
0.00000000000000 0.00000000000000 13.74465227468307
PRIMCOORD
 96 1
Ni 2.1769142560065013 4.159407001881375 8.691183362572454 0.7956283874805523 0.16572251114321138 -0.9653021699620279
Ni 9.493719820918137 3.813443207588317 10.674399214097722 -2.6130149710283317 -0.6485034368338702 -0.33098736592371386
Ni 2.399076728362389 0.1429213622515215 2.082410921187557 -0.015534091079857117 -0.1340730025587304 0.10795110866069794
Ni 1.3133288988025023 1.2419010861153958 0.14817655604322605 0.1557772270050414 -0.44778666900366104 1.15964645860699
Ni 9.077774425238765 7.608930856688894 7.971073435585864 -0.48221116923011786 -1.2937143189593976 -1.1684720273184197
Ni 5.9352605694276805 0.06497057313890048 0.2467799938097367 1.5496740664233115 1.334196081123528 -1.2572972137829443
Ni 7.822134331765857 1.9502441120637344 9.61241902207791 0.9241015273540021 -0.7954509813624236 -0.7346068534918574
Ni 8.166980599144669 5.965133284673235 2.6366225691067515 -2.191383106043168 -2.1241137913725483 -0.4389420741288376
Ni 5.44482590077511 3.598755957280673 0.4381090534131156 0.051139498988292564 -1.5588086817347284 -0.2820433319248433
Ni 6.539645419403593 3.458135385734955 10.726436526175267 -0.7460508336627408 0.8085638645952977 1.325358685337556
Ni 0.37135419360440836 3.609874880528311 6.115861370654284 2.424186469995277 0.5877706377301878 -1.961894151176273
Ni -0.15599736624646324 2.306547378059199 3.922434950166092 0.2098750372907095 4.083831246612476 -1.7348102062064445
Ni 2.138608438500492 3.5092786762811006 11.045738382130175 0.816678266172316 -1.7998647726139325 -0.1574013928720257
Ni 6.607551613663449 4.531477727448448 6.399166651693212 0.1411605055331311 -0.07143373046095439 0.6472417965126273
Ni 0.3089220030278698 7.0047901722572705 3.819735165845004 0.47564662863872276 0.08819603752095778 1.4455189344699364
Ni 1.7883435742349525 8.37116873104787 7.660636667085152 2.0341899725272063 0.7454643650316516 2.010903234085124
Ni 7.226201366015345 8.281682059065824 9.186897641571157 -0.0714401582188576 0.17407731086580988 0.38339441877052033
Ni 5.367012220006591 2.5347858160749017 6.7537100475733 -1.5529797337577769 0.7745581970738145 0.9331926910219929
Ni 4.315973461665682 2.772800266844651 10.107321920190975 -0.6389600161198092 -1.2982898541452224 -0.2926622450912702
Ni 3.145819481641463 2.1006594783284442 12.583504249243443 0.06614445703755706 0.042586981432591174 1.081885243266111
Ni 1.8420412120136633 4.736107235527865 2.200464022753209 -0.1918336064079664 -0.16324396769573177 -0.013468723910396158
Ni 5.036515373846015 1.5384683126022247 4.509235185461936 -4.046679320152528 -0.8829163113649439 -1.1113153756017697
Ni 2.8161584329209552 3.010880454491709 6.202398335041665 0.5731264054544517 0.9920478134869881 -0.39602316327812437
Ni 2.7032694326170232 2.6134071213360714 3.8068422860082793 -0.19593117351610773 0.6008524106148103 -0.8890802740838109
P 3.1853649088338645 2.599583595136305 1.1943019523544351 -0.7017373564573463 -0.8004602616515569 0.020566254187125873
P 5.662584002351316 6.950763850092016 8.606777212108122 -0.9091307649767827 -1.1760277281784908 1.297979779103971
P 8.55986174187117 6.701996724391064 6.037022194599748 -0.1775480430232297 -0.3463998438240421 -1.0177318485166538
P 5.255221964651961 2.3587706315897012 12.399476678512563 0.8268606060219567 -0.32353425207977826 -0.921748196630477
P 6.37640197108122 0.13337542856805534 3.3024141143731884 2.0628315475232992 2.5452419772484167 -0.36152847193536447
P 7.851997656028939 9.526212620273567 11.062451513636782 -0.36013776223542493 0.15881858493452647 0.6654290089446152
P 4.681451717536942 3.93270868499119 4.739829820980031 -0.2621802744523291 -1.0858437136932266 0.9051707518877701
P 6.2206431357895635 4.87650242349424 1.9590669400968053 1.7489029368540847 2.1046497691106656 -0.22258631420979086
Ni 2.7102375416117424 0.39313000376202895 4.546800054450852 -0.37368336213034353 0.011017691266742315 0.7255712256521504
Ni 9.059912776575752 3.742672763674297 1.9236328850309374 -0.04403811205682093 0.12269201441529837 0.16043915125708497
Ni 7.612133181712074 2.01783101291952 12.372358338426244 -0.045887763671050005 0.8701577261476949 -0.5534317552390018
Ni 3.5910271787056676 5.721841101753847 3.4044950329493275 0.47964726515768363 1.6956407350958347 1.587822295358259
Ni 4.020458025215792 7.8589000281463495 7.229151073610009 0.42393917296210215 0.5643188344651507 -0.08590955547962624
Ni 7.140818553373855 7.15309256746563 0.43769678928256556 0.5549381645811992 0.30026474002887643 0.018076654996052738
Ni 4.047673092421581 5.341525093575772 6.819271313509731 0.5093913291893356 -0.474167472990035 -0.38851502782653735
Ni 5.0956503904764 5.62101012294482 10.52816940872108 1.1649154203154133 0.3697210350484858 -1.9226969121515207
Ni 4.390659945270804 3.879180084896987 2.530610585267554 -2.266714371786316 -0.7613725516214758 -0.875958391989872
Ni 2.6742137328465914 8.066647342406691 10.083268796783733 0.10985243944846887 1.0760532099653661 -1.6050772257839647
Ni 8.333463936420111 4.676521451738792 13.412196471972003 2.0407378009480532 -1.0051061893328432 1.5779238052976243
Ni 6.904278486852315 2.1511923550138663 5.0900158009928 4.6411034586434905 0.6770583656534276 0.44222203043168995
Ni 6.492540251320694 7.505723959314282 2.5939865695825954 -0.751749426709415 -0.565749139153774 -0.26434154376970603
Ni 8.79505889789912 8.372821543963058 2.0089593517775914 -0.5038752844671129 0.4723160216035931 0.10267623341500381
Ni 6.258545141049247 -0.004032487873763278 6.421364116963856 -0.3549199654799113 1.3909161595233916 -3.000103807931304
Ni 9.100697813454545 4.049297732389353 8.047232425242699 -0.7549267959961321 -0.3432525564443121 2.279397109460307
Ni 3.867497702700989 9.267340797432023 12.996723442711001 -0.7060997471911 -0.6542819911888603 -1.0168039373857456
Ni 0.5436768437813562 6.437001980977341 12.069220241503288 -1.958795971866923 -0.27359777226065135 -0.5744296976469074
Ni 6.301339848177192 3.0842615915331297 3.117342266391347 2.5502605135089302 -0.5730785829356518 -0.08433372635207412
Ni 6.294202701497965 5.383080191017324 12.91686628415643 -1.5071374786126819 -0.6030913272476582 -1.5106246658303337
Ni 8.231346393012329 4.543592094838188 4.765641875404404 -0.02386060866768149 0.8160421752502139 -1.0869474882803667
Ni 8.641234604996832 5.831959762228342 9.611580407343101 0.8900889178539833 1.6911217641795586 -0.5782966368014815
Ni 1.0166301985610562 1.1279790777394705 11.390426881003444 -0.5164011848482656 -0.07627331794144283 -0.2612960720751629
Ni 7.558858138144633 2.0623724427873804 1.2446413748009202 -0.04272967765804254 -0.9308750986324097 -0.30402369285067643
P 1.6480986419881412 8.332412146383172 11.861016525494774 -0.2435595740273483 1.2054272643865305 0.9304855765034749
P 3.873179247096953 0.5224006338912816 9.559199385307059 -0.45755660390623126 -0.19787107085129793 -0.846923952430735
P 1.0347735766982489 2.3814498542611924 9.421848753858322 -0.2539077500308917 -0.6637896735689793 -1.4068210036791062
P 4.725589335158478 3.9682347716852897 8.438268239913324 -0.11450356506723505 0.5601796154857965 -0.6531882439040493
P 1.7699090756411069 5.081188277468493 4.769806776131031 -0.31066459520596174 -0.5490824771313704 -0.5732392768832321
P 0.4515297064648042 6.410951395598163 1.5136019301128494 0.6977619167493659 0.15197970763582214 -0.8569047177925307
P 1.9858734995650336 5.025837826774593 12.615391330229386 -0.10143207659525758 -2.777297921511539 1.325092319050047
P 2.954628469480433 6.887318372506677 1.7022479860237874 -0.9298515424639017 0.46008734074788504 0.017472188642834424
Ni 5.929400596364736 0.6950172218196239 8.364197804758408 -1.3775173696189824 1.11742200272014 2.5284765848646193
Ni -0.026884504622751545 8.252447930628412 10.244123179165058 1.1545759860626181 -0.2276004795949306 1.1283864721514438
Ni 5.905688365621251 5.739129900486027 4.536216417204156 0.22427321499391056 0.10077310285501997 -1.0881247964179195
Ni 7.3252950130669285 7.313002217010207 11.788801748476457 0.7460840008935216 0.30335649158032274 -1.2318258089847174
Ni 8.044024465630036 0.060603766289110246 13.421336715212647 0.5315820063537618 -0.3511088192639373 -0.2706512880378178
Ni 5.005496958738796 7.913799711681561 10.508817411139656 0.024387684815745096 0.34915992306768256 0.3709081133780515
Ni 4.0154432405753875 4.283593354099926 11.803783182815103 1.4795346292937486 0.16621642006049436 3.3151007119640323
Ni 9.133200003792446 0.21513895656457924 4.119231439765057 -0.43503502576494746 -3.011520534408678 -1.0942455646036768
Ni 1.7343360340346439 6.276303488905061 6.683653318327202 -0.8002373470074734 -1.5381228712506028 0.12463962505997243
Ni 0.27652874808665173 0.5201111123644452 8.530686776623336 -1.5403831280396891 0.664416765630017 0.2025509928254705
Ni 6.8238541129563925 4.617311307248626 8.76764474186491 -0.612902399800809 0.7296723923047176 -0.47191441528980016
Ni 4.641136229781782 8.563373969315949 3.5739534334721115 -3.4365832794522615 0.45644665867150425 -2.0484678226024595
Ni 4.720950189816981 7.905188180754125 1.0233785585659148 -1.7627622113346804 -1.8226959115758352 0.5074555456192034
Ni 9.107233937255522 1.5041818355945171 5.901994892214752 0.43062918338776807 -1.451284376198804 3.4823134344995252
Ni 0.4316893777948004 8.223166847278636 -0.10270823620531346 1.688393052394486 -1.3092558662384226 0.7648571677359667
Ni 2.315271600776307 1.357006358282877 7.861198940655657 0.8977739452030667 0.03823076134642448 0.3957665671826281
Ni 6.330724232334167 7.257895931860596 6.650830895486984 0.99025986834863 -2.959956032067825 0.282350578752617
Ni 2.830902275403043 6.815561875433027 -0.653509079290435 1.5680168305965576 1.768285712256071 0.7798302441060312
Ni 5.633894550897318 0.7324534343486643 10.70987458948647 1.4414776745210272 1.362292325139112 1.7138073787025323
Ni 0.8886733668797298 8.575582246530416 5.736949314355873 -1.8046418822876016 0.3306356390112499 -0.1935775856822666
Ni 7.340414494847923 8.032614421925745 4.667175545981994 1.1258804179001385 -0.1723886103094773 0.004931118753030217
Ni 2.5329827474401494 5.814999647882704 10.728292184311865 0.6441996672521938 0.4981039292009744 -1.3035649865012324
Ni 4.803356061014635 1.1030084553446486 1.8370001326223355 -0.5927233537497728 1.1684671422224135 1.0544582574034098
Ni 2.4109187572604216 7.336291853542421 4.745863527218719 1.974551177818651 -0.12378139082473523 -0.7146183261850725
P 1.7278844290759212 6.433395843707838 8.801030623653489 -0.8565730454847248 0.12166100204762273 0.23529450580507866
P 0.07259041631722261 1.1062859082276095 2.1755581981374483 0.5289443116205986 0.27936295687920276 -1.6421183376976622
P 4.640187740552043 7.371949413991138 5.140609719064295 -0.17387085128195864 -1.66585167675886 2.413314303167463
P 3.8960650713828424 0.9080920404367109 6.376185039386101 -0.20494828941305346 -0.647501220821601 -0.06256419588546644
P 8.016659142704684 5.020663395432154 11.381630347721297 -2.9094973611966406 1.587938509221149 1.0826465469121676
P 5.2945889631773815 7.244786120328753 12.668569646677359 -0.7229875240853743 0.8651756995520713 0.07823764075666526
P 9.732438595373337 2.795207151024435 12.856926460328138 -0.7587659672365642 0.8298068331344741 -0.18494433548730085
P 7.396957600315851 1.8384914206389953 7.16427628849233 1.0393535405514875 0.30142353622366796 1.3976434509448963
