# total energy = -340858.4579176024 ev
CRYSTAL
PRIMVEC
9.34531611967266 0.00000000000000 0.00000000000000

0.00000000000000 9.34531611967266 0.00000000000000

0.00000000000000 0.00000000000000 13.67781478016634

PRIMCOORD
 96 1
Ni 8.17556285499673 2.085939963393179 8.964972917565458 0.4026828346864872 -0.5108208625470105 0.26900089691858836
Ni 1.1574547761768172 0.21621323252883914 11.909082041022792 -2.2997214228399554 -2.4444452202443125 -1.475334732279788
Ni 0.4995183581667309 2.320600849838509 2.6601432839734964 -0.729187482248499 0.45832793485461715 -0.16437551019701369
Ni 7.052994143698464 3.8260191244583934 2.949784533904894 -0.2686216592022987 -0.8862772574173768 -5.895511780914415
Ni 1.8668390281996008 7.966087595352283 8.667152647012118 1.3186589047198776 -1.2973557723667268 -0.17404465785566156
Ni 0.16926329913924565 6.427185053263916 7.717570408774238 0.27375898042886404 -0.9652780015923117 -0.11335890993983058
Ni 4.2976959169979665 7.700138590714243 3.8765529865597266 0.20051185090825469 1.6158930854525462 1.2904310202224356
Ni 0.8166619387520498 7.033041893895167 5.647501595657844 2.749846510168806 0.584537989725503 -1.6462614133317581
Ni 6.631202648325165 1.6398226102971734 6.14386964777835 -0.8310928989357492 -0.6590943249758392 2.1694076302133416
Ni 4.923738640334193 6.545085560766674 10.434900485357248 -0.045807545252417876 0.617405172767169 3.0602344546746134
Ni 8.321985267136332 4.35141279375176 9.300394067314846 1.1018627148293023 -0.7218935196902471 -2.9574196387992164
Ni 8.655827993001985 8.438455941280823 6.873033261257189 -1.5249585659545029 0.7140740236458282 -1.9030246305335745
Ni 2.436183718956623 6.237979784169047 11.66489173578382 -0.32347820203086225 -0.1542772454207472 -0.249663372932241
Ni 1.9934213343287124 7.943761635267938 13.64486516029195 -0.5654994850368131 -0.01147997561514152 -1.630397449716308
Ni 8.026813459156415 8.664977057431694 10.844113185304204 -1.235246661740808 0.724480820801449 -1.2178446642142768
Ni 4.8428268938250865 8.495032484751155 6.2251430580192535 0.09552419575125484 0.17896703485794338 -0.3838425620515325
Ni 9.224481130370041 9.320205202845528 2.5702114383964076 0.014747076402187505 0.4402913890678804 -1.597729527169642
Ni 4.1120699039568045 6.250315601377642 13.315229695719715 0.8294491926847393 -0.5291661978234177 0.29753782801601664
Ni 1.9092106912479132 5.046302460554443 7.836293304090902 1.7692048816362307 -0.8782461595827843 0.7897541880879624
Ni 6.363178983520226 4.059567918291736 6.772077680847327 -0.21809948208303082 0.3231866389323724 0.7260607636940593
Ni 4.1954675045397645 2.7512049782630994 5.793949240150829 -1.3492172371227087 0.4057969548354366 1.9027230401327553
Ni 3.051554091344201 0.5837187213998563 1.240243062152201 -0.196587576153184 -1.4527923282028978 0.31233555515048145
Ni 7.610292722044972 3.3526882109749403 4.86139603685045 3.7042186634818917 0.33962241589089254 5.3623166644372615
Ni 7.780751287109201 1.543061207738235 3.8600706526121504 0.4621077136120235 -3.0917957744206626 -0.8453540368404537
P 2.919018818880335 8.086791697675176 10.895350749705393 0.13548916617996665 1.7398164011717843 0.00933259025483554
P 4.916589473542848 0.865026752994205 1.9451079193249263 2.0131282667609005 0.42166528932626085 1.4769496421753918
P 2.3134236470989626 8.273006465628567 3.258137910197482 -1.2497499975633057 1.2174795675653742 0.06966583992725423
P 2.293022822124444 5.7589575732007185 3.9324267622618105 0.0074248317091614065 0.49650907391002874 -0.6645957144100425
P 1.16441703664682 1.948208695195996 8.451453406866971 -0.7812834316127899 -0.27413307593883113 1.082073448017517
P 5.467879013658198 3.0622264422928493 4.307116930125228 1.1076255854550086 1.3537413502453073 -1.7480621861203443
P 3.1558010920729007 5.827514811869095 9.425600742918878 -1.378984441082812 -0.7464177300838564 0.21388904354610905
P 5.234264802612386 6.362356595706319 5.896041210994451 -0.17399632111622937 -0.3418975850783144 0.002606327274595511
Ni 8.892273834816134 1.676269342958933 6.480015059522939 -0.8113555684078221 -0.8695056943859928 1.199316266392786
Ni 3.3003077144187443 2.8348362117477373 9.51118327839833 -0.02959494004829742 -0.39168057003871254 -0.1178359718745777
Ni 7.04399460432583 1.4011525832590501 1.5581763219451914 2.3367278248609757 -2.0980790578716833 -0.3325295135998531
Ni 1.8157762212088688 2.185504960772253 6.476978766332733 1.3226389724135479 -0.3393876741722671 -0.7615345311206368
Ni 8.302350758079319 8.001973609050015 0.734628754314889 -1.1897427637717382 0.5226924171736159 0.07269434234093286
Ni 6.695236754017058 8.766784930666875 2.9350675301623967 1.1414649026019568 0.7590318193034411 1.5407525955639658
Ni 7.277571434107373 6.090118193355108 8.12411595551564 -0.9931559589495026 -0.3345061777102497 -0.553882469623175
Ni 9.175950904033497 9.036565514892434 8.88264629020379 0.7369121045862663 2.2331918145488383 0.5513332208387601
Ni 7.289439985512613 2.2989010259306615 12.645974230889134 0.2074250330883202 1.2039635353568103 2.136078934154224
Ni 4.948288785642512 1.211124926350275 13.163269249278738 1.1984958273740198 0.04875737190936119 1.972452900528726
Ni 6.6820692036784886 0.12692060657074128 8.290506504495852 -0.16909991225587653 -0.20754433227500385 -0.0915533840289649
Ni 3.1133546664960514 7.0972629059084005 1.6653558828557529 0.9600491490932046 -1.005289508988243 0.9587520275483359
Ni 0.7275777133422487 7.227695482257165 2.027585940806882 -0.035256252099132836 -1.5640889562970612 0.7427387385703725
Ni 4.328040158267898 3.9418730077424535 12.264171342967035 2.9743066443625423 -0.8671911873202034 -0.6688447194943835
Ni 4.567411084011056 5.718623189055038 3.1520526857983797 -0.1870467265422843 -2.4044859062425554 -0.273301066955839
Ni 6.422521740546424 1.204770111424635 10.906443639877061 1.461170524964264 -0.784392666665733 -1.4334501762308602
Ni 7.765667946976873 5.827683027558304 10.878061914981224 -0.0041878128291024655 0.4215359628372482 0.21535045858298393
Ni 3.140605608147767 2.4498465710467494 3.5970186959549166 0.03515263664173301 0.1749406873073697 -0.6009038326780362
Ni 9.47895408687766 4.411914369970281 12.46743757461649 -3.5186395226240696 1.2675916537304168 -0.8989589666501033
Ni 1.1764070771609323 4.6575560027944745 1.8022432690120753 0.32899784629751083 0.7132754390039329 0.021698825129672306
Ni 1.2210029254332186 2.670358648966463 10.65282951791601 -1.4938351050768208 0.11788842237906792 -0.3085213236107138
Ni 9.270058236829374 5.125634848648208 3.745218587210485 -0.22239630968617183 0.18443551417168236 0.3748951230502576
Ni 1.8671380783137486 4.279837017993704 5.362100315626098 -0.24956489968116374 -0.34851817571862553 -0.13662585088757115
Ni 5.8426355332656925 5.123148994574355 1.2241111775571423 -0.7510552288558678 1.9571584362635002 -0.15514576406862957
P 8.311668038198235 3.2081068261005594 0.9927080682928097 0.2847861847773031 0.16360469346926015 -0.27488178117939754
P 8.57325278023293 5.658607569272007 5.8369255451486834 -1.412841241731257 -1.7967933327774603 0.6326145335177557
P 9.083292095228023 7.016696936093778 9.612658458381523 0.02968261466609727 0.7101104110123899 1.5034055223740752
P 4.887282562356367 2.9559888892418535 7.951447223201535 -0.02862871948028618 -0.7855779452230858 -1.0977494639918772
P 6.552496396407899 8.977138650021631 13.522612539096736 -0.27267140379164007 0.30421061205050187 0.30765769005883786
P 7.2988600641082675 6.605045108653302 2.5349235249269704 -0.005188486179474935 -0.5444498634553656 -0.2887755084423543
P 6.304714686204336 7.5519031872576186 9.273845893431377 1.189905000381215 1.9590942198336323 0.7988240115997145
P 6.833463323965798 8.838136418839321 5.289949802929915 -0.20028662227132601 1.3377763422756186 0.6851347149036588
Ni 2.6815449922988024 1.577087503538611 12.492631612201833 2.0388994621877337 1.8601034056900159 -0.002441005341324828
Ni 9.353166132614254 3.9355181928168133 7.07591633494789 -1.238389578245164 -0.003925560306651304 -0.3041039112693085
Ni 0.37104175647081455 2.2365023505505155 12.890464520773861 -0.8376399560256478 -0.23918278511589133 0.46013310638415594
Ni 2.0314754613540162 2.6752836305338343 1.013861191210731 0.8341473694913569 -0.059097834603420794 -0.6061838501300527
Ni 9.135859498105562 7.466860811046846 12.259370654103357 2.0685093146343663 -2.085677084662905 1.0586563546451575
Ni 6.682891591492395 5.235367549908306 4.491862614392868 -1.8183142375683716 4.4883560196037084 1.6042503590072952
Ni 3.73867780049511 1.0804026452034303 7.375570156513598 0.16175915562008916 -0.8098877256130439 1.210075047571187
Ni 8.1777029323761 7.392556202997191 4.600915911174887 -0.5737280435941925 0.13665079058823562 -1.9405591371439224
Ni 2.9839126936504017 0.37753207847942793 4.780396444370313 -0.4156733334088841 -0.0004998224545539779 0.8593698915035717
Ni 0.3692960514294769 0.0373971513057856 4.7446421996291255 0.9728244464810019 0.3050001978313328 0.7782230475199113
Ni 4.607259511721246 7.034415655357034 8.168185662493347 -0.7889293781938218 -0.5060440099836575 -1.6925199300786657
Ni 0.7377482208180931 5.2016309589060095 10.271778927937312 1.983642341486642 0.3890986682441492 -0.0919868720219577
Ni 4.671630048791554 0.2064174722272862 9.88062044410042 -0.6496812591920553 -1.9099270140803626 -1.4217300595804545
Ni 4.940279849772992 4.515591306418887 9.395523777688465 0.048428784925348856 0.008820940725739647 -1.1336947717382346
Ni 3.049797171923583 6.366216211242039 6.21387260684231 0.8807265028024767 0.36427363878066943 -0.6147127135366703
Ni 2.212765247740036 4.079043556975609 12.527811120004891 0.418152391076996 -0.4452194224971171 1.0405771285459435
Ni 5.459122452503309 7.614040193787885 1.565206803222484 -0.7405314465064085 -0.39099202861212023 -2.1191340787697697
Ni 5.341745282700308 0.9374566906407953 4.423897868763147 -1.1235034330275295 -0.996402233800942 -2.0773384828902226
Ni 5.655701175975134 2.95956814529556 1.1050032552185114 -2.278442715966837 0.06654734890293056 -1.0125945272900885
Ni 2.3350580537943406 0.588855841641951 9.905432258258617 -0.3372832262347546 0.5999746359955473 -0.8615293610487357
Ni 8.007356511104675 5.547678667555318 0.4409839709803381 0.9569720528297777 -0.3621270247513118 0.517511901413941
Ni 4.78386729475764 8.442119305179133 12.133206083602445 -1.3675826270037739 0.046827758986816126 -0.1303518449534013
Ni 6.737776632754578 7.298635776522657 12.146159626203078 -1.0000264608170906 -0.5409145966085974 1.959167239163413
Ni 6.734832858193435 3.836401770608961 10.606693561555863 -1.3798362475601462 -2.0299237410516846 2.209382370834066
P 6.4986019586488295 4.960998415493792 12.540655322407536 -0.6746363864754963 0.3196554858506624 0.2786682448050233
P 3.6411220460704663 4.153628524507278 0.8093632469036307 0.6749863136157472 0.7460822011213086 -0.20165959135945266
P 8.56969221481136 1.3767332723756711 11.060537621976161 1.1867754536132982 0.9713038960714175 0.2648166836339117
P 1.1323065306402031 0.595035899157136 0.3586545400238498 -1.3382391408446501 -0.39974406377313737 1.4731778338377854
P 1.0046121318991044 5.9220146479397915 13.718984731083475 0.03573756261092555 1.1970794066424675 -0.38943676830985835
P 0.4722543330725212 2.4579396147608734 4.765158906522877 0.3731380311498348 0.3598230592084835 -0.4627661731316288
P 4.521207841375225 1.8247851058975704 11.230415842912624 -2.1739399708660563 2.111214566812377 -0.8527804112115118
P 2.3470854755727215 8.483603163201069 6.5633126652239815 0.45380099351854103 0.40456051132517423 0.11481029767437648
