# total energy = -340886.4294997764 ev
CRYSTAL
PRIMVEC
9.10372577085904 0.00000000000000 0.00000000000000

0.00000000000000 9.10372577085904 0.00000000000000

0.00000000000000 0.00000000000000 13.32422288435828

PRIMCOORD
 96 1
Ni 6.277637788629236 2.4228017796667833 11.686875753254967 -0.11378905549871371 -0.9617419634145953 -0.33524485564848716
Ni 4.864393648774682 1.104518600548794 5.886841253528613 -0.6539168945399576 -1.6055176557554929 0.8899269383548222
Ni 2.6710148555446898 1.9114455180837282 4.82204949033599 0.22494247314679325 1.4609044157870712 0.4066233073914739
Ni 3.300528370449562 4.831474577350713 4.686622469732296 2.2007277804828616 -1.2784838751628886 2.600360001268483
Ni 3.9213842423997347 3.211503038741877 2.502235426183016 -1.099952385180467 -0.41002719086670025 0.9201895938941055
Ni 5.400366384121678 5.09519129776264 2.904814002831454 0.13010193372612433 -1.7426083620946249 -0.9447503139526051
Ni 5.318624032817525 3.033707279640629 0.5660996941587608 0.2375128536126361 0.008880333208765351 -0.4654573468105468
Ni 5.621668847408531 8.211888139101527 12.418948198202392 -0.4892181966755703 -0.15383321590479315 0.2965813776400183
Ni 2.6185773966392527 5.1198623938796075 11.346627654017615 -0.41885867311540126 0.9178290640817289 0.7480033294034214
Ni 0.8348325673236212 0.020484292757486783 0.6222014025797253 0.4189157516055817 0.6570153309596233 -1.1654206420866058
Ni 8.021237919588044 0.38931353821595316 6.923119238068854 1.1360781843687466 -1.0200126741310305 -0.3338420617636896
Ni 8.35264994285081 2.4363663306683634 1.2347583183600723 1.91690910182515 0.5352381150491105 0.6376145578355082
Ni 0.5536457976687196 0.4122776858008429 4.567916261762562 -0.15462023058246274 -0.12428815525782466 0.7331912040912534
Ni 2.1152324135000837 6.8398292534289515 0.6193009556340183 1.1672178431963447 0.6330513639448581 -0.39140289089729363
Ni 7.8759970828905885 4.194441385179193 3.60017840579997 0.3165045989265065 -0.1883047673191015 0.5105663233340432
Ni 7.857725905803226 4.206567547551075 12.88323091594721 1.2441869016532314 0.24756689541452848 -1.4746593034793183
Ni 8.608027650700691 7.061996570638723 9.57749066264637 0.4647621205157351 -0.3910164540921524 -0.9690999464415633
Ni 7.045263923161606 0.7880785642505911 0.26821760230131036 -0.9549138847491684 0.023174124123618155 -0.7386645685009989
Ni 1.9949448884102332 6.551259362389969 9.441957128454275 0.021343755783098724 0.5636961132794873 -0.6773507000828657
Ni 0.3826769223232338 5.355840062679579 1.5796802702713915 -0.6097103752260725 -0.819803699175175 0.23478362760693114
Ni 6.717138344805934 2.204913213444087 7.12474126756026 -0.4410557780377307 2.2015381921992985 -1.0539057273340495
Ni 3.435263507914921 4.5724280681225515 0.40353082633619985 -0.004720031183488646 0.13344771026990565 0.37617501820394567
Ni 6.099159250115157 6.203879404592456 4.8637008552637955 0.3426018102341906 -0.291154293087176 1.1681038453457238
Ni 5.943294365754049 3.3705633307550356 9.11629957008285 -0.11599943288647119 -0.6474446565520526 0.6836907833682806
P 0.5894516604501386 5.864792940729468 12.767802959531616 -0.7415899696779099 -0.47324367562418496 -1.3410593839022646
P 4.090640706977839 6.360308719934839 12.5439960613585 0.09014699059974152 0.7273478579365991 1.3860668018508902
P 2.8350275742322513 8.731719969129193 1.7038350579555177 -1.1014073724594386 -0.194860051939116 -1.8540314884643232
P 6.347053695600409 8.383001763682532 5.80660283767779 -0.15351774154690334 0.10957476030704999 1.4851167513672165
P 4.720709549138482 1.1992701755987571 12.635613223717293 -0.1576387056938124 -0.4593826013713766 -0.25079800075731645
P 4.011702303129048 6.494597774850482 8.226641636653984 1.5574735078630724 0.07404211461807894 0.8728252456775291
P 4.896484281177749 1.4865928562436352 3.75713755796671 -1.6392037351540285 -0.18993458961304063 0.21378928474345119
P 0.16002619728917752 6.077337620081072 3.721988073794159 0.9300842272999983 -0.7782032500255693 0.5545393864808837
Ni 0.8062450484946536 7.875824112106005 2.6571034526013917 0.6345989109376361 -0.36979919658458893 0.33272003234410447
Ni 1.9262663832049176 6.812536284366711 4.813628544244406 -0.8866390116321697 0.9412875522149853 -0.8952262390805485
Ni 6.1322694997747185 5.692841773402056 9.074981401508508 -0.6559627213253929 1.60478000625852 0.44817002048500876
Ni 8.41033114764679 2.303834294775073 10.598606392359006 0.5966008344273079 1.6961618977066275 -0.39144479987882264
Ni 2.5172802429516143 5.855589074244503 6.917430320001144 -1.150518785274109 -1.121786707446739 0.40442192886478084
Ni 0.34348447365417184 0.41943503479241484 9.182734006951327 0.21689620580354904 -0.25860284151371593 -0.7560912486178785
Ni 1.3893104455034442 1.4043133851347223 11.239368470497135 0.9669510184193605 -1.1851667143652815 0.6739193058038135
Ni 4.59825533737858 6.883618173105193 1.4511010719921185 -1.530367652785216 1.8138130072639085 0.5206316779898453
Ni 5.653158633928306 8.392961239384364 8.003407362815095 0.07937278280237298 -0.09950297789334477 -0.4037526707118982
Ni 7.0084939758492695 1.2501053788154168 4.7427569515650765 0.4430476116567789 -0.49438354292659364 0.2537848512997823
Ni 0.8745748810131498 7.993298586014991 6.814953323488134 -0.8990888073597483 -0.7296446243905756 0.9496896602357514
Ni 5.025975672752564 5.142530670385604 6.710704741991964 0.9129064299691311 1.6386828296535523 0.6820612181846576
Ni 0.6858500994438508 7.733123214824282 11.598815416450751 2.974696423601793 -2.6592619178110137 0.6534332700353198
Ni 4.664985645325951 0.15507650173242649 10.277279476210033 0.024780035158157323 0.68758857576079 -0.09348016873803254
Ni 8.011369481141257 7.683271213962098 4.657588868353613 1.7086692861450186 0.5661720856238056 0.5659003200196576
Ni 7.638171357813221 7.012654378404788 7.2264590133662026 -0.2870119887840282 -0.15092812644285622 -0.5251961574320761
Ni 2.7129921338455527 5.643162743324457 2.7724239850560326 -1.5580206386157942 0.16086415460964554 -3.2586125470693172
Ni 3.776106990800262 4.418502277293883 9.209755684993533 -0.1713398573299888 0.9257465191565927 0.10687664464959658
Ni 1.3938258933536347 3.8694474883970402 3.822186407813415 -1.390443333652031 -0.5691339964656069 -0.6686778548992162
Ni 1.611805496831375 1.3350613452226285 2.54328776597263 -0.20500639634449855 1.4214174134360422 0.11534457291129169
Ni 1.2909902100557498 3.8700665417313407 8.31033127484353 -0.5289661659974697 1.5232446685871894 0.47172775320029076
Ni 5.421223019252295 3.3450364844406524 4.941394779836135 0.23249251757990927 0.5439171308803471 -0.5312981565647559
Ni 3.7986114002471782 7.551230779246047 6.064027063021065 1.9890956512917293 0.7164795477635274 -1.3585765668504215
Ni 8.254429848383664 7.478346352857691 13.96924801515338 1.2624283643619227 -0.6432936104981567 -1.6316665462367188
P 0.4550360637499847 5.933435031032766 7.650035332890576 0.2143451572469212 2.4644291195654073 3.8901539021275524
P 8.731583413246627 2.3248001746117435 8.033266672097028 -0.5567181392997573 -0.924585408968956 0.636824200723729
P 1.8119782132224773 3.2839504863060203 10.374319727851807 -0.7063851396420029 2.10178710285089 0.5196286906466276
P 4.204309823625979 6.650526385290121 3.7779231840383924 -0.23029473859764207 1.6290399072471493 1.1750712778024925
P 7.190004054956319 4.227870265231409 10.750675933557325 -0.46338349500065357 0.8158501138440659 -1.1170700186973601
P 6.729655967374507 7.975191275986707 9.897658674538633 -0.9839190137322669 0.21853399851728814 0.8300672858847123
P 2.2423932513457685 9.254756310534415 5.956993651893094 1.6762497321637326 0.03928182831875816 -0.2825110155898812
P 7.056661787493136 4.170844528671746 1.4681823921560544 -1.2359606570886972 1.2475182800193096 1.4204738185758503
Ni 2.7966189563291195 1.9856681921212331 0.3920746981614426 0.46891496634184404 -1.3221725743000907 0.7575367228151534
Ni 1.6978539102991166 1.7554076629380353 7.491130714583543 0.4407145926482281 -0.9919727372746787 -1.6075645109821928
Ni 7.0137104105633 1.0109960284419268 9.254551476710565 -0.7022662323776228 -0.5781248871103075 0.05118449329361507
Ni 3.1093774460333363 2.037104241221184 9.449352084681511 0.9963150734037743 -2.1105319389230552 -1.6487510125228315
Ni 6.427120961411749 2.3809064348954605 2.702805065006111 0.7328880710285378 0.6553286872858198 -0.7848819475973257
Ni 4.37161809094614 6.834139424988691 10.490133682228786 0.33168413488042237 0.181247603362004 -0.651522169055536
Ni 7.066766922803037 6.414412160607585 11.522574446468916 0.8688832303106455 -0.13328598788106077 -0.9560572543249922
Ni 7.846127759510599 4.610308669946427 7.91933172666416 0.604014610392876 -1.2944242005422288 0.2871595701054861
Ni 2.9325557855610613 8.767825344479709 12.246253256501268 0.7858959906841368 -0.2336042625868493 0.22169002764776663
Ni 9.406970600968252 4.8719588446688515 10.530759057292244 -1.0546276931017384 -0.010665707243962276 0.4821569189534147
Ni 8.901249545472432 2.857641228385221 5.682713878778393 -0.34658676302386765 -1.7892273475047442 0.17165687434977533
Ni 3.5622786861525353 2.871178468210288 11.646596319760679 0.9562518868343014 -0.26560678363537477 0.30955799240534426
Ni 1.1895656042110496 3.371774126247123 12.630683556356653 -0.9204166223032471 0.9791429324998622 0.4268288358050714
Ni 3.2772592480602745 8.59501842695488 8.050907871379486 -1.6592660531215422 1.3251949060661823 1.4984391795077354
Ni 5.895117450384678 8.186488744944205 3.6332221982633492 -1.5908142881070473 1.2601675933522039 -1.016072972756992
Ni 3.2252587679790494 8.935497760820045 3.741881534766409 1.0093837336622746 -0.8433241508946184 1.1565796467562082
Ni 4.175469221227989 3.1779558102581027 7.0216916467130215 -1.604029758356057 -1.6599016298230125 0.647897170708439
Ni 5.206748350093755 4.593066213841063 11.818678580735355 0.021077646605905637 0.3745639649630839 -0.8597799824577966
Ni 7.931775609056146 0.22580243480368511 2.5795560980096734 0.3734018263341827 -0.20236510206690952 -0.07364847872408607
Ni 4.917759687681569 0.7095234272455346 1.5751493460878434 -0.9921303458984656 -0.7259790026135303 0.1103751447211583
Ni 6.22534598933187 5.868889617206456 0.3200396493626489 0.59805247927217 -0.04777289650890482 0.5293099224901335
Ni 8.278363542734773 9.07618673476529 11.386973544708088 -3.7194460219546075 0.951361905731852 -0.9606618429765391
Ni 0.1759795658631164 5.061744210259414 5.874609487940879 0.010814059896368472 0.9450765869437723 -2.335844393814758
Ni 7.420501281002631 6.422641928463577 2.7098003676837044 -0.615663507485714 0.14828580372400268 -1.2230390639310227
P 8.72670381637626 2.08894085424333 3.4446048406550025 0.11355739910388185 0.19873444729285775 0.9812180698613359
P 1.7315650058419696 3.6039555415117523 1.5756291124219262 1.3566569812302056 -0.723564993855399 0.30855114840738473
P 4.924906112202536 1.5395583312283285 8.274529053552314 0.27693557838463273 -1.1119620080468333 0.4409650180961373
P 8.89042521584768 1.5087604278468885 12.661968509052578 -0.09221390043109925 1.0831754228324442 0.6707275383393932
P 6.473777554621882 8.147233480569163 1.4221475833978734 -1.2102917915676834 -0.7742131550295699 -0.13110234996618067
P 2.1432536806026765 3.7987661635807535 6.265249438962827 0.18398479978750892 -1.8028359394271145 -1.380331699139326
P 7.088570345386114 4.4645762320717335 5.90297669661264 -0.5988875735789557 -0.553074371899583 -0.4260022261387179
P 2.1921679977379047 8.816858010046493 10.138734429621076 0.934712727210945 -1.0416207393191093 -0.456330187698298
