# total energy = -340897.6006090591 ev
CRYSTAL
PRIMVEC
9.00131661232153 0.00000000000000 0.00000000000000

0.00000000000000 9.00131661232153 0.00000000000000

0.00000000000000 0.00000000000000 13.17433672916268

PRIMCOORD
 96 1
Ni 6.5443351400106256 1.9691820021945974 11.315121090052031 -0.6788961901931146 0.9011032666866159 -0.005124722821075046
Ni 4.638036334781423 0.24971812245816719 6.012833505379171 -0.35570620882663256 -0.2428646048428527 -0.6300202904280182
Ni 2.882599593843661 1.7205926448236706 4.984695035258271 0.27404000200439255 -0.7494025237437931 -0.4998131985825974
Ni 3.126580277174181 4.311783618776453 4.979557083808537 1.590405996925035 0.5756681980396988 -0.5449867097954421
Ni 5.1294001990738565 4.403002960037161 2.5520136440827303 -0.3435055529953826 -0.004028661543418868 0.02839269221008013
Ni 7.091723198106756 5.8871130181624585 2.5372055783329786 0.309749282480544 0.8009793673798206 -0.638631686246113
Ni 5.026587162180251 4.523143531164719 11.376461461371868 0.5950250052997559 0.4537282312990767 0.351618154800188
Ni 5.524296954594729 7.858239304717851 12.305383820666634 0.369837248911376 0.17642241405921874 0.1503660832917991
Ni 1.961080817357945 6.488103915927772 0.3617530080908297 -1.2470140866893815 0.025785336494220108 0.4080330432548069
Ni 2.8199414297903953 1.4607696444792522 0.5986118498182837 0.057944180614951823 0.39216059499892464 -1.188025009749683
Ni 0.3486947982657943 0.05514566531474261 4.5537093015534085 0.7839967167788949 0.2861429559155137 0.8359895649064183
Ni 8.736776794986882 2.2605906220854757 1.2689794942613934 -0.31095770096634834 -0.21278269785580775 0.46186937234897235
Ni 6.931220723859697 0.5257776974785345 4.644124825251992 -1.4204537639711925 0.23925451889409113 0.8282220051458574
Ni 0.599319353294018 7.584590282252213 2.5791526132855167 0.8972741227485127 -1.245867631789764 -0.4466155315136953
Ni 7.58441025592251 3.7671409622083 3.723173131704841 0.5049896005772141 0.27115625269869426 0.3248696830617502
Ni 7.757001498209149 3.8530135214768175 12.59867101530797 -0.18847060347300446 -0.3243971143007058 -0.8243275551874577
Ni 7.884991217311776 8.85211066311136 6.828430190257304 0.20512955218592416 -0.09778625231255417 0.29056242513944797
Ni 6.782951038715985 0.7784347497691095 0.29325929056022926 0.3112518351679995 -0.7324820938393708 0.7181453655017246
Ni 1.7773459452626643 6.593662354349354 9.022114927040162 0.33241741350202103 -0.207488539336404 0.538078669821699
Ni 0.042406102093282175 4.832824823520491 1.3739123411872574 -0.09749031833869017 -0.41352671937952656 0.5823630935613713
Ni 6.363786733951095 1.9331857375704047 6.8499964444241215 -0.13417558957486572 0.38943753964080674 0.6193653818173332
Ni 3.3348977445904593 4.355007940538237 0.4998998127153206 0.806776690787888 -0.062039947950880255 -0.23785043945771295
Ni 6.035562729635873 5.618441723713117 4.754222627577045 -0.5092416909853488 -0.39538578680444164 0.3126978235859066
Ni 5.427604812911039 2.8469273766129337 9.234274156332312 -0.01414852358624015 -0.31441994848333593 -0.23114088864802126
P 0.16810858667702616 5.582769506482391 12.539386544673345 0.7676545279754456 -0.14356962919525595 -1.4848069334362815
P 3.9360416647360212 6.2004848502771495 12.51332773344878 0.40072056875379375 -0.5001759812386547 0.27876054740851347
P 2.3695695607714233 8.435511733544745 1.505233447521044 0.2650686517437177 -0.12556496508771925 -0.06662396777713687
P 6.296348870844205 7.683595762272593 5.7796336988029395 -0.6145005975258643 -0.037121330332329616 -0.8176131192817596
P 4.772236962258814 1.021766438181049 12.568711933650379 -0.40718226521873746 -0.6686490585438098 -0.5530358053521638
P 3.828043869546957 6.132506908181149 8.18305451048014 -0.10753099040414385 0.2626579854196961 -0.30212621871764744
P 4.732847201319713 0.9535184565904935 3.8387905412986014 0.28404493573590434 0.1239711382380381 0.19181509446520512
P 0.0398695311077614 5.5652259406527955 3.5600746777834607 1.2989467710029308 -1.1866546117647176 -0.7855365504621891
Ni 1.690285212218105 1.1247685027208438 2.75990534922926 -1.2539735487263501 -0.3625219461968853 -0.3021475588738861
Ni 1.6375464989314965 6.570726999945143 4.773773486982834 0.7191241844752261 -0.9312363386265705 -1.0508831384576418
Ni 5.83891996970086 5.7518592366562995 9.20880853186412 0.3960771564445114 -0.7094933462536813 -0.048772284307696645
Ni 8.771899931912014 2.174538036487255 10.160364701460846 -0.1994798100993145 1.3945128757357144 -0.27610485495322123
Ni 2.095794519874992 5.168717949481078 7.062432014132365 1.12310028405184 0.6420188575507911 0.2831131679502543
Ni 0.6308644669162947 9.0023066299829 9.136494655617213 -0.380416567089119 0.15053757587265687 -0.6285951279457175
Ni 1.4826518448546993 1.067970195699424 11.391770000318195 0.7064707573772736 0.0917043077845324 -0.07794402077564641
Ni 4.009357387507727 6.823736003710288 1.6119854605085606 0.4682706478896258 -0.19996857681027497 -0.062066687423757615
Ni 5.525098071761909 7.729259440801858 7.824238631958421 -0.5171712302450706 0.9764692423224409 0.816132163860859
Ni 5.279164102754108 3.0531745412376234 4.730930821040021 -0.2319027065147103 -0.4100143353508939 0.26752302682148116
Ni 0.7627112501328154 7.392925250333499 6.723615260577396 -0.6897688712415604 0.041279575475077296 1.5901008069797904
Ni 5.081918254614588 4.614650914552953 7.087858932939672 -0.8569360852510983 -0.0409018804206844 -0.02294015373594114
Ni 8.181989654739944 7.101642648873412 9.136494655617213 -0.5192227134574605 0.525885727299933 0.11465808836722835
Ni 4.667416631789016 0.48628532153150167 10.379400936547665 -0.015000330063574164 -0.7983018205476574 -0.6281978925072987
Ni 8.107017689734967 7.036329096457021 4.658669152428728 -0.49821037287185166 1.122026591371687 0.6718845347619719
Ni 7.213610024632436 6.172832806034709 7.011395449793103 0.25579982484728203 -0.9115920820330816 -0.44352095174877165
Ni 2.195646123644978 5.161003821253288 2.564397655303027 -0.2028505263437603 0.5282526848702128 0.5026768932836375
Ni 2.3079465481139527 5.295168443464739 11.346674304859146 -0.40231593826537165 -0.46032259668714276 0.11232532646899365
Ni 1.230867020131537 3.2460907561477765 3.8463399454347127 -1.4490817121205302 0.24656725050542053 0.09049357530588285
Ni 3.650744938738573 2.5224029133731167 2.6930192668229114 0.4976257040129753 0.5293441181621786 0.22906935083097324
Ni 1.1716473589756067 3.261465004704446 8.341555091940895 -0.7796063010206832 0.9070312021352767 0.23285272913280544
Ni 3.603875083800295 2.742764142246552 7.2434214846996685 -0.08563881831674283 0.45471553491301037 -0.6327903969739875
Ni 4.031878681353621 6.740338806475192 5.8769397302709185 -0.34328803766793786 0.05268704598107056 -0.09758467782470936
Ni 0.6831081077962186 7.277078307169366 11.174775263810215 0.2498081260402214 0.2349749176821308 0.4833455399448772
P 0.05571004785836274 5.527087362705132 7.937721829413547 1.6750899075276764 0.2869549102938478 0.33583209561052485
P 8.553104932106999 1.6487711405885028 7.911952860579803 -0.8012015106929556 0.3618040941942543 0.6012187928152936
P 1.836628615633991 3.29591304289319 10.475468386867284 -0.028036594422242038 -0.3322325511847246 0.06520754704558447
P 3.9545303687965596 5.904962628752549 3.6569981533008202 0.19128004789734154 0.8564830568740798 0.9821086999964054
P 6.952445828131727 4.027567050757225 10.310578670965356 -0.03418024542613468 0.18582313854782836 1.2468608489409687
P 6.269281912173301 7.787695987423578 10.026803167453899 -0.1347018943919809 -0.31310971431234463 0.6754740518854432
P 2.2319034264472406 8.552519846535462 5.670629556430834 0.7327687718418542 0.5757574153193955 0.8351734967630261
P 6.91679161353397 3.767032946410478 1.4618110967965863 0.12331293582874892 0.8634772288037259 0.178534318195899
Ni 5.220133469244366 2.7470307662605222 0.5010834858331205 -0.18240357134331814 0.9759457657188031 0.10607214647043023
Ni 1.433261621300574 1.3293054172133512 6.984032347809836 0.5128605186848587 -1.909388882188705 -0.3837068078046166
Ni 7.015887106719203 0.7392538193724636 9.13968292191626 -0.9945518108557647 -0.49924986987995956 -0.33989675259820173
Ni 2.7142749755709903 1.624404576863149 9.240558875502256 0.3777562466481365 -0.6009912501855198 0.2827902373931968
Ni 6.354821422731866 1.9015371088085484 2.669344904335267 -0.44772316275557733 0.5271039159777503 -0.886633355205215
Ni 4.090594268786382 6.939997007432737 10.41780415319999 -0.305550413907848 0.20281273112728943 -0.6516280985057811
Ni 8.14452617552867 7.259507737390316 0.1679582646917238 -1.2619966761411427 0.19139574753959943 1.1044749556411688
Ni 7.604771233811963 3.9307848959086824 8.256119996653558 0.06382172244165138 -0.8295083280574488 -0.7106449433596213
Ni 3.0736615375578693 8.352375574487718 12.402913084783448 0.3766928383806287 0.2007314231182285 -0.35296207042259214
Ni 0.11534016904601682 4.965477224562434 10.184420719767461 -0.20103121374683444 -0.9639839653712365 0.09922786985508718
Ni 8.450093866250718 2.288854755848908 5.706147851149663 0.39861097860995864 0.46562138319223684 -0.29582675886218085
Ni 3.7687611991756307 2.592226125348577 11.381612014664682 -0.7246433145212423 -0.17771747872155846 0.5477748140635404
Ni 1.3260559419622049 3.2031094699310927 12.73721207759451 -0.7137624059426804 0.3776163786361626 -0.9969038560277089
Ni 3.0638501025890346 8.466593279368034 7.954348161093304 0.20172978247575582 -0.20097567791855064 -0.37433307989920045
Ni 5.602833440927834 7.692444056377514 3.5049398140485 -0.5360840079891734 0.4326050761672163 0.31472745242142575
Ni 3.0516893240175706 8.215438546798834 3.6629660261304875 0.9180990299136641 0.0800114448276364 -0.20114177118276974
Ni 3.5930645027016066 4.238224860459647 9.434866693941016 -0.9370128360990314 0.7796734068131927 -0.8897852705706353
Ni 7.170079658110156 6.052737241489577 11.382982915165373 0.13783195538053034 0.04672311508815179 -0.4338029531300593
Ni 0.7108906711276943 8.936642026223588 0.18464400506028258 -0.07403774374270475 0.2663002101579736 0.551882665584327
Ni 4.637019186018598 0.2289178803242374 1.6174663621163803 -0.044610439620523176 0.0488833559642642 0.2888467279999219
Ni 5.916313288840347 5.591338759776272 0.2925229828717424 -0.08347934877157882 0.005777783024041663 0.5208239965063094
Ni 7.803439289956139 8.78411471838239 11.313698882047376 0.2495227335893187 -0.7626910133225833 -0.21235409495882135
Ni 0.15747173098650133 4.741443458563051 5.751678310194948 -1.7536587063715152 0.3636300916593996 -0.40270520328399034
Ni 7.740637104839111 8.871067435629127 2.4496884785426203 -0.1810491141979527 -0.45577251542261504 -0.7065206367786026
P 8.41325147787692 1.7051823910010604 3.4377899930691354 0.9811537922823039 -0.014548073017503979 0.7527236176972263
P 1.7967797875541456 3.173576150543251 1.6843920503152643 0.36264098827325286 -0.06647972888978873 -0.16919041508715377
P 4.735781630493878 1.109214227834471 8.078713950178999 -0.0848947410618667 -0.8738799121942885 0.6056130652282473
P 8.502427520295495 1.5555265031186316 12.312010589863018 0.3706558881579294 0.6888386461178072 0.4188944114493431
P 6.198486558017442 7.656051733827973 1.321622793593259 0.7888561017537253 -0.5137179815891476 -0.07619104264028168
P 1.681967995785808 3.2551730844813127 6.101180526549463 -0.0432014750881385 -0.7112211275780653 -0.2989969290600464
P 6.814347630616257 4.002318358016325 6.0869386436066275 1.085636482778427 -0.41885095980591736 -1.3166416171795323
P 2.4054938148637346 8.419588404682479 10.179506901098208 0.4020786254435849 0.5524333958814743 0.3981067852800305
