# total energy = -340892.1645318555 ev
CRYSTAL
PRIMVEC
9.06985143670103 0.00000000000000 0.00000000000000

0.00000000000000 9.06985143670103 0.00000000000000

0.00000000000000 0.00000000000000 13.27464437224585

PRIMCOORD
 96 1
Ni 6.553003831934606 1.9715589228112023 11.252623461374863 -0.277309931004916 0.8534244725534141 1.083854708287656
Ni 4.632626079917761 0.30484858546931287 6.085335997174298 0.4611332655138961 0.15911066225364856 0.07452573912271682
Ni 2.675896363955536 1.6418063396868923 4.985319037894131 0.5916635450266907 -0.8531416512056726 -0.4166506097204889
Ni 3.144472090829349 4.320831802335332 4.829926182834294 1.1232458084907688 0.25055323173636207 0.10720626007487344
Ni 4.983447927574288 4.80814584196143 2.500199739811834 -0.020699951551512736 -1.18806306207647 -0.41199794143982593
Ni 7.431582186091594 6.061145796815335 2.494889341885182 -0.4351370985604506 0.7710201020135689 0.5236033590236595
Ni 5.041839630139249 4.497376457574067 11.554263133459976 1.2452032587328876 0.48917525925277683 0.27598864109033117
Ni 5.975127327239986 7.800716063490068 12.47532467103018 -0.7554039927428668 0.21642929346945952 -0.14395606600039723
Ni 1.9549338854080376 6.348614733254672 0.355395773658935 -0.7486386489945752 1.0146367545310977 -0.4394871479990302
Ni 2.6987342494880884 1.4610442036012006 0.39456211245767275 0.06492703969068818 0.24756740963516072 0.4580790520686046
Ni 0.5283505817595509 9.091709625371719 4.73148111001504 0.2913538106924917 0.1351173846628447 0.29112138296671153
Ni 8.575254153570842 2.28433274433228 1.4040329324016299 0.34522716367217965 1.0003604471177416 0.17888373111551775
Ni 6.854295221730421 0.4895089436367724 4.831080774902718 -0.07385262431509217 1.0095228303433001 -0.19013205033582736
Ni 0.8825373442423583 7.277267736349399 2.5028943926282445 -0.7252248980563253 0.17883205194197588 0.3705000793063554
Ni 7.634483829160988 3.9598880006461097 3.8602266607697024 -0.011353477339606254 -1.2700092620329742 0.08884164152475667
Ni 7.497266049088713 3.722466503590658 12.841067331033647 1.1180827762325904 0.4054989639790436 -0.4965352991622739
Ni 7.803173993187972 8.799397388346842 7.043605692651073 0.32538004703926543 0.5222255048395265 0.11344966988142396
Ni 6.863764146470684 0.7497139071170741 0.24306929344986025 -0.35450833186378944 0.7034741366427949 0.3558764158559097
Ni 1.760322086412017 6.607948991011732 8.96748712821884 1.0002313777390452 0.7540505640387659 1.0673261145050137
Ni 0.17549073851956015 4.8494136653026185 1.4682683401487293 -0.1349975712555288 -0.831662398285974 -0.859508731074281
Ni 6.300571731004501 2.111778823658407 6.8442340357013265 0.6601950142391855 -2.01191624873067 1.9087353077651064
Ni 3.323746771304501 4.394134340410823 0.4145883440922541 0.6213168491167493 -1.1384659678746327 0.10345707744508634
Ni 5.913706294346242 5.520818476435555 4.687130444222495 0.65820035240666 0.7718544249894062 1.1555568619186487
Ni 5.266626824356399 3.135257121925031 9.234572480883017 0.9304045867538944 -0.4126052360065216 0.33420253042690184
P 0.34327391741816593 5.475559918529504 12.356981251479446 -1.06621128417428 -0.3139684627682141 0.6405672127059291
P 4.016991784328774 6.296154713429302 12.876935871905603 0.894515329056453 -1.6949244257551004 -0.39650910177560744
P 2.409532971453549 8.263831739891048 1.2938768676047632 0.27738706409975455 1.778207599355473 0.8283947832782959
P 6.256592022129462 7.618711357778499 5.888353339052698 -0.8268559780362662 1.1134103104575857 -0.6408700886583285
P 4.825369489549324 1.1630270301188292 12.510701625962556 -0.023020886375205513 1.1416621062144274 0.9309504319550354
P 3.77829143824231 6.249880332179467 8.08822762823044 0.9705058256501545 0.48527232465394493 1.0588309325498086
P 4.777598582837666 0.94606711755958 3.8701563339551823 0.22123751349138027 0.05538567585915623 0.5423423301940594
P 0.19181919178574536 5.424415027140281 3.660855003819955 0.8189619200001702 1.281571770059593 -0.057775259137255335
Ni 1.135273285190469 1.0231971328768263 2.6517034426411867 1.6743226903443487 0.4713767976187752 -0.24366010416095457
Ni 1.9213391562529245 6.448183560647985 4.72857422267859 -0.6032407083413288 0.6885550534391174 -0.04031129802453703
Ni 6.129940618802789 5.52697690545724 9.27552467339953 -1.368576358375611 0.30665984492194287 -0.05890191654253082
Ni 8.666270111203552 2.256279694311555 10.161581119939994 0.8726609521855228 0.8502069940573809 0.2654700009471944
Ni 2.27576173486911 5.1393586711424275 7.017056423973198 -1.0761735375933144 -0.0713951639135351 -0.3920163561115765
Ni 0.5912264187992122 9.24263195073378 9.373810116836188 -0.37987740675619736 -1.1023393973554048 -1.5835123551289954
Ni 1.3093328011774488 0.8950673437908973 11.431486370601732 0.9703366470621416 0.13368245198853104 0.7583070253222748
Ni 4.343406662180654 7.045396988279618 1.6307102836263185 -0.33646432987788505 0.3711138016309544 0.06147250548318445
Ni 5.7941384448722 7.9453439120611895 8.306329435066317 -1.6836797060792164 -0.33620387712764677 -1.4970050181643704
Ni 5.2270187838001405 2.95077634681299 4.918972168768168 -0.4500330418356766 -0.2867011424118288 -0.6827361327644952
Ni 0.7717881111715325 7.641313427177673 6.8430794436329005 0.22401996133252386 -0.8097208610178765 -0.04759420483919545
Ni 4.93291978607236 4.67578950217726 7.01006084767802 -0.8455761801535889 0.25196348182032735 0.4248619418866877
Ni 8.123493930977153 7.054748004953193 9.076166621226708 0.5240209061770523 1.5315231065458978 0.7810569174242806
Ni 4.865957074044229 0.5180118582811726 10.422308506854241 -1.1041736223506662 -1.4971076051805055 -0.1518668362070417
Ni 8.07645768221948 7.3499716642401625 4.722282466843033 0.2083917678769637 -1.2185620019962755 -0.24367475944897388
Ni 7.133864317701588 6.155780625110272 7.072769799454061 0.267900464765558 -1.2317939273055174 -0.48667563275937475
Ni 2.318625852036244 5.344355449858374 2.4807122573435088 1.1310650474248714 -0.913958011162097 1.2735746107867292
Ni 2.306989232839157 5.2840590785238195 11.395246872812269 -0.07870223909790962 -0.2700877022248639 0.050602652648216076
Ni 1.2197589498988592 3.267912766801565 3.7482285091771 -1.7365621559005446 0.4539907409318439 0.8522723612268419
Ni 3.761920356675091 2.673003081396011 3.0786558080034867 -0.37513629252678615 0.39418173919401145 -1.6671583113854256
Ni 1.0180545271989245 3.181241267933784 8.240049682839853 0.12616608900682788 0.11777477961933909 -0.7833125462276768
Ni 3.4121415419162 2.8217214328961155 7.350276411243297 0.2799530250547178 -0.1424691970422256 -0.3794464898663658
Ni 3.941458062837473 6.93421875124307 5.956545015929782 1.2538869025498147 -0.24373929413832213 0.1071689790790348
Ni 0.6812283670583962 7.237841092818817 11.092651238401848 0.12748249382540625 0.6984211475999198 0.427517891452296
P 0.1507645099497251 5.659696039292761 7.870310846360751 0.4442051222999898 -0.22846617002933556 -0.8710594120263578
P 8.449845319870047 1.7154353924086005 7.976985902234904 -0.16728805585811835 -1.2208747092898522 -0.2998222531748191
P 1.7653105046180948 3.2326673247128044 10.2740300431414 0.19127773390449637 0.08734217416109473 1.0463438558263916
P 4.108134719879458 6.224312421410497 3.8148275201687527 -2.137515409490435 0.31608216667710726 -0.4757199050788195
P 7.170615355103456 3.9215315995670132 10.409258804827141 -1.418859422900879 0.12069143904550182 0.3659561686894149
P 6.353276636814534 7.58025518833528 10.289720885862335 0.884312163271206 0.5716058550448672 0.7781407722187502
P 2.531050838953604 8.572533198185708 5.743806212158003 -1.2083794050363188 -0.09473769529421748 0.12915885308656466
P 6.898147952687486 3.931190991184237 1.7381816724431869 0.766485447368009 1.0428409848794555 -0.12775297387797352
Ni 5.439117256071285 2.9056447668249117 0.5986337663426735 -1.9976124305134888 -0.20243477896258041 -1.2893349589447796
Ni 1.5187738070224461 0.94647526086735 7.055884457319051 -0.8943494929025501 0.8509716401375473 0.4058918285420881
Ni 6.953165670574882 0.6762335999564197 9.212350438252631 0.3241837127383191 0.5232536889937247 -0.2659808791453419
Ni 2.7443737411480584 1.4735787380753813 9.351521864291433 0.21223376733087318 -0.09242498800064082 0.42861652383311344
Ni 6.34402538850508 1.870493569956066 2.488265629492639 1.505076739428911 0.5038837691075451 2.012241236170257
Ni 4.354154435951932 6.74083138217036 10.837392971811719 -0.46286361794144154 0.38130076946628527 -1.5187740344103455
Ni 8.101680938639667 7.093276733206682 0.1442904501033645 1.150065499786774 0.03081261450548242 0.22051426217211054
Ni 7.637993861607811 3.9050426099331053 8.205973344581572 0.2911820610013179 -0.5587739933875215 -0.8801390057301229
Ni 3.581103801481697 8.459921924646324 12.690918663986093 -0.7702968506942991 -0.23067680452740916 -0.5710363556946424
Ni 0.11760876159674691 4.864070544977204 9.897985846049817 0.36590191841271175 -0.08826340042378349 1.4025416595774618
Ni 8.784033060272122 2.299152881329973 5.721478052267599 -0.8484804982845774 -0.12154967328073905 0.4070300559115893
Ni 3.450715619426107 2.926587053439155 11.654806062881168 -0.03224189075284125 -1.52691260435708 -0.357528606747352
Ni 1.256990689418767 3.201657503173568 12.645744455696981 -0.8983167050804142 0.9022227250030397 0.26490435825171155
Ni 3.2367396879392207 8.54384525857512 7.988734080602781 0.41822900995120227 -0.8981174445854144 0.7251886455017511
Ni 5.700093156910707 7.858491016167733 3.4925321687699644 -0.09448881250820501 -0.03398946957156727 0.6160432594226358
Ni 2.9552115040907574 8.616322440183787 3.472952173818545 0.5935602478287714 -0.4905657118424004 0.14401468715247456
Ni 3.4758028280770366 4.4991813579795386 9.467130723680107 -0.39800034160915326 0.6409559635039154 -0.591142125305582
Ni 7.2678260211629855 5.870524732384176 11.432534845410137 0.844660867428171 -0.04612996158884314 0.2435814284042192
Ni 0.5638055374129667 -0.022745373049458003 0.4376348362043335 0.39414754352196635 -0.0019172716273708915 -1.4967651342394224
Ni 4.6508927604032895 0.5594710554844493 1.7007739778083737 -0.7306067311935288 -1.239159623641969 -0.9745488853712765
Ni 6.104762711639022 5.688275140687945 0.44987460051179173 -0.5925336063364698 -0.6892047712079744 -0.42620225796466593
Ni 7.9283288710528215 -0.10647642613103801 11.454716980694872 0.48357411101591563 -0.6594802475603482 -0.4299730378610079
Ni 8.972123636195107 4.900685534609814 5.81298015392912 -0.05598731399889712 -0.3792222896707017 0.16148661868499287
Ni 8.262580100413885 8.862324016553693 2.213918953890671 -1.2252877507558833 0.32720141651872037 1.9648252087801386
P 8.325289052189925 1.7012047957443532 3.6251723948993164 0.296730758733689 -0.7462776049615663 0.05385586947819112
P 1.986950460439773 3.1039570651447135 1.8293518175477217 0.17745419775784277 -0.05207280943583934 -2.4775453452323912
P 4.750715543632549 1.2987936339856991 8.29829898873966 0.15255254942015664 -1.432023728196979 -0.7501165190916823
P 8.628349062986077 1.7544448227801288 12.553007947275738 -0.05923590284318185 -0.7679666598992257 -0.7123650113745215
P 6.532660155505092 8.030691212641537 1.4520868184733415 -1.3821705521202776 -1.3545772158830414 -0.39032662711397936
P 1.6453435816875657 3.1892318069147927 6.04000306648772 0.7002155204961812 0.6180227517465099 0.30501151068524246
P 6.693051405607418 3.9719327631509667 6.124071518037057 2.155120524166708 1.7444798680857245 -1.2762606422593243
P 2.7678011670140568 8.357468884544769 10.468742517486671 -1.7646247184647155 0.7251739902137317 -0.6762572099083709
