# total energy = -340874.81342980877 ev
CRYSTAL
PRIMVEC
9.20977087001538 0.00000000000000 0.00000000000000
0.00000000000000 9.20977087001538 0.00000000000000
0.00000000000000 0.00000000000000 13.47943060617107
PRIMCOORD
 96 1
Ni 7.119549025910284 0.5862221875200301 11.824965638255613 -0.2692757478465298 -0.566294984354915 -1.7670713802329951
Ni 1.0078252437514632 4.108920925241961 10.785176042192278 0.9258447352973539 -0.3350556224558165 0.5267159365107121
Ni 2.105924663133483 3.7578905024549094 1.162338493289457 0.12744984081525793 0.6397028078231047 0.3739106476498012
Ni 8.505149867518288 7.172726243834262 5.785695124785386 1.4669202829638477 0.48086956760055893 0.03930059737183555
Ni 7.171418456348082 4.680221441740095 0.5278165825826394 -0.548637676284468 2.2027388973756197 -1.401028051146413
Ni 3.1936907194204736 4.961533897834296 4.0992027748516975 -2.0831478904831484 0.7046517018906638 -0.432746486841087
Ni 5.571948311894455 7.737478613130465 8.037757671682693 0.2555234312574438 0.057595024805649195 0.5801468026363428
Ni 3.775333808784666 6.530832832395482 0.419620192528795 -1.7945464457248126 -0.4699074121621004 0.910670855770393
Ni 7.760318845283472 5.700618022946742 3.062082170432693 -0.19391260042418218 -0.2666344535689408 -0.06601564476917664
Ni 4.337921881888951 4.777283218619348 8.50829776725615 -0.3408496034297743 1.0014295118122043 -0.9449012377081727
Ni 0.4551413584122367 6.505994079929086 10.796821797659002 -0.9743213427415026 -0.6060478387728208 0.04704964518963509
Ni 0.38884113774841134 5.067243649710192 -0.07353817971586113 0.4517901337360993 -0.4475861229570808 -0.43929997168888857
Ni 7.480728616371776 2.289622756086665 13.362833466247531 0.6798688385190291 0.8693434577765158 0.24832099997173365
Ni 7.487037309526942 6.419698525383247 12.0072887123941 -0.7312351088061472 3.0497386973496123 1.7240843351485082
Ni 7.88175888607765 8.506383976836233 0.18619117797085083 -1.567407479147333 -0.22442208186694895 -0.06265289894453081
Ni 3.627286739486441 8.878495565509668 3.5373938483765035 -1.094484162977044 -1.1093142860113412 -0.1790392828567755
Ni 4.815190636176517 8.508806146616974 10.660437061415356 0.2781565952759274 0.3902132414645667 0.06946503677035779
Ni 5.275587089938152 5.645939612344964 2.011764885105606 -0.13936176176149548 0.2306058420801577 1.60626764654764
Ni 2.253907264034502 7.967105834207457 11.157572212790525 0.6110059541090445 1.3533831955749402 -0.5868509541293958
Ni 0.2584860385977378 4.514086382140052 4.788109304464453 -0.29275454769476034 0.9299204480286244 -0.09280165461376921
Ni 5.759726333413678 0.5325365902352267 3.6195100088291836 1.2287757093044835 0.688542197923311 0.967004240254799
Ni 5.128249173009192 8.21706822971745 13.00115378521914 -0.23776430750180988 2.1728811905842385 -2.5360703380514775
Ni 5.506015561094704 7.007152980267016 3.9123512562980363 -0.09151147504743594 0.28993147642366845 0.7562709687288524
Ni 1.6286559088459174 7.084920286839595 4.582413673407457 -0.18951549979775104 -0.18883544301159091 -0.06037335888173473
P 2.215428840673508 6.118391656384134 12.42679470376213 -0.07549221680104418 -0.9202752116293763 0.04064528432518806
P 7.7381969752707604 3.26723074109054 3.7682284704354547 0.5424364325697626 0.9801932281412474 0.6336684287035668
P 1.8025087565686295 2.845763989470343 5.568878695210343 -0.18867809149812023 -0.5113993607583 -1.0957473459601839
P 9.143340951003234 8.81302330326139 11.545227132030343 -0.6317601559372603 -0.266424908661296 -0.7226075150381361
P 6.238358133813601 7.499654695837273 5.925961779517942 1.2434657072164907 -0.12686285796353636 0.31287034460802887
P 2.090083856962849 9.30186873973296 8.712875332110173 -1.7903267512165102 -0.5422549126865758 -0.5927984299620823
P 1.6091680333476253 6.6049438598693735 6.8237330223989225 -0.2808626813531809 0.8794859455271562 -0.4345303182143871
P 3.512072503908165 0.3238809387693693 12.223794772685451 -0.97070071526978 0.043471698030389645 -0.43353658684255014
Ni 3.6859714004860242 3.064413163480244 11.368592012479638 0.3602894573219408 0.2703779797717731 1.4548301845685332
Ni 6.843955837625364 2.9575982390808155 10.22069720309565 -1.0087288736870952 0.3431286292719381 -0.36758624809367013
Ni 5.265999718296506 4.24525316579074 4.142431598109676 1.9895607638536057 0.61567970543563 0.6904152465763077
Ni 6.216153375861625 3.4444727845520857 2.1540668992356675 1.1338423530596924 -2.473445721241721 0.0021319587413382636
Ni 0.6241802588178611 7.652711880575512 8.68663024760758 0.5815763359940178 -0.3356942844810799 -0.5117981388586155
Ni 7.875422563609396 8.555610202988582 2.5552822853392327 -3.4919375878528505 -1.8527945307334284 -0.5528041489573319
Ni 8.79135271202912 2.3809928944697254 11.173989550627601 1.013571289381061 -2.3715104797578 0.37149226801629565
Ni 6.58122869946857 3.8944990361345724 8.0350076340533 0.7751994302022391 -0.32591226539365165 -0.384747333253989
Ni 7.95671721248625 8.713705132479925 7.851849233682445 -1.4610160016642708 0.4803005824709664 -1.009322541407036
Ni 1.2324147200753521 2.999714521998438 3.3414025530532268 1.576555207084872 0.14631659581277384 -0.21006992691033496
Ni 8.810684021419913 2.1035117031237704 5.487153029049311 1.5605542036709252 0.7998995040520804 -0.11481029767437648
Ni 5.465888588719441 8.259488435079044 1.7823310692202325 -0.02980551339720673 0.8743697073465135 1.2209618696870197
Ni 5.173321792427266 1.3441568719755304 13.282092324609547 0.3522272491390966 1.0578850236967718 -0.7870745843732703
Ni 4.423609591546848 6.350966004190547 6.222630607826629 -0.7363107235568416 -0.4630718772975057 -0.17496845522151158
Ni 4.413174920970493 1.6232497732516369 1.9514040457786657 -1.0231003119174187 0.4218421812237574 0.47386973924395803
Ni 3.7151755844203738 2.3807902795070772 6.832197722952079 0.42161335304240294 0.4836455876837993 0.49905626581191465
Ni 2.86221264052892 8.500701548111069 6.108945194239239 1.0121849505564955 0.36178686780307373 0.5913285302847752
Ni 0.7022717493306766 7.501551908669337 13.126943600870522 0.982825523557772 0.6419844047684299 -0.3462039257631522
Ni 4.476510516339943 4.107198698059456 0.16953070217859642 -3.1452017008456283 0.7801153794466178 2.093305290632124
Ni 2.1440623249663884 1.5299547927234243 10.360708747170689 -0.3273024608729589 -0.6565964982546498 0.31270476556444204
Ni 0.41454468771447145 0.8532512097246749 0.6902428673891269 0.11018951107291346 0.511943406187228 -0.8375643655927059
Ni 3.2138785375170027 7.225783734734858 8.500573532293759 -0.7211391580227258 0.6617510458723959 -0.15088236080658532
Ni 2.6691390006677698 1.8778170542763486 13.45209456706485 0.18245319363433093 -0.23706393900067563 -0.21108217022493325
Ni 1.0961008990686318 5.375909125761825 2.648222689682812 0.07195874972648898 1.2911301031719893 -0.4346547596073934
P 8.03350828332971 1.8616815354327723 7.579362501165755 0.10190593090788255 -0.128431745112553 -0.12474941116495933
P 6.07810811790137 6.752944880312452 0.4700888167930155 2.4982815493384782 -2.1147552329757837 -1.3917273425707772
P 4.549857132818391 0.7406672847524061 5.530825763270909 0.10395175769331774 -0.8158277452465627 0.0863759535930835
P 8.876929904434665 4.844275093087484 9.21045439444896 -2.60403282213438 0.5654665749163488 1.144658212728274
P 5.761936678460743 1.1847633647690372 10.146951803531625 0.4013546027933668 -1.8394826441158707 -0.06921024044707434
P 5.108033725599576 4.2417995016547 6.371039621126311 -1.206793805716754 0.7820398501628403 0.6151546861700954
P 0.737978952588913 2.768595318014677 12.936991152411247 -0.45601625600230494 0.9784654468168633 0.6141843518370261
P 1.9373029653554925 1.0617668726708849 2.2473581958554685 0.9070363443415992 0.7448848383790978 -0.31947190908494655
Ni 4.107898640657694 0.46694091705515334 8.557147313773395 0.0730121306916678 -0.7488605351973942 -0.2952714005793431
Ni 6.609990814393506 2.961337406118768 5.683561527000221 0.7319182509161007 -1.7669230275805894 -0.048638329832993654
Ni 3.1073767453325747 5.386205649772738 10.590452011362652 -1.1084287980825942 -0.08009089191532012 -0.0323035972287121
Ni 4.59221286978278 2.616661725342029 9.254370266625733 0.4872852413189157 0.22545823644094717 -1.220162513714176
Ni 7.230904367427225 5.3693793981019535 5.704912539177768 -1.9877422225876282 -1.0808542308984355 -0.7436761627829772
Ni 8.801013761839002 3.6082777720816805 1.764376620598342 0.03457259576854691 -0.5589400866517406 0.1457815492449102
Ni 7.438787319103714 0.2597818533815798 5.517292925720252 -0.6139724929365361 -1.0283227366586225 -1.3002559767326574
Ni 7.442876457440784 7.861036901261413 9.986789280444174 0.8179825868060364 1.520028475642737 0.9004563771312363
Ni 8.800912454357677 1.3372863827875692 2.9609726991860015 -0.5418049696333508 1.1837538931781548 0.5806628230408128
Ni 2.3923945910041704 4.616535875071526 6.522615874683016 1.0868171333500898 0.5060704923462188 -0.49742001576007233
Ni 0.5721413685931214 -0.003618519037466416 6.4552998162746436 0.6810957689475947 0.18331657007589072 0.2815082853569797
Ni 2.8811847688495638 8.80185185100268 0.8799530988703261 0.5904358432671767 -0.3730639833787897 -0.13355569660267969
Ni 1.624152330812522 5.257628036430746 8.674593076872105 0.9439339886988969 0.5312295081103496 -0.1337557284286277
Ni 3.7468571967616424 2.3162574139038012 4.3756119488498255 -0.3313421781599713 0.5505539194705744 -0.9423514747031254
Ni 7.5529516407846335 6.4386522341618315 7.9219558527127365 1.3898656067716904 -0.6125591575287773 -1.4303990481093625
Ni 6.669053076005296 5.763594437246042 9.76560465646987 0.03800733248170873 -2.742442761505567 1.6715734097339858
Ni 7.835111395813543 4.379706613049514 11.645675341717121 0.19523337611813474 -0.9338956306262886 0.2513636434527993
Ni -0.13449304927420033 0.7436687491309001 9.436976080734823 0.6044858936023396 0.1755181570773945 0.6407559316779674
Ni 1.1075025956030768 2.7437473557772516 7.623009448028469 0.6483082901039287 -1.9934788679610893 1.0921017787877967
Ni 6.037143056362426 0.7592360251019601 7.217763866122423 -1.1200506985922387 1.5150359075241522 0.3704645980827297
Ni 1.69899093019774 0.9586174371411729 4.42188644338724 -0.47441429889351844 -1.679987859049926 0.6322833754305821
Ni 9.022315349905382 4.488059569210859 7.093307625316104 -1.0136144839141705 1.0196074682728118 -0.004253118849399127
Ni 0.8593591298713986 8.155123309773446 2.281070562708728 2.574794236984237 -0.17189264450966527 0.2960702423315546
Ni 5.00607235053266 5.965150276225305 11.880096248614935 1.1635087697758737 -0.4187614854159046 1.1161667901568004
P 4.100567662918261 3.8447386432625152 2.2618617432726285 -1.828437956265935 -1.3416049719930894 1.4445005205077508
P 4.764205343757545 6.540788594878305 9.88763412260993 -0.33966946707874407 -0.07572490163714056 -1.4474331207735136
P 3.052946998548593 6.7261076075326685 2.726013020682965 0.004972770624243048 0.7858034309703306 -0.09252706079614387
P 9.057994002873427 8.641408429898831 4.2197761761920045 1.5446982104752751 0.13074702350929096 2.1068316072533326
P 8.816182254724488 6.68620166966211 1.287143784417791 -0.7764577280893725 -1.0998184307057641 0.8212833690444953
P 6.80400385089966 1.0700280372842912 1.513537454886347 -0.5465777084316458 -0.5719760939000924 0.5255712813833078
P 2.6236795708664613 3.380050436201163 9.32139069138406 -0.40559872278170145 0.7124398304765149 0.0012233308841398287
P 5.717775826374585 3.536496816678236 12.344894051951538 4.22674550161192 -1.342173700012366 -3.7166576605761925
