# total energy = -340877.2373473652 ev
CRYSTAL
PRIMVEC
9.13918880672209 0.00000000000000 0.00000000000000
0.00000000000000 9.13918880672209 0.00000000000000
0.00000000000000 0.00000000000000 13.37612662199824
PRIMCOORD
 96 1
Ni 3.46535193000377 2.269589600816025 2.253489091829178 0.9453393536868556 -1.1952025013347287 -0.3515615905306397
Ni 8.105510029175509 8.191281316478431 0.05899072223272983 -0.5459071647271824 -0.12196799176508027 0.8146404098066808
Ni 4.4776267647662875 0.6135676683260767 0.7050408955489018 -1.1482839824063191 0.04182130691116023 -1.1253250596173006
Ni 2.3045926940893535 1.073708462173305 4.640071276877719 0.4311914836491412 -0.2638941718196423 -0.6945256692002554
Ni 0.157994641063185 1.9706284553441893 4.988278941436587 -0.9266849718104622 0.7393392259705203 0.12546160674063556
Ni 3.640586736902675 9.02245398510406 3.103100987866888 0.18967825062786042 -0.7281125040167653 -1.273313900926175
Ni 1.3732088197869492 2.776083446562208 2.9049332144012032 -2.319357709013644 0.1292940931128483 -0.15570600744747376
Ni 0.9402580266701336 7.75983848952091 7.019055140321183 -1.0851502871706278 -2.0546790936194936 -0.449629892859987
Ni 5.615949292068166 1.4307034568058816 12.088460833290064 -0.2593376627972114 -0.6684665102193584 -0.14122041223678905
Ni 2.206693703190164 5.7212236083646335 12.817245341456225 1.1461461101277097 0.6081044641915334 -0.7719768094998835
Ni 3.492102335750776 0.1682506387841588 11.709407492463098 -0.2089908349135433 -0.8184127323649196 -0.9907126396153325
Ni 4.526128439962516 0.4796164052742424 9.37570191231051 0.5153087231150352 -2.587855441043569 0.39855878521578453
Ni 4.976717867548659 7.699227389106102 12.526127447850493 1.6538068297791841 0.9060143308349881 -0.3318857093682671
Ni 1.0651176246597465 -0.07887028580665796 2.7625044397774787 0.613130713761531 0.6513087674931494 0.17968642952247119
Ni 8.911230056870009 4.836732912021877 3.5995024273724083 0.4479257656846866 -0.5896531994648813 -0.17581871903694882
Ni 4.754745248900459 1.703590496505183 4.4393756037777266 0.10625957989088795 0.6959685722943691 0.11433567203080308
Ni 7.710496008951014 3.205762410072796 8.521342207668233 0.24582651568465405 -1.6077329182392568 -0.08814461545773207
Ni 6.482490621520892 3.364601512185186 10.794480555512466 -0.19046038020952363 0.10911761816497338 0.16161620228432166
Ni 7.97939836231424 8.45967187526638 2.4240885021462995 -0.4520786115107956 0.5732590743775741 0.8653358792790193
Ni 6.256880605712695 4.202226448134828 7.109063355572281 -0.2873858271836793 1.088401190007758 0.09223986857302824
Ni 0.2605098362475861 7.131866545657472 3.988961648617392 -0.05902070150858222 0.5416275635152221 1.17348747825514
Ni 5.127075802413622 5.8284171543183865 1.5714003551436284 0.7461482784725536 0.25891497343749603 -1.585009508499812
Ni 4.478988503904075 3.5463251431634815 12.500217847477153 0.868678313388691 0.18896605505218422 0.6314850478990027
Ni 7.232589545909524 3.0964394331183422 13.276568177901897 -0.5937399679397452 -0.15810870335169544 -0.19653743964153894
P 8.29256180724998 1.8426158372033232 3.000893783346536 0.8099358052421599 0.7307939075036705 -0.6618742017138214
P 0.4639116231643499 -0.11095523608203012 5.304409880990042 -0.02744909734988821 -1.1106669433844936 -1.3488845363736381
P 2.1445746366160603 0.6465089605961515 1.0268518409690344 0.7765415460524303 -0.2791868363126546 1.2715133573823263
P 5.183848443513861 3.352464669400074 1.2525925471777035 0.03336520572400706 -0.6646077985949006 -0.4094062694532497
P 7.246344025120061 1.019001277751857 0.6166073625356613 0.040669966915536405 -0.8474847100302113 -0.4258291908959634
P 9.432191238556578 1.314197077419878 8.922853277242078 0.5059905310379027 -1.0440640586532792 0.6575341795775709
P 8.191710858354108 4.4149319292949984 11.567674210110418 -0.05963442383318117 0.49765244348585264 0.4715444335448912
P 2.3825682533081634 7.086801205466666 2.847001724155518 -1.0711992243071744 2.0532806706100706 -0.33816511461907567
Ni 0.7075779343720549 6.829258863836796 1.5391774031167087 0.22992681373526208 -0.07362688145753125 0.7061133740378548
Ni 7.8294791085138 5.319263804618538 9.45634611467183 -1.9186811061239084 1.0871907146394244 0.040973871309200396
Ni 6.523836311852103 -0.29000291256673993 7.86295504333126 -0.3688789987631647 0.17863561966045363 0.19518786759218
Ni 4.472170669026293 8.740135302517533 5.440752869762406 0.4474367418634101 0.5856011408826947 1.9516153949580841
Ni 3.6742829261712817 4.765995590367683 7.956815426680193 0.707163412568924 0.7417645475825613 0.7526503412571296
Ni 5.648475665164713 6.04299616919162 10.80480692498754 0.6197261075908618 -0.7794936867022189 1.4713801185074145
Ni 5.83996908901747 8.121841759640114 1.633305564698777 0.11428424996757736 -0.8188169097818736 -0.7940505014704712
Ni 7.184069592335606 1.2133095717686304 9.744869392564691 -0.13713518642382191 -0.2874989557227758 -1.7697710385523457
Ni 6.870741642000671 6.244286803485372 3.62994597933136 -0.9723961006943318 2.1887793498717336 -0.5398905262194572
Ni 4.158751326802916 6.393529757311341 3.587450579043547 2.208853237803473 2.59759143738441 0.939383393213737
Ni 1.656724736112068 3.555793342806084 6.120394131675477 -0.35965516617205157 0.0018697062188871023 0.8107608722466165
Ni 5.9071238486447335 1.3495200423027538 2.364819034653821 1.0779954212934015 0.888466808869528 -0.1772179133773206
Ni 3.579034300036913 7.452112861947476 1.040039690471231 -1.5008048515264345 0.08608361916364529 -0.3169622552892154
Ni 0.24534700803615536 1.941538417253065 13.26481061145382 0.6112543226744247 -0.5231192202983893 0.22548111925908262
Ni 3.4546773574337313 7.018622856688852 10.593852512409919 0.1116252150781755 -0.040836831510703865 -0.08657778519124444
Ni 6.989459705086974 8.030751464429862 5.675971828721407 0.8124714271798201 -0.11365715790653973 -0.5025668500683345
Ni 7.669972845615781 5.61752123254937 5.659947175001967 1.3024534986046086 0.14334414344801116 1.8467984610509938
Ni 5.44946068889317 7.101698083282731 8.808620728040513 -0.8014807324962714 -0.3520686120740453 -0.2335307290364365
Ni 5.203497699528915 6.523552996997933 6.332553089342763 0.0011569964225786526 0.03031124938903167 0.5834954073936016
Ni 8.039415415454174 7.2867392398114745 11.260932873175506 -0.901495102808396 0.4001837224137172 -0.8908018847606077
Ni 2.499604705647132 7.639639877841845 5.125410642206207 -0.8252089293511466 -0.3025594496003241 0.05944596197145891
Ni 2.716313151521067 1.9171824789832421 12.892887665763107 -0.35897948026126564 1.8605721177963181 -0.44675565663598543
Ni 9.081931826102187 7.9977224359468835 9.229407260805685 -0.5920530671556254 0.41504109914152393 -0.3649228423288941
Ni 0.32240133701946855 3.1613642306676186 10.098226990037272 0.13187650912804383 -0.8993268915124835 0.6766744999514476
P 1.421271813918656 7.5793120922812065 10.964102986542139 -0.4440760529212932 -0.423653009180251 -0.03463327380315326
P 7.761629770534376 7.0243257105276395 7.587460593054706 -0.08573394913371042 -0.21704764377974875 -0.043011727674835604
P 4.126133561817926 1.2939903308853267 7.138905548905284 0.4025483659911519 -0.6421615537762424 0.2678917230148096
P 5.655613371652042 8.336411635324504 3.712316574465351 1.2571758577137315 0.0012521272395462307 0.8630334563980878
P 3.553673050994227 7.364449762553803 7.4631694526112025 -0.6284532030512144 -0.07653119958851981 0.3012430447817457
P 3.988351150802598 2.196000852242437 10.744052339307878 -0.4292729264701897 0.1790174284799046 0.5057958985285934
P 5.60762349103109 4.614147967721114 9.214305665159511 0.019821405601301346 0.7727016034810499 -0.8097465720494893
P 6.245191583180949 8.611729699256365 10.78620045041961 -0.5805085568511358 -0.7514234108285639 -0.2568076972865061
Ni 4.669723375082762 4.238673533245542 3.2241413188385044 -0.5036590546912487 -1.9948536368214287 1.5961097321780318
Ni 6.361743658511174 1.7455393733001123 6.604101237876388 -0.25996192664477163 -0.006891327803194583 -0.09793511918559263
Ni 1.9270071069907693 6.462749973617395 8.668746356698746 1.3140782273277303 -1.1873156423874842 0.8572183923782075
Ni 7.824086987095714 0.8193904263676719 11.820443153406957 1.140029969927643 -0.4295706602162666 0.9091161096887633
Ni 3.0489887646391978 4.412564879384348 10.740401233364613 -0.21840055826321744 -0.437745225607259 -0.8174228576478244
Ni 1.3873654233066324 8.242168319963 13.084406679344628 0.02241487736009043 0.003822201959567611 -0.4634251468718665
Ni 8.55288246228849 0.582095957622151 7.078458953889672 -0.2134714963927162 0.746194815439773 0.15413017831992168
Ni 6.718071492358122 5.421851199394809 13.018475657103606 -0.15524243754749392 0.5679407474884541 0.17326689914937254
Ni 2.6593120306997218 2.1191951091956858 8.85307008690322 -0.7354522322112883 0.02828547720825451 0.1043291956373945
Ni 1.1466574675277985 0.5869205354130101 10.984422145099474 -1.0394707828556422 0.9438092901955745 0.20119910678326638
Ni 9.348293484966721 5.314940968295227 7.596262545830566 -0.5921988487048704 -1.039090773808404 -1.3223558939554902
Ni 1.9757920970411684 0.5742316856217072 6.831575648208804 1.2361473191782066 1.580650460200168 1.2095950226109748
Ni 0.7011841578566447 5.478514170228919 10.576356449286562 1.1812000164080498 0.798085076551161 0.5584191811512641
Ni 7.135823814427016 3.4581411100056876 4.519004442258454 0.4792592856906456 -1.518254928682082 0.27666844076617514
Ni 4.2977858066899 3.2580751270170607 6.244002574712317 -0.37054044562598765 -0.5921448555384834 -0.10595773237975299
Ni 5.052673666032899 2.5392413676644754 8.819549370060422 1.0957959398099322 1.8064532244647276 -0.8620286692826574
Ni 3.2743246047820684 5.251323074750673 5.428874666021585 0.52976243664652 -0.07212535721134031 1.3469523523479319
Ni -0.04865978316323353 6.029488448079877 12.894238437874284 -0.42926572738133817 0.42780096991035355 -1.182594325652415
Ni -0.02875280202277276 4.409567225443447 1.0499648495560445 0.11953341418165864 -1.2667614445196378 1.6394549319328862
Ni 2.2599934525296033 8.73407602031382 9.071180484345856 0.6058989718997823 0.5810844839592638 -0.2583251623722971
Ni 7.058396606538858 0.8856595985959316 4.420167770583848 0.11776938030270041 -0.7014072268114372 0.26879597999663385
Ni 2.1636207061673964 5.119471997295237 3.4396443057038883 -1.1257909435101257 -1.8352382670172203 -0.8469447783663413
Ni 6.832512415065335 4.4046594810341055 2.2833714975930954 1.3345107841504693 -1.9112141083229017 -1.4211057957328943
Ni 3.1242774023378095 4.421585258773584 1.3013738815525648 -0.5447843639766489 -0.11173551540379467 -1.0582958859819451
P 1.5039540553922344 3.7264219985275067 13.054511478716329 0.3307744785819593 0.16570322786950173 0.27563819972944786
P 8.355402869742775 3.2300360956430207 6.499125773055125 -0.20344547961528187 0.5174432529595346 -0.4787792607304336
P 1.7415821045305688 4.094557664361176 8.707724997119307 -0.0029575399664271648 1.5357428010542005 0.24301244327462665
P 1.1041145434579955 5.650056744834761 5.452564357424665 -0.8281189039090899 0.2544476816947618 0.4387911503732701
P 5.677611399200058 4.868528150010888 5.086981267035183 -1.0817957688760982 0.48850111600388774 -0.4464579228899085
P 4.452850423809631 5.674366987160363 12.79370370491242 -0.7459862989733926 0.6217670492802904 -0.18147745998462295
P 7.689877998918473 6.334271256845475 1.5521120970879205 -0.003003562713014182 0.1746676361516411 -0.6788226566427018
P 3.0344483151880577 3.0583290156379817 4.382273037960211 -0.4458454861168902 0.9315950075175697 -0.4033569779353762
