# total energy = -340861.855003227 ev
CRYSTAL
PRIMVEC
9.37107353826122 0.00000000000000 0.00000000000000

0.00000000000000 9.37107353826122 0.00000000000000

0.00000000000000 0.00000000000000 13.71551336587462

PRIMCOORD
 96 1
Ni 3.629088677729883 1.314011889510501 9.098775152142544 -0.4106421987428799 -3.626615313875115 -2.243449230610788
Ni 1.564228916053219 8.307456425981023 5.293735203285509 -1.2646688236566672 -0.8072235485173195 -0.9537062375943124
Ni 0.8260404267250228 0.8200963549698058 9.524244367748816 -0.8139793791839143 0.467961087069007 -1.6232384700740239
Ni 8.414933264954037 4.762538728079862 9.822076754523968 0.2819163194286758 -0.8682016308625886 -1.2307528876355127
Ni 5.555593914112487 3.668287877086768 6.614319963565535 0.10379183507668575 -1.0565873879312706 0.8355828163863028
Ni 6.40387283473993 2.48007327473066 9.26153757479375 -0.34269128462420334 1.6623876294696596 -0.003296668473400774
Ni 2.264323055559356 1.5766362170210686 1.1581268975090724 0.11803343259736446 -2.4382851141801876 -2.0779671176131567
Ni 7.854196355578486 4.799873083862274 5.851490237156553 1.063608299333794 -0.8500339588146264 -0.1633637811030477
Ni 5.212996847584072 7.770803174828564 5.412031883419762 -0.18584550714533157 0.9090585169779505 0.8111408812938545
Ni 1.0888249995879697 2.855843940523568 6.248609144894218 -0.44291931360903075 -1.9592379445003483 0.9109511060149731
Ni 7.525552817102282 7.669473759900045 0.4267708576791084 -0.37357923245231145 0.05111661617015712 -0.7718973624121996
Ni 4.370855979927884 7.509790671915028 0.21216390944290825 -0.4114112156984205 0.2206559299562974 -0.9623901385215555
Ni 1.3474197656059577 1.5899618831662972 11.42223811380311 0.1599670967166729 1.5709561157305394 0.757659621546263
Ni 2.420735638984115 3.560820409186993 1.643516629617328 0.6931354737209481 5.730763974979647 0.36155418296697733
Ni 3.7855200033011194 1.8585181000368713 11.206794328726707 0.05784673580513909 0.2679007218758741 1.9995662118057498
Ni 0.4303534189782089 3.14897111142564 13.659388805399946 -0.55106891143378 -1.7067697551294605 -0.19810324146676203
Ni 5.749556388004145 4.6793704530876665 10.515395608078627 -0.14808217235362886 0.4187835969030917 -0.26661337052301826
Ni 3.7378962091027716 2.1983506999599123 2.6989112625340685 2.46643663691374 -0.7043588532405934 1.7489263338928527
Ni 8.05863568935085 8.086823877652431 2.743870860610695 0.6558660478465286 -0.2072311719099592 0.6353632999074864
Ni 2.0507562964526356 5.729642857372212 3.1413739823511415 1.525572802499734 0.35680072744239194 -0.929046272953787
Ni 3.320977160719358 6.021551788753271 5.413952016326341 -0.38198648267940016 0.6886720386329559 -0.19728948731621507
Ni 8.179541276274717 2.859976583821772 10.823240049501853 -0.6700024872479107 -1.9629647585326324 0.9548840599524973
Ni 2.4092841874865982 8.435980695447837 9.198459943717697 0.3847905277870986 -0.7543925207592169 1.4099785754714815
Ni 5.105857367247647 5.84391372444318 7.898750186183882 -1.5685367076557697 -2.1512235031051468 1.2105244764037797
P 6.683908616327738 1.2580665822763142 5.2253769724395305 0.2954333800785041 0.7844217201314554 -0.6286804885706722
P 7.114068991197232 4.62212256667332 7.855930004127618 -0.053113591995527884 -0.2837307469295952 1.4445339448488477
P 3.183222384112566 9.34888253712837 6.007998405528346 1.1817139799299907 -0.2855102074275212 2.9412535705623153
P 0.5433835559523913 7.041021475302679 9.45921849054647 -0.14484463925293764 -0.14796287316694517 -0.41571395683883244
P 9.32524869042073 4.277810593742249 11.847501165798134 2.133887068709228 -0.07524924755230267 -0.06155632344624238
P 2.185324908158318 2.739530179486595 8.418128800928386 -0.8676498721241767 0.17735263918297198 -0.8845685022563864
P 8.005595414820617 0.9357794427778239 9.84114126592049 1.1996962754400242 -0.15462511567846918 0.7037790694777234
P 0.22673686543618868 0.9421864455510255 5.6365824774693944 -0.02904626663367901 -0.26901863753040123 0.011170929015154953
Ni 7.834367164605698 3.4158967615527045 1.6672854197796048 -1.6427906811743385 -1.7202693322777922 -0.3905264018296113
Ni 3.638038052672705 2.1022503438985076 5.982089262238382 -0.019102525157405813 -0.0614899889846812 0.042565641276352505
Ni 4.116365743988384 3.344957737136826 9.298185030907776 0.21504732552026834 3.4223118571349125 0.14826857733282206
Ni 1.6495525378902827 5.028874000592898 0.034161310383836685 1.0807135915555128 2.13595372143027 -0.6054354019998025
Ni 7.665294261235648 6.696831326323708 9.73956445465847 -0.6326482149691685 2.4380390596076524 -0.7014650766325661
Ni 0.10897058804723941 4.5467603956888425 2.5704104207503518 0.8459816431221238 0.45415349176195335 -0.2508828471616389
Ni 7.218903187516972 8.12638854886562 11.54556799737379 2.7329178527342672 -1.3548937186821954 -1.0596004637259817
Ni 7.942771739829329 8.754850204536226 8.266545131543454 -0.4992794375663143 0.4615091607960761 0.6729762251642539
Ni 6.71162825096739 3.3815142938404383 3.889157513568296 -0.7745450844476919 -1.020435877711378 0.9117820865567007
Ni 6.9764828939087336 6.801956025913843 7.2123846689722315 -2.7145226380565317 1.646662248314603 -1.7115813175854913
Ni 7.222651616812395 4.712768958109884 12.407614898803324 -1.67135795128907 -1.1069936082979646 0.8795080570143434
Ni 5.721115180725125 5.404916427509725 5.170254445435688 -0.24681201952637496 1.495888902282056 -1.255622654293999
Ni 3.87327073310697 7.708776041062554 7.471786284396059 -1.2139772108390707 1.0860257477970459 -0.9318024955426856
Ni 7.9245168891606195 8.822528095465085 5.8373361681370355 0.07535337723033475 0.3569971597239142 -0.12846671211554647
Ni 5.774061744522973 2.5694077159138264 12.218546936464163 1.0603103453088127 -0.06945809479182231 0.15784285128481848
Ni 8.903119325316679 2.7519468515276833 4.204641253895594 -0.29228095049245145 -1.5626172568475412 0.2514117230819154
Ni 5.75732500771891 1.3666398368182386 7.258880185952657 0.196657510159171 -0.9515958761195289 -0.32680263841840496
Ni 7.135763025744492 0.9652673989375921 2.846352917547557 -1.5434003175994582 0.20683727890565023 1.488966978351242
Ni 5.757146957327378 7.3995868506295945 2.035766327700239 1.250177829129344 -0.38735494608016513 0.49962010873518464
Ni 3.9411360455006013 7.37922350848221 3.4961806202020727 -1.3892284874083236 -1.0307683699856378 -0.5686699123449949
Ni 9.232250159601287 6.170186381390028 4.322992286254629 -0.16055896466440092 1.4605452326754396 -0.5358564653593997
Ni 7.192251855226516 5.540553341564602 2.927370531231504 0.04525707206558657 0.21784288598753448 0.2416456448340871
Ni 1.112505701661804 0.5997983539558299 3.0834391962684085 -0.987226995059577 -0.7816320732014603 1.4509200508808495
Ni 5.753707773448827 9.20774480308246 12.59097775175485 -1.1271991367115621 1.4477714779495388 1.1000421166807959
P 6.523991251511758 1.5003275676394967 0.7633901165886482 0.3599125335984963 -0.5558403646804944 -1.0671625923439554
P 3.7833178010900586 2.896317605840897 13.313867964021101 -0.386334989456083 -1.2979162728558873 0.3733416625202086
P 3.824194422556645 5.882316382574786 1.4640352752012122 -0.6860572267179281 -0.7506078569058041 1.2971544549891982
P 4.793988049868461 9.183736113445276 2.688926383998386 1.2667745571457603 1.3565384533744702 -1.7569702872432518
P 3.9989555673825 9.170016862224028 10.742976807213612 -1.273256308215362 -1.2644577360871256 0.3187394017942962
P 1.1221391649510408 0.885445534198885 13.31359339157521 -2.562399462864309 -0.8737842671566888 -0.10013315527817594
P 5.665329181735992 8.600480515077471 7.986406268150023 1.6190845958066504 -0.13848270159065185 0.41748287581379706
P 1.2297659410958712 7.695525343503234 3.1770749600680728 -0.4619580754080367 0.6140712232979296 -0.7773139054420807
Ni 8.977488162537869 6.473640475000988 7.517431845033748 2.7700322410880616 0.11360239340920436 0.8346117107222852
Ni 3.326674773248401 0.33035657066421187 4.020181048267832 -0.7757756144206833 0.27802238369090826 -0.3105229274217749
Ni 0.9035729382715502 9.072435876590932 7.524426414099008 -0.3357436496617766 -0.22696078912840265 -1.3827991868432121
Ni 0.2253480723822345 6.619201355615499 1.1825272980076278 -0.5141581544503596 0.34881745212659926 2.34550659949487
Ni 1.9919996672468814 6.317396570894524 7.8530915060436595 0.24350172420621935 0.44480238956435647 0.17114085394530526
Ni 5.9910395742885285 0.3635817108315167 10.187691051140929 -0.548151737786985 -0.05046869817351308 -0.7024279547664677
Ni 4.873014310489213 4.4503320520640886 2.8432810797399584 -0.9293512057887156 1.03074497294687 0.4648541660089091
Ni 5.193308222709863 7.334317325523044 10.00952633251483 -1.0175454435374607 -0.3616585697553255 -0.025085996434350343
Ni 2.844055130389463 6.7550069489886715 11.631824978105417 0.3643690267079531 -0.810433570814185 -0.3859961180594255
Ni 5.47055142447258 3.3859093271893217 0.8465855676932357 0.3738844223975561 -0.2716277930184741 0.38295038925456626
Ni 8.329909517460607 0.9052840962449108 12.370103429736702 -0.01404413679789194 -0.12819211829792115 -0.2942753552146609
Ni 2.438746841748622 3.7436406769980066 11.919219863507461 -0.7057194810335459 0.7155683488031677 -0.7547686731517129
Ni 1.6153949759357416 3.621329429088357 4.275111724649545 2.520881031905549 0.8534015897352786 -1.1506046601196958
Ni 4.331656780570999 5.013027515746498 13.225265403657867 0.12850913531770772 1.2800507054293762 -0.7926680193006477
Ni 8.644346508907157 1.0970059465252302 1.1444591871906364 1.1380049690778142 -0.7124244038575472 -1.0506751362118938
Ni 2.6633620962036013 8.79314040978897 1.5414450256883143 -0.5191859466822543 -2.4065834122015324 0.8721138214328013
Ni 4.367210632438085 0.611002409119849 0.46708615185870567 0.7223707164369817 1.624052995555519 1.121503114768049
Ni 3.012743819756732 4.356696288264424 6.949636643294915 0.07274653573510698 -1.381099944763918 0.5987150525568333
Ni 0.6654980113240311 8.283147862000206 11.205258409822907 -0.2966281717175537 0.14658244787965077 0.5743163119974948
Ni 1.4564896870295259 4.73929846644824 9.849960382945294 0.7848212695627194 0.8155636929518986 2.7894145022694152
Ni 0.6517309676292666 4.259134044777804 7.935576629796765 -1.9080051144673014 -0.5182024997230624 -1.0676642145707225
Ni 8.783891160502513 6.281280454633124 12.335033125248726 1.4121601565038324 1.9706233035191545 0.30552316021433834
Ni 2.6710932316254112 8.898714920894557 12.585039302643576 0.283246351094009 0.8956011059214639 0.36621816410154995
Ni 8.354667892956876 1.947768201560891 7.917924339137294 0.6675162304909472 0.11934418098898802 -0.779104164573284
P 5.575301281133173 6.9564850236176525 12.217161891839503 0.08051923770199035 -1.3818345089370976 -0.0409234776872392
P 4.100940957437719 3.942925920489166 4.893393583461105 -0.7320468060741651 -0.05869519984836344 -0.5392570064005165
P 7.829822194084998 5.360806785775836 0.8188040839702089 -0.28606479437941057 1.0057769901476228 -0.7598689704927558
P 0.6877618071241954 2.4733354730721366 2.219937904272253 -2.1246128424961537 1.2879010547117302 1.3062541032976214
P 7.1027112504321 7.204715382633796 4.582188675174532 0.40122990429004446 -0.8841149596587355 -0.6321316803440661
P 0.7368746648601503 5.379155347176931 6.0336048631527035 1.8477325428294888 -1.0000485723042778 0.17015457877263598
P 3.485795596839104 5.5039311873483205 9.90764777269453 1.646810600967009 -0.05106802232040882 -0.6575403502251579
P 1.3417502662966305 7.236099106909725 13.318737173675856 1.123818650275103 0.4427982146501342 -2.1861737939280865
