# total energy = -340866.37794706976 ev
CRYSTAL
PRIMVEC
9.22989018936469 0.00000000000000 0.00000000000000
0.00000000000000 9.22989018936469 0.00000000000000
0.00000000000000 0.00000000000000 13.50887726373347
PRIMCOORD
 96 1
Ni 4.719824417461915 6.547167338231557 1.270099366943962 -1.6739966744634975 0.679858554106384 -0.6420754218203393
Ni 1.406173794350242 3.0486604712521688 6.490664718494939 -1.1231434785849497 1.1526198907775116 -1.3871392089794627
Ni 8.401710745853515 6.127096568763437 3.8014521739234164 -1.0911566412657079 -0.13566194431240505 -0.4741921555803833
Ni 1.5903931757840222 3.351271656165638 12.2884314157687 -0.1309419131289164 -0.7930068906973051 -0.1797044272446002
Ni 5.719089265978715 6.904031818604106 7.450740375587836 0.0012981499861332482 1.720954788380591 -1.136054530219663
Ni 5.651581847981487 4.458027807662438 1.8132294954401986 0.7663532926655189 -0.4195988937155354 0.25454384095299387
Ni 9.22966882953185 3.9338900245330173 8.62759292932417 0.37867027382197366 -0.07812579776914932 -0.08608284783269692
Ni 3.438235683014131 8.63483931623552 8.703446014173066 0.06793934415445073 0.8282001507689867 0.22160980922913448
Ni 1.8813562390797034 8.416755467118964 0.8280614584502186 -1.2792912015555322 0.17964400632030997 -0.4749596298740272
Ni 6.903727232222658 7.312389857222011 1.1231281309941314 0.21347355327524525 -0.12644351103793064 1.0923303498588348
Ni 5.735001596936771 3.6808156611113616 8.757115980562219 -2.352276571228852 1.8900387597968673 -0.44754961329219056
Ni 0.6393305066148732 0.82558600185918 2.072019006964655 -0.2326454982180058 1.3539352114236682 -0.10268548938638446
Ni 3.6095332179622512 0.44382112330876433 13.425730197412427 0.6220115611909287 -0.39099819925970725 -1.147490025750114
Ni 3.1222873065493917 0.8973502452843982 2.2319093204330414 -0.17979467296556131 -0.5749122937102809 1.5201958544585368
Ni 3.9090154700481214 2.288228265351757 12.02506203265411 -2.067396284075846 -0.6137788888684913 -0.6064846691999232
Ni 6.012719767584651 6.543595370667307 3.1629283597248623 0.04459218478807804 -0.567498517744713 -0.02259331191948367
Ni 3.0224845022283597 7.621618873514207 6.617134522006235 -0.6959477463587627 -1.6814623867129235 -0.0415539121823865
Ni 2.5890027020861925 0.5276589862967627 6.56901633466074 0.1436205370378494 0.8038237788071512 -1.92713000822221
Ni 8.357951835718863 8.51815504247001 2.9561751239981593 -0.4266984808747941 -1.1200203595749356 0.5459369895238533
Ni 1.7398804798424177 7.1170761475912565 9.52494778955374 0.11081377492047366 0.335682457406538 -1.0360686991526284
Ni 7.786400105877417 3.8923555179719664 12.83096160139239 0.5089858662208008 1.246561572532995 0.24630911174802744
Ni 0.626646791300163 6.1044002684004095 1.8000852085971781 0.4312670740820831 0.5983386430540211 -0.41220697212683843
Ni 5.816021574401861 1.9839557001758459 2.290160081401363 -0.21156348073672596 -0.773967614677667 1.6171035608208797
Ni 1.2942059945519957 7.587099083616801 11.871601260801377 -1.2245058782845364 3.7276743234016707 -0.33285810058386545
P 8.37484253505369 2.546840562981553 5.933720213116497 -0.362179475255802 0.3988850582069518 2.209563890717253
P 7.433282960985709 2.013076004220316 11.941928410299582 -1.952496512011457 -1.0486087406011682 -2.11284078956189
P 3.239469994393636 3.2683687810697806 10.161674544101754 -0.03366962433830331 0.43411174261972985 0.2018665651639362
P 4.822017763382793 8.743022860991537 1.4227820590404539 0.8667654126366944 0.11208132877898762 0.40898332298321827
P 7.866109438913246 5.2660400983011195 1.496797472721281 -0.44632525396678613 -0.5297899474503457 0.1269847282533813
P 5.197277415216714 4.420757510441655 4.049475018358214 0.07896423451004465 0.3815249696619494 0.3533940157536881
P 0.577448706784081 8.952310624607499 10.138398606624941 1.1874642521502066 0.12350139769047117 -0.2887999339223865
P 7.8326418565153855 1.4108441188657732 3.181380756506385 -0.06078962048354692 0.21813830574076626 -0.9368786245140122
Ni 1.5943435688524956 5.502149923265173 11.431496091346274 1.667850966577076 -1.8558569717088362 -0.32022472809057106
Ni 8.101868528044117 3.0166973609808534 1.6930000207924423 -1.7193504200079484 -0.18778720425273465 0.8010814401753236
Ni 1.3439458736314407 6.904668681038043 4.0382219360472735 -0.7001095910459362 -1.0836040257294306 0.6043241712134947
Ni 0.3630198942448961 0.7999149078373465 7.254726117279752 -1.8379950038267505 -0.8549051708639986 -0.4147204825773116
Ni 5.151257181947069 7.2782115732674395 9.493364027775684 1.0619535373391906 0.727937926112114 3.2265596323988306
Ni 7.34451910551957 3.9269491469921487 4.668587450168203 0.9444045005774122 0.19457337393663265 -1.608573411862681
Ni 2.0080180243102146 1.8641517234730816 8.259152320478538 1.368804929446649 0.7200194425959857 3.8042430610963445
Ni 6.388662431304241 6.055103424057616 5.314973284964246 -0.11733126432401729 -0.20309632380597925 0.1633612099998864
Ni 8.967890679513067 1.613994005401046 13.189379472310321 2.1815627775186366 0.36720392505358695 1.4819375823082865
Ni 3.716443037850396 2.8478918964263964 1.2903774360361013 -0.7060084730288744 0.5415630288258738 0.023603755461869026
Ni 0.6414709181863194 4.090041309421875 3.7121852894333713 -0.40778647446163957 -0.5744914041227783 0.3617696414118931
Ni 7.3293267060085725 9.087833104571034 6.72578602220284 2.992013831834318 -0.4906947812210968 1.0700993063747763
Ni 1.7020379294201269 0.8569934727316119 11.736945467541416 1.5162265853981436 -0.7309242624339477 0.6788810206844631
Ni 8.337350720464581 6.20456303844497 8.020072316800853 0.5763271717799364 0.510371690824734 0.4316913061036952
Ni 4.46918674509184 1.5568148347019994 9.344496049359565 0.2378391266038033 0.2348355638907891 -0.28632961800502305
Ni 8.878305363806053 6.4162598034414735 10.420274842874099 -0.09628961316236966 0.9924820728109295 0.5468229916732325
Ni 5.8902760422426725 3.3309382077314167 6.34031072773297 -0.27640953067783364 -0.13699377574995117 0.21120532606635886
Ni 4.346595341504312 5.312743343456434 10.748392829761228 0.0074767679930193825 -1.4900398997004467 -0.034249408101173266
Ni 8.344753092522796 6.497058263538237 13.05077790092706 0.8970879748796355 -0.9787850349398111 -1.4646823947722647
Ni 7.027970786182282 5.140882785197153 10.172779025178109 -0.832023895390451 0.8569034322409501 0.36917724672987384
Ni 6.039781806081761 0.24786316733179609 10.768047881254951 -0.4950885394134183 0.362401361458621 -0.16015144481333707
Ni 1.6907774631969086 5.406934374446551 7.758620904900351 0.053138788806508484 1.3566230426684764 -0.3116485563857858
Ni 7.932647718424049 8.466495346198409 9.17458115198541 0.9175506136093619 -0.6283819834936468 0.32239988136501896
Ni 5.569232766306444 8.05585752466482 12.85215712158501 -0.06705257067412322 2.086044495304653 -0.06092871716457248
P -0.005858211403177541 4.148808021260588 10.904042008615214 -0.944149961364445 0.3867900747156306 -0.6941592869997723
P 3.628131447011256 5.941704991255601 8.878412430534079 -1.1990815246741606 0.12660574764740778 -1.447721855658526
P 0.7482893621600298 7.716022191982303 7.253172726734368 0.05194656827062021 -0.1785649143235183 0.9140315447125097
P 3.821202293287713 9.055131603071967 11.0219335520381 -0.5338841721243773 -0.016538878195287647 0.4288880323269452
P 6.706475245619055 5.124878155335629 7.19473367600297 0.6088392854750289 -1.4872916475313482 1.0346844172105922
P 4.256096266652956 1.908667484616181 7.047851969989505 0.06493732410333332 -0.7132764674451973 0.7759519920975474
P 2.048269576113046 5.426160236039144 5.466502240767376 1.0013384947602948 -0.7896641994773174 -0.03620447494501507
P 1.8826391938379226 1.809658450864983 0.3562599225548264 0.43129612754780566 -0.04511154762665779 0.5108823119125654
Ni 3.004227779122191 7.650877625913881 2.7424505520924427 -0.038073409832953785 1.4818514503523834 -2.375727860273257
Ni 6.521517472957522 1.2283045774751284 4.9597840296896605 1.4107506777508154 1.546819627693652 -1.0795907908049793
Ni 7.34065178146422 0.4726986812371109 0.9423764193636813 -1.0959859443335513 0.7754467703263549 0.7996899591444357
Ni 8.228244186673875 9.14248328531503 11.673737332467773 0.21611716154567945 -1.1780247040038616 0.7232446344015028
Ni 4.163935811539157 1.0699381189030153 4.548317364002919 -2.659564279542781 2.3786782011508323 0.4865378216299298
Ni 7.469537970268333 2.9043788253494247 9.710991920309104 1.2382311982904286 0.33877703717146174 3.728278789754889
Ni 4.074415105064573 5.505352695215547 6.443707651355085 0.4189255217975947 -0.5812834873439472 0.3433294324288345
Ni 5.003117441879321 8.66045226194817 3.631659111101841 0.6587765366251042 -1.1094672666494376 -1.7346348569708447
Ni 5.766669350716985 2.0400180541429176 13.499326574071507 0.6779148001164519 -0.3291734526434266 -0.4120138822794259
Ni 2.5990171331125795 5.075073667023755 2.9211864556711302 1.213638082332097 -0.5638382952843063 -0.28403233733041405
Ni 6.966748923511293 1.9278564266473865 7.997026203593678 0.2845254749167487 -2.4117837254555496 -2.949752866282578
Ni 5.197434323352611 9.191937037793721 6.352738775085071 -3.8642271549594605 -0.3984801094590492 1.2985050554798219
Ni 0.8681081066873491 3.7547932322417665 1.1464280661858464 1.5044301069838477 -0.030127158402683596 -0.10148375576879942
Ni 3.629128275168721 6.927669567782518 12.297712070512508 -0.16852912735407102 0.7808679413419262 -0.11638021326465764
Ni 3.7435881453606297 6.681757599270056 4.469925136319592 1.5370162684499853 -1.3260073746651484 1.1979656659021627
Ni 3.1138881063337123 5.025629144435411 0.48730313673301107 -0.6651667564221642 -0.8769238412269349 0.289702648242314
Ni 0.039342407603662 5.208408662975075 6.039333233410902 -1.2126896023758986 -0.4646811307661546 -0.823148704388008
Ni 0.429881219917841 1.4461022999909319 4.683581407036741 0.42968018921093737 -0.2902634058417904 -1.3631238199014717
Ni 5.872665411460787 5.751163134934194 12.722958039498137 0.4327099771761967 -0.6577172421226544 -0.09677015234321398
Ni 9.062977009866833 8.251226613637655 5.373440025366685 -0.3406115192770392 -0.4451016659723302 -0.6244636222758471
Ni 0.11181735258559156 1.8957456381305207 10.447373800932597 0.5102426214460374 -0.1889262029531843 -0.311740858989276
Ni 3.741640638497434 3.1907084836909623 5.477539343644199 -1.6590104854673104 1.6105274502652587 -2.1681367339207176
Ni 5.732131101038886 3.3522592544327563 11.365342698262937 0.9492492302642234 0.3330097956703813 -0.8212034077361793
Ni 3.3936830023096443 3.8200577868846977 7.821437692623284 0.24093859146473343 -1.0866433267763866 1.793557856559298
P 2.3373774314490006 2.5718351060409588 3.708618859803329 0.34125069552293485 0.02596608504645851 -0.22381555863120164
P 6.124586038589081 9.133253394968131 8.451829050437185 -2.5329654738739085 0.4225767453969368 0.36003646077087026
P 6.588941821941629 8.211122740080375 4.922581110668409 1.530204130624158 -1.6516501884474977 -0.734855993388186
P 8.829045439024647 8.285561805728126 0.555289586039243 1.520012534803137 0.8549943881436952 0.5815277421442694
P 6.831983294556204 7.273393570506357 11.27150978701828 0.840124155900082 -0.6413490851772761 -0.836912848051636
P 1.850417646636894 6.49386472147821 13.484237549332395 -1.0217324850356144 -0.630731714672746 0.5834069614448533
P 4.751852136965658 3.98063018924972 13.285427557238235 1.243987898268548 -0.29827393485109277 -0.9207840329449948
P 1.7687146572861336 8.925996207228486 4.479395003815512 1.5343955429976865 0.2608849526796732 -0.13268537818258438
