# total energy = -340886.1492287812 ev
CRYSTAL
PRIMVEC
9.14826554344961 0.00000000000000 0.00000000000000

0.00000000000000 9.14826554344961 0.00000000000000

0.00000000000000 0.00000000000000 13.38941134369631

PRIMCOORD
 96 1
Ni 6.745436819765606 2.0930224678202003 11.29125009557308 0.7882711757845328 -1.3035431321243616 -0.127909811170812
Ni 4.71023138858888 0.5471339616061517 6.143169007726034 1.2342493308245452 0.7675056611024073 -0.7839990307717402
Ni 3.2139045244190845 1.7768401228088502 4.686949968248061 -0.18451418992841773 0.08459495043326076 0.6185323443930768
Ni 3.6790663697055876 4.356870493432106 4.677872144599118 0.44932418869411 0.33588531744596345 0.22594006117337215
Ni 4.01524682264457 2.818617129430501 2.636749615431727 0.08356985160285607 0.24794176225544395 -0.6614497125818931
Ni 5.637124479677502 4.653777443473868 2.4268847503342683 -1.5074326412555974 -0.26469147090995704 0.3866535491377664
Ni 6.045686007604326 3.3809701451759064 -0.12393978334527136 -1.289269652924483 -0.7731194077447587 1.5643874613740865
Ni 5.67757810879735 8.24788387341554 12.675126482777435 -0.2180172067818697 0.3581613552353444 -0.8384004883407561
Ni 1.5730533651711893 6.931466794472099 0.4377719390031865 1.2792099546956357 -0.08361998811450115 0.2459494144157635
Ni 0.5390990402004614 0.0968041988370639 0.38894124335573893 1.4592699655074415 0.9555085809103737 0.2688836546144337
Ni 8.003268407781073 0.12801442070618957 6.74213063668919 0.24832871328121753 -0.19651841347814542 0.5594738476680235
Ni -0.04589593214187379 2.656948985195776 1.0580965970754947 0.0951002208399588 -0.8624996953818048 0.9464624115477054
Ni 7.313809394072943 0.8218307531727511 4.393186362160524 -1.3082379664968695 0.10295416966673882 1.9292447405723674
Ni 1.1323997226011209 7.908099003951634 2.8600313264059767 0.8138176567950695 0.03623815639642791 -0.8551576531944369
Ni 7.791513511074352 4.011377106426186 3.45152248193194 0.9525368998765594 -0.39976540392937604 0.830082455393364
Ni 8.147353586125172 3.7823502848487545 12.474070482329342 0.451499599078874 1.2804201729536528 -0.9329065272401417
Ni 7.999398691562688 7.748022657877662 9.034585287868207 1.416699953355715 -1.760091863591369 -1.7430652471263852
Ni 7.32576617680918 0.807274948267145 0.18432839736223863 -0.506336858633728 0.009992335326021501 -0.47707719043766234
Ni 2.0785773569246233 6.897224837485307 9.004767431976477 1.1711701429758732 0.7371789850944079 0.8079102901716989
Ni 0.39007105411926246 4.984386602850211 1.5768306839101276 -0.16532913235953461 0.3433790547198473 -0.5594615063728493
Ni 6.121671499117094 2.539165069565282 7.105157588953162 1.3285309124179507 -0.4295066397475506 -0.1314291371779801
Ni 3.696457222025088 4.444638950640569 0.37401584853234854 1.1110572368443767 0.7674007600934267 0.035890543249022064
Ni 6.429409995264215 6.110446577604191 4.588671983872506 -0.4278593339521147 -1.1205361228690895 0.30881802891552623
Ni 5.2092235189240474 3.088106728393071 9.581917766831188 -0.25778934447348506 -1.32226693378611 -1.5311289564312727
P 0.30256515212467117 5.66165097892452 12.38592786107045 0.2564462001820293 -0.14889978315891778 0.38034431909028693
P 4.238501088822944 6.251823869421951 12.627928752484552 0.1002380562871564 1.3050168884564106 0.2343581100337383
P 2.584064755616891 8.837626795444264 1.2096248040609123 -0.3531160795019531 -0.16402738282897558 0.650478301172054
P 6.747074359252818 8.125260525445745 5.571561606811556 -2.3878205297717328 -1.4624223950934943 0.20856480311971823
P 5.220055065029407 1.3966199207556782 12.733798882225681 -0.835087364807123 -0.33632471897622723 1.0400161138361506
P 4.181699509626848 6.697664578412407 8.014084401835436 -0.5393074000224777 -1.4520603351328798 0.736517440251009
P 5.341260431878993 1.104817702746679 3.659687599338203 -1.8841948994215811 0.1423972061537096 -0.5725980437548074
P 0.545190870058197 5.913475277608839 3.6020059570210465 -0.5649639242483173 -0.1447757336882152 0.3033269238939679
Ni 0.5496973055408829 0.47812219272523854 5.072350832935916 1.2141201641748383 -0.9748167943206824 -2.734163037995278
Ni 2.292756543933643 6.81354565486223 4.906898051350019 -0.679120647499095 -0.4805018998484951 -1.5454682558720803
Ni 6.23274973628878 5.540070533197975 9.107490558457263 0.08641863390556084 1.0623921675385057 -0.6950216350000675
Ni 9.086477907908783 2.1791259407455756 10.12176513513251 -0.23455865608031862 1.6084633686473782 -0.3559381223317805
Ni 2.532395353249432 5.682591358177196 6.851267611965979 0.4319026507835529 -0.2150460399686877 0.7414796693522907
Ni 0.5468640877800469 9.294911984314622 9.01681752701869 1.4262384889737696 0.10022828609514352 -0.4827580428725234
Ni 1.879639179891558 1.289457141128835 11.509122437280352 -0.6611486364017064 0.5958300176995545 -0.8287179709456695
Ni 4.199483737353891 7.127340302632449 1.45072916547643 -0.12400636235134772 -0.5226379097865966 -1.0477569341238342
Ni 5.901408715689102 7.878330548692479 7.872625690456581 -0.034568482003488846 0.8343751692314468 -0.29000398153281665
Ni 5.789763286069331 2.9691426865399495 4.702534952998982 -0.25414172041856875 0.2841737480042848 -0.1927867143498551
Ni 0.7432444098375565 7.807522975334806 6.673884577613191 0.9943193831299842 0.22141132006508318 0.2739507847246959
Ni 5.136961371384998 4.628208041983598 7.1892703993510665 -0.2931250436603016 1.0241259249684556 -1.296389808909032
Ni 1.0633760609753284 7.503837160711903 11.464964675543902 0.983331259549597 0.0966624231207561 -0.7765587724436109
Ni 4.416626962317418 1.163448935001113 10.671628024275172 1.2515464273420962 -2.5767572742478784 -0.4700238831353066
Ni 8.48155801376115 7.586994892213355 4.458339392741403 0.5103161549964502 -0.8421967221583947 0.5483548549367266
Ni 7.597167763217713 6.301233650262363 6.793653666811982 -0.350990291408202 0.7643306058085353 0.532591678565199
Ni 2.576590622873581 5.54762700032891 2.7029473779089166 0.1708606037007251 -0.0010613513849788174 -0.9895582142959151
Ni 2.5970369958005057 5.410384724422994 11.474470638008494 0.14630708273107704 0.5062692386205863 -0.1944759291268199
Ni 1.2778022511472233 3.7457846684778744 3.697927348257463 -0.3370628826938324 -0.9302804024712044 0.2862051766120168
Ni 1.997679246950219 1.3177618739413204 2.7064548228217498 -1.3004423817118507 0.1571882484199551 -0.8950660593536004
Ni 1.7953562117592285 3.8009761529826336 8.174516615429255 -1.3638067049011093 0.48782671564468244 0.9162385796661576
Ni 3.5889651048477442 2.6797281657720813 7.045187050660025 1.571178516153991 0.09392651224683178 -0.029739950266593946
Ni 4.484461349455291 7.357492360840757 5.869007389678997 0.7496796886645799 -1.3588316202840212 -0.48831239703184937
Ni 8.404868105820922 7.386849144161787 13.377319881771594 -0.7930503423407309 -0.47045402869418984 -0.19428721015478154
P 0.32897985332789353 6.181784750348782 7.987118060235126 -0.5228060599333447 -1.6390497260746677 0.09702032068080711
P 8.63084855505622 1.8471536898407708 7.84287461690148 0.6987872726900869 0.8315868078530323 0.8919560529697089
P 2.2370253117766743 3.4160537425695336 10.425892810969001 -0.9200242719608349 1.3078173340196833 -0.11039211400202278
P 4.433331694740041 6.219228600187664 3.5530545042717487 0.0006633446156117607 0.7154433931895292 0.7324808082877902
P 6.975835881136789 3.922419374729803 10.226845769578963 3.137657312839467 0.41884170383453667 -0.3137005538188081
P 6.853743132553911 8.319844128199966 10.562115970121424 -2.902947475893265 0.3700110554850789 0.8786760480313512
P 2.7539754868794275 8.728176949494499 5.736814041387564 -1.5341368900196612 1.3467836879805515 -0.07584831458888228
P 7.359358606960262 4.486556302207087 1.223658243018363 0.9667808113900833 -1.1704052397853908 -0.24921240143775142
Ni 3.0577893772164146 1.8163514806036543 0.2826292524010228 -0.06917038834807442 0.08556605609727844 0.7256578718286858
Ni 1.4359483132446484 1.585000999642135 6.767115464027321 0.8661444912232438 -0.1277761138064251 1.461658006123644
Ni 6.931951652532558 0.8326732771964607 8.77050597299914 0.09715710336898752 0.1160184590498647 2.3695731535257707
Ni 2.755347726673181 1.8223435943697104 9.202501697297157 -0.5053780942648844 -0.5299874081731324 -0.8007060591137759
Ni 6.80254943998162 2.0403559045359474 2.137566286351962 -0.42666814185749097 0.7477354204540154 0.6534579526256681
Ni 4.711951262463717 7.26579929782216 10.620641082498473 -0.14982049520097424 -0.2425398745135823 -0.7747327749784657
Ni 7.479704036872429 6.260871503795432 11.004355007066541 0.7298490270918979 0.0027143136073695187 1.0706430946933885
Ni 8.2379122642476 4.0456007668823935 7.77049079743405 0.18359759165141928 0.027974630836055045 1.430388506586401
Ni 3.287676135731264 8.892562128520854 12.349013695791957 0.7577565521354434 -1.8525592747941708 1.0489360420336
Ni 0.4807779341394158 5.389599865680276 10.174091382947912 0.012530528366842935 -1.0909553238881793 -1.0022332386604225
Ni 8.686415118437937 2.484074215978732 5.708641958421809 -1.1198984892850905 1.6682793123637463 -0.6316267156831896
Ni 3.905495083940178 3.0796354347329675 11.746168628212478 -0.2094178951486329 0.873188799664535 0.4081903947682777
Ni 1.4529183453607313 3.568692548961362 12.570434649605877 -0.38371220712125526 0.14089105392182832 0.43150592956576656
Ni 3.27920484207116 9.02654762198293 7.977143706587597 -0.6719531832163782 -1.730310518563878 -0.20112505901222136
Ni 5.830134580801554 8.020485443060032 3.163985185201926 0.47906413896070404 0.29085553089983457 1.154184149940838
Ni 3.4822231454243187 8.585775051964069 3.601697660480717 0.2307241128255768 0.1060124968770884 0.09877381303680409
Ni 3.8879944524371775 4.8119418021018765 9.267186336695099 -1.781444361125216 1.4286141882947976 0.1934300043608088
Ni 5.53516706300163 4.809718773635996 11.49980401425424 -1.3335124247929422 -0.06230734267965399 -1.346662589021655
Ni 8.182098697703006 8.968794623196498 2.563349423690391 0.17675048682259883 -0.38618200881798653 -2.418398916779222
Ni 4.638216244212705 0.44635209702026146 1.624603840089856 0.8112450109718868 0.5592583892231078 -1.0313432686525013
Ni 6.4173617298750605 5.969224806296391 13.189627667261602 0.12745266902873534 0.22223921528301727 2.1525810455743057
Ni 8.633291141889101 9.105112924307953 11.346695901852947 -0.4853643701471189 0.2907534581043315 -0.21921996884071926
Ni 0.2633675798293719 5.069657583634044 5.788683790764911 0.4246925061883589 -0.12162860614779052 -0.6699034997762011
Ni 7.5274854264909195 6.278875289889475 2.418796768989886 0.700972967487496 1.1720335194174332 -0.5096692654410706
P 8.855411023171305 1.7867842871809159 3.287877397567681 1.3796387868373594 1.2824120065727012 -0.25882755593001233
P 2.1610215237333232 3.6042427078848647 1.4806815008679486 -0.8263420145143253 -1.1833093494415685 1.0424949143939466
P 4.914018146226541 1.176823698857562 8.257223337451826 -0.2411175402447589 0.7916328931679141 0.6518021621898
P 9.105442261858453 1.742351162659183 12.361920983292 -0.7402044021842931 1.017114783757945 1.040048252625667
P 6.587171830219389 7.995794275037763 1.1621819002582139 0.9331304703254897 -0.2094693172118586 0.5685367292012402
P 2.034528459545142 3.660220943204709 5.9220289056565685 -0.7252117854302026 -0.3550261520404725 -0.7967295909645311
P 7.075012225163988 4.294003614347621 5.951244805692106 -0.1086411927491871 0.5010385863492661 -0.7993042936702428
P 2.725158451210608 8.796432156835788 10.160875798907538 -0.9770649669249108 -0.327836478999558 0.2485958508996751
