# total energy = -340870.4977252804 ev
CRYSTAL
PRIMVEC
9.24894241291753 0.00000000000000 0.00000000000000
0.00000000000000 9.24894241291753 0.00000000000000
0.00000000000000 0.00000000000000 13.53676211873169
PRIMCOORD
 96 1
Ni 2.9995799754853416 6.353764399286857 2.6230314866351323 -0.8784970992513258 0.13190530548345022 1.3970019607061555
Ni 7.756468239560177 0.4973193277970776 5.5149306512305145 -0.42282614240358146 -0.07293988269283568 2.6433349621681117
Ni 1.9249916127410909 8.333195286487754 1.8139256889642321 -2.3111582039219876 0.7784400486267239 1.8336722080816807
Ni 8.541148505474213 3.061853104085049 8.67439801739104 1.0755055649920124 -0.006305630503053657 -0.8235672799826654
Ni 1.3091692866525215 2.999284009331296 0.360267575694994 -0.08559305268047196 1.498440207949 0.2603396216991646
Ni 3.9537841050714464 0.345187175252127 12.255913119220933 -0.022575828417986925 1.5555022430693146 0.8666810804530042
Ni 4.908108470907632 8.228423267955527 8.587613341870947 1.7691172070184304 -0.3578376533473385 -2.1493980198606337
Ni 1.7017406431673874 2.097539880549816 5.470476534892829 -1.3228019803539732 -1.3695695755268156 1.4052973679457281
Ni 0.973386435945201 6.145320986357759 8.930309776957932 1.669128547737919 -1.2896108383139855 1.2568837803946096
Ni 4.8880567639710275 4.493987078801304 3.1576388502650605 -1.0505715207544937 1.0122605409894374 0.31229493172053313
Ni 4.64962828006016 1.961848647862112 2.8080796999811373 0.8808761410064636 0.24612502076167933 0.05206072525098131
Ni 6.78607846092469 3.406052492298048 13.046365650033092 -0.3045073173553143 -0.8018463433658061 -1.8650381239874718
Ni 2.8191793556520874 1.2360009040070012 1.1392051733263089 1.7692743014215853 0.20855426159675697 -1.873529963508567
Ni 8.894365612443297 7.904257088794505 1.0214864853430385 -1.4452461404245238 0.807984337942744 -0.49497026866799915
Ni 7.863117793382133 6.946834327283152 5.096672207227163 0.5486880699064293 0.12166460159204853 -0.8019134491583157
Ni 4.860439422221624 6.837955778363537 10.944377028230274 -0.33196849889006047 0.8365788617509852 0.6776636033375941
Ni 1.8734472572255447 7.474939684466385 7.278296997035635 0.23857497632856334 1.0344928700250764 -0.4322232673477652
Ni 6.02561192598853 4.983071148362056 5.62053137499407 0.32857901359253733 -0.06297865771506572 -0.255012038838664
Ni 4.206548449568909 6.2973920958834375 6.735892775035061 -0.7939435435789617 0.03760032685127718 -0.7051564094412243
Ni 8.907573102067593 2.420485199325398 4.377395836886102 1.0820855322023752 2.126499003775273 0.2112932577944748
Ni 3.6600839418925193 3.3058864470381586 6.582413051594971 -1.5600204426546425 0.017570919004227803 -2.112706577976871
Ni 0.1448615589919682 7.130166861829922 3.128400168928025 0.44401923154142886 0.15259163018820815 0.05663291800269601
Ni 5.880690248871522 9.050580248125616 10.806694498262383 0.5586585508555797 0.5464077585126849 -1.3231976731304953
Ni 2.7956130506361876 2.3082585332881407 10.943036856488986 -1.3902245327730058 -0.9203867975065761 -0.6489063286992437
P 8.715861025784397 4.484682642833487 13.447974148082904 0.3871461725034687 0.045453247236792685 0.29065421352230586
P 2.255169604406168 6.52376920795925 11.889284121002415 0.12935579958871915 -0.1005843838829816 0.16547002881277306
P 3.5041930191911863 6.811938503634446 9.346511256190665 -2.5349267113653373 0.03572342154353847 -1.330071003211561
P 1.2488939295926231 3.7168631987577507 9.77592484951885 0.07580743404861784 0.5555783692683592 -0.7438947065516867
P 3.805847272760096 5.45805058089406 0.8843838640582282 1.519984252668363 0.7472088585265841 -2.087591785187114
P 8.861457875690324 2.301636290591365 6.591902466409065 -0.27172960870366103 0.8062267318216889 -0.304922550515862
P 2.2856078735613203 0.8431816758381216 8.642708366340813 -0.8158583413741819 -1.0433040405588032 -0.3245732348672539
P 3.773004278603321 1.8401880606646435 4.93722229152343 1.8955499194230838 -0.8007790784435563 0.7459107085404508
Ni 8.542110395474861 4.110081981234592 11.174448167866274 -1.2638512128513781 0.5311480041401369 -0.42936934283873796
Ni 1.3984308289242842 8.234083620651653 13.015772923541299 0.032923747311214266 1.2789716134325846 -1.5661795202775026
Ni 8.979483628558418 2.1313262668226116 12.591151207225963 0.46309167479184765 0.9387012795450479 -1.54102924626412
Ni 5.964161953254762 2.282065528655084 6.3383861829014805 -0.12718913095470352 0.22602927845306878 -0.6412197586882634
Ni 4.0107020960713875 2.185673051859279 8.684671742513355 1.2868816123082805 0.6646679624088747 1.0511057959914092
Ni 0.20801148732303673 6.393442361813627 11.228540606989307 0.24438438392148878 -1.133213718336758 0.8212139492591405
Ni 1.2343545922751211 6.332214363695393 5.0163580917498996 1.4821949497347313 0.3817599684908909 0.21635113193335645
Ni 9.224358625262095 0.2590369771747711 3.8731111306324015 2.2725988555915504 -2.1546147881748827 -1.6975230397202117
Ni 1.501242071685958 4.363022055636019 11.791494129022976 1.528658383403593 0.5609146938796082 1.0281725842340035
Ni 3.1397939409645588 8.161692149160503 5.051689051389121 -1.0191423557109351 0.0040142633657156675 -0.3160842235596363
Ni 3.5773429039520788 3.1330329641330743 13.030054215368242 0.8337442205156674 0.3733622313454989 0.509052200682362
Ni 7.756440492733235 1.9538390638182463 10.68776049925906 -2.0470033222417907 -1.102443527033437 -0.5144183500902818
Ni 5.339543883025643 6.691064076533662 2.0151909977634865 0.14198942919232965 0.16077339466805216 -0.378429104345445
Ni 5.210308412073064 5.358513463711519 12.647978558591227 0.2970320920241917 -0.40931936616639825 1.5751423858977451
Ni 3.628554297544323 9.24544621373786 10.036629410992823 -1.414966515604376 0.13070974251345233 0.17847209749939588
Ni 7.741521948780862 2.4980098338007806 1.6825379891352008 0.04287443076602294 -0.3781105446637617 -0.6684107172807585
Ni 6.5492222972071925 4.559756307595678 1.3385235797684805 -0.4179988962182672 1.582374127759494 1.2466662164316593
Ni 6.965008498930029 3.6454706130365055 3.741141672331824 -0.3122823333150428 -0.7068926754060406 -0.10472720240676156
Ni 7.162343932140093 8.145460255399552 3.0891569066900093 0.044972193835316095 0.435513765173579 -0.23939104447195547
Ni 3.4933255119723157 7.92592736063605 0.30640728502403936 2.089853841748414 -1.9533300636563455 -0.5307479404882408
Ni 0.6911309139855337 1.4758629739765272 10.00334246760498 0.025990510526490724 -0.014680484830310201 0.1517771047067128
Ni 8.76515788831766 4.971750442969802 2.424108934923997 0.5726096137190332 -0.436953325833583 -1.2391243995286594
Ni 7.419372039044278 7.204861319957242 10.323973701013616 -1.5784418825846234 -0.4091658713076695 0.17912567192299472
Ni 7.990179762890938 5.396887325372025 9.086023119966837 -0.5844875961035417 -0.92493713588142 -0.3933008792509549
P 5.970330997778155 9.129584713371228 6.69677159883559 -0.8076634642682154 -0.573369117592877 0.25588107170717866
P 5.268354774035305 4.061007093316866 7.511915106049025 1.4262125208318406 0.24695368731056178 0.7561907503102202
P 7.3349291957180744 1.3736899082345146 3.4746435733924037 -1.5084513123280987 -1.0924236809035897 -0.6823795207560247
P 4.917875353991144 2.0788200213064165 10.85121705677319 1.2453570107019327 -0.5612350533335043 -0.08385652960533946
P 1.1272795871067243 3.4759375004221225 2.7673473580305785 -2.689758543737974 -0.6195294181990234 -0.9202631274445183
P 5.5670956107753256 8.097060540270743 12.75254987507524 0.36832286914937856 -0.796169604696003 0.47080961226139567
P 6.905713529755408 5.850991895101484 3.3013183944293076 -0.018404470649116694 0.1987565587800448 0.49065004402609047
P 7.957725224311349 9.205851491691917 9.801901428901761 1.0688559208859785 0.4759847287044318 -0.7673182276819495
Ni 5.627583693508444 0.418968762773061 4.514496608382449 -1.4606444772574652 0.9133756562960657 -0.050499808521764646
Ni 0.6649036882659153 1.3787860754494916 1.887809939744851 -0.5913436997934267 -0.5095682210868321 1.2467716316612723
Ni 8.833849782883235 4.7249331683802 4.854932601967909 -0.4611528058979219 -0.18918305615899675 0.548115742342727
Ni 2.677504057287269 3.5391817679647932 4.073779882652407 2.004585262286896 1.6136986489043887 1.1855971170344808
Ni 6.361145055253375 3.3710544945821277 9.41024294299328 -1.6407615665594517 0.3603776461603729 0.04100806698124551
Ni 1.3524265898547838 6.285830917991022 0.6725294412037527 0.13512638352390924 -2.220104385237261 -0.15933794777310623
Ni 5.329906485134526 5.70196368759709 8.871235857504614 1.9523928965540571 0.24954150264239605 0.3680246211826694
Ni 3.248755730364998 4.70755440577232 8.639228914242311 -1.944867277600973 -0.4256636118523766 -0.6765588003091896
Ni 2.983782782013145 3.8542284900042767 1.7777012814974842 0.21957478107697667 -1.237003496530915 -0.06685562417196873
Ni 0.1341707065712936 0.5418224635290267 7.683790975751527 0.7157046172707158 -0.6883673629083435 0.13265555338591348
Ni 6.696224986344835 6.965655924892004 7.016929286397752 -2.521013700828671 0.8117314636900022 1.2061152915924906
Ni 8.590269638103509 7.558744350772927 8.1988784466279 0.3950042350953068 1.0600298379539161 -0.22103593900353544
Ni 8.573908259150162 8.519755701902087 11.858745038376043 -1.2011990852377958 1.6851850869801492 1.3810384953983637
Ni 3.6724405288239326 0.629857596049962 6.9094612011810135 0.4260672750486985 -0.661897341642273 -1.0933613622265106
Ni 2.5203645273735553 0.9371675778438412 3.469201495734885 -0.5773712967737347 -1.1039051991806277 -0.024134945374990693
Ni 7.653656996798503 6.367036631507349 12.86510857814157 -0.6668251179611935 -0.18419254492294082 0.12353636469346467
Ni 6.865665609536079 1.1920499301311938 8.282400095299636 0.21397183306790246 -0.5929071876258047 0.405271935569902
Ni 6.570763083856342 1.0236914331906801 12.602007615714056 0.1457075014738652 0.27858982615860406 2.0191994126556447
Ni 3.9953118560610035 4.200064941006842 10.841186578833732 1.299725043929852 1.147818098513494 -0.10223580344347555
Ni 0.9957781252872316 8.310285656376143 10.262381294568213 1.2120817935885706 0.4896650544050018 -1.1307549723836203
Ni 1.14594395269624 4.8352268054738445 6.951980438786624 -0.2965312411283732 0.6697762301697175 -0.5530188360712992
Ni 1.642316188800371 2.7584692983034342 7.7608420643804354 -0.3799522258581908 -0.7339419662143489 0.9589818841709548
Ni 5.241366360363249 7.406238540958494 4.566098307340341 0.5959220631927284 -2.107919441000873 -0.13109412243606455
Ni 5.54617450326121 8.950108987769369 1.2741074712346345 0.47496220097718844 1.7893042234892669 -0.3484466990507418
P 5.107413928830565 2.111829496424842 0.6960467268253888 0.6421181021328167 0.05515916167064694 -0.4854577011918736
P 3.4078097913376957 5.603499447722963 4.662954156146074 0.4829601315810005 0.7315279574562176 1.27856743601563
P 8.200149251301834 5.4747634196553365 6.939106835979861 1.0093654788298292 -0.5381388336356733 -0.800538166077344
P 3.8950255745510334 8.509211907664204 2.552207710866194 0.27827049514597235 0.06434956992066337 1.505610500445194
P 1.8235029687303093 1.1282229792227454 12.441516269105774 -0.4537241175340186 0.0592173909004206 0.7237007481023149
P 8.552413717212584 0.7084847044491652 0.36213031267702 -1.513134576736381 -2.2838281486484666 1.1098848138028303
P 0.3251576657770747 8.300934975696757 5.674096624405211 0.8480110148473265 -0.2672918846472816 0.7189084689199942
P 6.435414062034252 5.081248671024449 10.776372765780387 0.14816213366194483 0.363652974477535 0.7749862857501686
