# total energy = -340889.27350341156 ev
CRYSTAL
PRIMVEC
9.06185307371006 0.00000000000000 0.00000000000000

0.00000000000000 9.06185307371006 0.00000000000000

0.00000000000000 0.00000000000000 13.26293795952529

PRIMCOORD
 96 1
Ni 6.851404085873494 2.0742580991156157 11.376324274994131 -0.9915274222071441 1.1147110315468802 -0.4294439048304152
Ni 4.951985374107535 0.3974537686894749 5.772786249592265 0.0675315671930708 -0.9201775097092475 0.5010817808823756
Ni 3.2014619652099423 1.8320438364189737 4.939714719271308 -1.1319695615170118 -0.8226877055911896 -0.994602718698358
Ni 3.6791575339949127 4.500152333128926 5.0567068632766485 0.8517547981604752 0.9166923793741244 -1.2592756776655538
Ni 4.093836978615401 3.0741157482292882 2.4608322073691 -1.5929709294387338 -1.430202101607208 0.9831985906264744
Ni 5.482303121929484 4.881348231763253 2.40166555826143 1.0316620854445007 0.1256950629076803 -0.6763374283270029
Ni 5.3804116493805285 3.093299690543957 0.40047952132946923 1.086824075328625 0.2596631644574302 -0.06272000473704037
Ni 5.453504553825555 8.021035546638242 12.196278773430118 1.6175324208281818 1.1187409786418796 0.3579217284207126
Ni 1.9270483008625219 6.812474366372398 0.3930533329842301 -0.028573954982950792 -0.42852447833993945 -0.9876653681485764
Ni 0.9838000460047479 9.338873609460812 0.03541372062622903 -0.6240504459978286 -0.19968061325621095 0.3038136337223994
Ni 8.049643815833994 -0.08938883428180937 6.977180789954336 -0.8144558045997005 0.7517638248871182 0.312058904450327
Ni 8.83223448292759 2.5022222198973245 1.285020563015026 -0.07241872008204302 0.2358886877456518 -0.7334375157741047
Ni 7.107428612192032 1.031773494570576 4.626682983360255 0.11995507510010955 -1.0779537694221888 -0.443383654839959
Ni 0.7605567720826739 7.794172062534442 2.2965045692329595 1.6390396987723386 -0.5856191386048237 0.7602461513265165
Ni 7.78514645717525 4.270017520175059 3.4165595396768174 0.8185880816005192 -0.3525589214469025 0.052774206378238146
Ni 8.094944017832592 4.3554798536515085 12.378419295556784 -0.22438248687826517 -0.7308103625639026 -0.49994226796129376
Ni 8.26713734417333 7.345845958577929 8.957151217180533 1.1348229718054068 0.7464933205167983 0.13883108606900604
Ni 6.730500846212503 0.9938133933159002 0.3095547030030985 1.8648074960339045 -0.7640639824107099 0.04030615581821446
Ni 2.0421519547505365 6.514366595788709 9.200406686760477 0.4104172272162674 1.2767103282022334 -0.33216441695095056
Ni 0.1507167352751897 5.060419504356629 1.2396587404175905 0.016795731401100106 0.12439614159059866 -0.6401905460928007
Ni 6.702708143766075 2.009030882875187 6.7990591995312855 -0.8298235453050224 0.3855016949215103 0.6382838159883911
Ni 3.646507678463617 4.600457981443085 0.6307321383693498 -0.4476336883655646 0.8959044960944957 -1.1387678153857677
Ni 6.358647717784328 5.858587496362323 4.710611145162698 -0.07488903599940652 0.31456161626752277 -0.1412728627412793
Ni 5.533493528228759 3.0234781149489995 8.94740338215555 0.4218126135374026 0.5444064118119399 0.6593118403032839
P 0.593238722532343 6.068550625049561 11.987069590893364 0.4310400456729416 -0.47606366157148333 0.8231885564870081
P 4.436529064828835 6.1463103836712785 12.322184155820297 -1.1762267315631743 -0.4477113356810354 0.04283714977018429
P 2.6767353805472527 8.85019507511827 1.3637354409187301 -0.050636848320261184 -0.5859389838380877 -0.23997159956577382
P 6.7888682399058355 7.92957426662787 5.640356333207487 -2.0250864675640416 -0.054064643054887535 -0.3769661466466734
P 4.976715170317612 1.4061730036271982 12.360859237258548 -1.4342292204887301 -0.40523079791932143 -0.19673361481274504
P 4.327016574100079 6.18478701053386 8.002379004154802 0.160387214973227 0.5080998640714216 0.09897461619370052
P 4.991513175891468 1.1118530875014834 3.523870000182397 -0.18106428370660427 0.6696705578297887 1.1877277902242382
P 0.3388145194130348 5.731195970117818 3.323188021102473 0.3917206792480286 1.1169818298589278 0.7942338211258708
Ni 0.7647442542478173 0.34033509830788666 4.571920394698938 0.418860215777298 0.6349005013384549 0.25286696747120324
Ni 2.0051614717422797 6.4077810835047515 4.57006362106631 0.15401216468481863 0.6812415504968397 0.5832241560100859
Ni 6.427708097746583 5.6909432201122625 9.105921466480666 -0.9657528843462012 -0.020056661540559007 -0.3831614768241079
Ni 8.914235188645794 2.3927278528741094 10.054752728830206 0.365000489644365 0.0732270749159513 0.5166904339539101
Ni 2.456559543787916 5.481070709952727 6.905308517077465 0.5366087701443919 1.2662698495951998 -0.5406366603568624
Ni 0.9024209833865833 0.011858340535179968 8.773645073841385 0.17523533572965305 0.603041190736013 -0.05129093696449231
Ni 2.1351446878790834 1.3704602418595502 11.149819640260036 -0.5098070765705156 -0.4958858385037331 0.07095833348643263
Ni 4.398958623243281 6.999338832348209 1.1387930696022297 -0.8332976198965519 0.4098803808761909 1.021103593202364
Ni 5.946550901203368 7.882416384811366 7.946820784820254 -0.6577321545209898 0.5386414843037046 -0.7152179074422844
Ni 5.2971785316855655 2.8694719271182008 4.92749934173698 1.811229048586816 0.2730658110165813 -0.708435080192496
Ni 0.7294918346008992 7.760452908376255 6.567461803540295 2.1182892142709715 -1.3410416432904515 -0.16145088035105098
Ni 5.614053399356491 4.773983400141052 6.925720340442506 -0.3982759638680431 -0.016296166056862255 -0.11372966301568802
Ni 0.8531589393568222 8.083362969992182 11.092378367919826 0.3231799540641531 -0.8539932005726907 0.3350178272393456
Ni 4.884420199852375 0.9005705530508934 10.195843057907535 -1.0422640293300631 -1.3762798976674555 0.7866968893188774
Ni 8.52385963315518 7.485706594234331 4.483668822939798 0.34148775123440545 -0.1750551013980469 0.6000232298452957
Ni 7.587770241985922 6.300624674496267 6.964527724931203 -0.10274873852415209 -0.1755567236248138 -1.1038141821287182
Ni 2.298258037744007 5.49772639534449 2.363309454040693 1.2407560215948115 1.3102974201290596 0.9726933202197765
Ni 2.732701383256462 5.351540586454437 11.072749488634136 -0.9311142112264095 0.18099537814188182 2.2439261702472066
Ni 1.3978270372257762 3.6867332429108615 3.871822491928975 -0.4223150070951178 -0.46108621432604463 -0.8741509064674879
Ni 1.8004542176618004 1.4604988109849881 2.5211651169283043 -0.28395494712525937 0.8162830876164264 0.061801863798145174
Ni 1.3869437520486776 3.798783052415294 8.113681210805685 -1.3444894926297364 -0.9923943981931297 -0.4768033679509853
Ni 3.9626213505018395 3.1563248765612095 7.021080935699926 -0.7410986318637881 -1.0756839995514054 0.24986031943439552
Ni 4.301806499693178 6.990440092927801 5.4637335732326395 -0.22916165343446337 0.926410892213469 1.818806089603126
Ni 8.568163031349046 7.397281034902002 0.3232299450187183 -0.88582345770941 -0.35743630414386185 -0.4656509508785916
P 0.5272720591058597 5.981774322921422 7.820491307720425 -0.9051504401727959 -1.391398498476449 -0.27202785667037016
P 8.527729044288085 1.6814449052297977 8.011252370387455 1.6677720337100244 1.521640300214547 -0.9893450698438444
P 1.8028646704986928 3.38126724787771 10.278140086211327 1.576598915838614 0.10004522355005996 0.7212242615373643
P 4.2640457591994485 6.032901296251305 3.5995482512227825 -1.265688266060117 1.1876221178843094 -0.6565152513947531
P 7.255327111255667 3.938843048832642 10.186174967186929 0.6738100339194589 0.009976651596737655 -0.46360332432094353
P 6.560491426389401 8.008294581643236 10.053810296142098 -1.2531808776217257 -0.5373631318119132 1.0232674336229022
P 2.5867058732745845 8.613898202280618 5.8152809019731855 0.1481906729070351 0.5719244147265505 -0.6664551362162845
P 7.201028489456188 4.203702881602197 1.1230471942286024 0.018034231793891523 -1.1935227996394606 0.8933981847328744
Ni 2.8708040194754307 1.7746279372665208 0.17790682451239548 0.9897322779799342 -0.14140861698819518 1.5293824060538113
Ni 1.4821022679893203 1.551960090995359 6.870970438375068 0.45864495187440363 -0.8090274344952776 0.1178529411554422
Ni 7.075458395618507 0.8973481582057842 9.320781620404961 0.0019049303321967193 -0.578571744839739 -0.6635911844049281
Ni 2.9996816895742615 1.9588372803806413 8.987350747722745 -0.5709772203219328 -0.6425083955926999 -0.363982847013128
Ni 6.566191331781904 2.4370221892152064 2.5997476917815625 -0.059216105348839955 -0.7317817253382365 -0.7908523062481476
Ni 4.50261715708244 7.081321414360874 10.133786583951425 -0.5997969727671025 0.04592684443910155 -0.3397604841306536
Ni 7.725211362952661 6.31199729972296 11.033159160066086 -0.9848476961941233 0.8145936157291455 1.3105157067874527
Ni 7.785073962353088 3.9357982663018296 7.938570874058198 0.8511423613874568 -0.16273900303485522 -0.1396155296435144
Ni 3.1922551227953444 8.468437341612185 12.543648588043567 0.23422209867650629 0.26242041548759326 -1.2583328541363104
Ni 0.19523218082388144 4.9354837402128675 9.937255839625562 0.38097578202669874 -0.05995298351486449 0.21334319834496807
Ni 8.840589511181781 2.668896877900966 5.616323393475445 -0.05108010650526687 -0.45581365307319566 -0.36926492134767375
Ni 3.7391560611868937 3.2659914187870602 11.867212089042065 -0.10143747591189627 -0.5775217063086698 -1.439813913665359
Ni 1.3520012477665029 3.439625579718272 12.690429760660626 -0.5077486513795901 0.16087778145640036 -0.4780346692549251
Ni 3.478111268433624 8.318273379355983 7.9012097612716365 -0.24137285078867457 0.39893802293207425 -0.31628194139273913
Ni 5.786292034961081 7.957919742093286 3.5284317368669527 -1.2206340540339558 1.2196454648684414 0.059760922108716426
Ni 2.860618496961643 8.482410718583948 3.479346398966212 1.5032553699494562 -0.12984225230683447 0.6142715122341937
Ni 3.464282881106186 4.466324436737495 9.07220774943414 1.3231773614155213 -0.09639477128166625 -0.050456613988655044
Ni 5.544893339013764 4.630833311929041 11.185656549410636 -0.585739980453404 0.09829224541469522 0.46428646643089716
Ni 7.9766868391805215 -0.00518700452570458 2.3689993913951475 -0.6758612600215328 1.6477590809232074 0.030070594133135307
Ni 4.824004827432962 0.6844616758148557 1.4156988232593097 -1.499342150937979 -1.2406344084152827 0.7531439930640965
Ni 6.4076904649770485 5.9304479888305925 0.17886919327659853 -0.11450767883229311 0.3895632665853936 -0.6824653956016118
Ni 7.785943900219034 8.69681415512862 11.687008991037683 -0.1868711201963685 0.8755768402807372 0.11685072514317295
Ni 0.1364950635375224 5.090232999970829 5.552382960328394 0.2317906064168782 0.28131802372304454 0.4099014639221134
Ni 7.521745582701709 6.702055690366614 2.5857688776981385 0.17110228739788597 -2.33532554519681 -1.059435656013343
P 8.74414421214776 1.9094411209298803 3.35870595303556 -0.0612858433936751 -0.22076417339938753 1.2116074250553133
P 1.8948424761169695 3.6020864761837363 1.6483845477680088 0.6834462714576424 -2.106696367227049 -1.5062872147972446
P 4.757064921018951 1.244971704696802 7.919008146297731 0.7982275156662962 -0.3922107315105697 -0.6302185224817534
P 8.580378408883377 1.553681843021711 12.443792407626814 0.9888856137089227 0.9684954800883449 -0.1141145571589325
P 6.413816277449754 7.886104558888868 1.2481868500596949 0.08835775990980266 1.4827580213270528 -1.0580608871530035
P 2.047308148976822 3.499769096554578 5.890667361354368 -1.499845315826643 -0.7928783355392409 1.35949316512742
P 7.160087038640092 4.073665294348771 5.578404976743512 -0.011629613819128358 -0.6553310012786648 0.6642457872697914
P 2.620434089285543 8.527493436116059 10.000851922367342 1.105367128438135 1.0162318669323596 0.35465848428840857
