# total energy = -340890.1283038648 ev
CRYSTAL
PRIMVEC
9.05299957512588 0.00000000000000 0.00000000000000

0.00000000000000 9.05299957512588 0.00000000000000

0.00000000000000 0.00000000000000 13.24997996941979

PRIMCOORD
 96 1
Ni 6.429186857197555 1.9205123956911092 11.21870528399882 0.5539056095516267 1.0584120998448354 0.7133589998566746
Ni 4.841272615117938 0.6185190411019461 5.839889088319327 -0.31945134025965627 -1.8694511654535029 -0.9832515553515969
Ni 2.716950038631066 1.6417976959105756 4.8732894536291225 0.4436957867637391 0.694666565653494 -1.9587268091918844
Ni 3.530199101894291 4.386830139411204 4.551805667670228 0.40966517954159126 0.9056569474955692 0.7353375610102949
Ni 3.912914661488342 3.0826097469116887 2.5840510986808205 -0.9800114511477445 -0.29839349114809255 -0.2947926611707116
Ni 5.609863231178858 4.835279529359186 2.5318460709822976 -0.3056835970516026 -0.35449161969324106 0.1251481892652748
Ni 4.949238688771839 4.544868354049485 11.227860582530282 0.93752165741465 -0.4834586684839738 0.6996287947547758
Ni 5.700257432540102 7.954635401791684 12.208121193670573 1.7138364321682549 0.08132039344704704 0.442747821028173
Ni 1.8004605675237122 6.789776885682254 0.11627763261932478 0.9504581629706598 -0.13322736672898344 -0.0704130025059239
Ni 2.566905622671 1.7013030625152286 0.16161505479429839 0.5223185787739649 0.5109532743598169 0.2662917255175414
Ni 7.771248788173785 8.78614436531987 6.837440023463608 1.7984735486933607 -0.11157790678000784 0.2290230709740701
Ni 8.940660963099912 2.3149968548114117 1.2148853920956337 0.4561000739653629 1.2611600391724602 0.6204491017998154
Ni 7.0846330838130225 0.6907013230962986 4.638248234690543 0.0761560756372882 0.004166986893496049 0.21837484723160455
Ni 1.055941877493794 7.641808999384294 2.3234233868722076 -1.1905215509192915 -0.36170022162653837 0.485490354202022
Ni 7.691328907390905 3.8496251410360176 3.8068252746588964 0.32272178348081193 0.28606119483498477 -0.5336746272167325
Ni 7.748697766081561 3.93083054776715 12.510591869794824 0.31631356596162297 -0.9022252961062011 0.4891410635807317
Ni 8.174596133937317 7.196166039323341 9.008342998975419 0.36914150839593196 0.7919499101877007 0.228641005044303
Ni 7.112661170684771 1.143149422983315 0.270009335330962 -1.515824207753402 -0.06464010457788869 -0.8250112115180437
Ni 1.9310229282680151 6.534255970968071 9.330675956300128 1.1320376957507858 0.17100612813965388 -0.8968141523929587
Ni 0.3263470573631262 5.175391672668208 1.2490278749212516 -0.5168773531537356 -1.5397920314229094 0.5659077762188255
Ni 6.629004665154028 1.7730752436260893 6.862522264253939 0.00965320681904789 1.9124430956339966 0.3714138493698765
Ni 3.5633059215615983 4.629586324639223 0.6753392880146867 -0.05090167194587363 0.07355231946585397 -1.4075457976602725
Ni 5.960504013064057 5.5778608774670895 4.855468623846488 0.4817972216211509 0.5895081892465847 -0.8209110733067412
Ni 5.313721507099836 2.9794327100650086 9.191563942699986 0.034979087178346205 -0.3992396133328931 -0.047131920490796245
P 0.20964846026074704 5.537113326107354 12.401120282301529 0.43511370152168294 1.1399561792669142 -1.4828377255250527
P 4.355959410653884 6.105632650222005 12.416980232363096 -1.4370407217955963 1.6331313037077035 0.8204778424240643
P 2.3879006608767197 8.817060359075368 1.0432097388063175 1.8392913540406712 -1.07750074104517 0.722973125907671
P 6.35994046298502 7.811579901550284 5.589570027195746 -0.1407432154900544 -1.1154072862829565 -0.8695967114379024
P 4.707713711494258 1.458827520275913 12.517560868914293 0.43658925762594486 -0.755374425056512 -0.33898246831404844
P 4.117919838236001 6.363344390847998 8.211860996337247 -1.3270059911329921 -0.3359030580577763 -0.09263453290828563
P 4.580310847622772 1.355025826454378 3.5856568723618762 0.2727264253992916 -2.0214367866265963 -0.2926617308706379
P 0.4849963494768093 5.642354446870946 3.4067822737623494 -0.9667684700949092 0.27415338765380526 0.5446691785550232
Ni 0.49728126998228833 0.193893524994951 4.663793989062217 0.7008762940086316 -0.03488498480264314 0.19808112997957497
Ni 2.0101008800847873 6.68128573804949 4.549565955560388 -0.34170860899595984 0.7805966899584105 -0.36496063754536495
Ni 5.774238545562044 5.380424008414773 9.314457507452993 0.7833932788669411 1.5212623480498382 -1.8291303543472692
Ni 8.666309809143726 2.480829702135926 9.986576643497303 0.407267368733376 -0.36528408232305476 1.415532158299859
Ni 2.426258220332663 5.928447341354476 6.784174889507758 1.2778267011948639 -0.9487396376176563 1.3043813117549408
Ni 1.007553594441631 8.841883684076123 8.738242228348136 -0.864986980580033 0.5529355323288735 1.0244208305010551
Ni 1.3859689792087828 0.9842511733796536 11.121026133830828 -0.7194183186768771 2.026005894054517 0.7234228118505799
Ni 4.144933989148565 7.063231792674517 1.3220430328820771 1.0637833914590777 -0.08522332804587904 -1.5477668220982699
Ni 5.828764762367129 7.766188161377498 7.722154371150047 -1.2759307697237314 -0.12889660056411348 0.7583823586449003
Ni 5.527281768503117 2.8407045436494145 4.807410775281023 0.8849863065200952 0.8734618508202634 -0.7636168675709623
Ni 0.7274211949181658 7.52987771189001 6.743020858464385 0.12683611849065898 0.6529820414305142 -0.5157969756053632
Ni 5.139849596098929 4.9329251834285275 6.96939654615179 -0.23012761689215852 -0.5492678536692992 -0.20131377798425973
Ni 0.6444278207590063 7.503841284938089 11.251512449378192 0.0864407453927479 -1.209333284309156 -0.14778006773217775
Ni 4.749194555824476 0.5452848005499397 10.284687394997063 -1.0248437769710865 -0.6692887490103376 0.31158093637264406
Ni 8.403175321736022 7.198384024234058 4.546598382279844 -0.6927855465806972 -0.03980170537797016 1.1049863480599487
Ni 7.419992402313367 6.022707173560112 6.960214088621423 0.12773574748679292 0.08831585092827371 -0.7729481722742172
Ni 2.5185807106162854 5.6867594100834555 2.3956092900664143 -2.589803051688243 -1.6844011576262734 -0.3487182075445736
Ni 2.4919105736898732 5.1142205541306085 11.594209224083173 0.6984028927674746 1.8135011324504446 -1.1209876085842114
Ni 1.2894277910949812 3.5248578321092996 3.852868830805445 -0.23161294318843337 0.12925218413131936 -0.5228999051987316
Ni 1.6676440098701504 1.2044020185176343 2.563288044016623 -0.3663037818368207 1.2900630953600556 0.09306082181242682
Ni 0.9409235171237783 3.2383666056418043 8.016450188603374 1.4761554284088707 0.6324726086232526 -0.3567842723821597
Ni 4.144752929155854 2.6929958015953273 6.619889199820965 -0.23499600072805335 0.4387546407083799 0.8868009911313308
Ni 4.092508068258934 7.2361169267151455 5.461469177052357 1.5055760476628328 -0.09157472418520358 0.45820143657908186
Ni 0.6095475184630886 -0.09326671814561313 0.06854116554092306 -0.6795459079619716 1.8757118016512342 -0.3943020668219596
P 0.3217870614466857 5.724256934574019 7.952717976468869 0.33163219859656434 -0.5269509353396538 -0.34082980593543233
P 8.598176933886368 1.5051336134118931 7.966152627928067 0.5010573554023435 -0.21274490263933685 -0.4018094309425983
P 1.92890452635329 3.5130708265837773 10.018733803502839 -0.5224630747716293 -0.24738588975197395 0.5790880223545253
P 4.164325514367973 6.238105193889415 3.35262904054225 1.7114949285192718 0.9796877492597387 2.50258429047889
P 6.98275062591423 3.993685524236967 10.476666210569089 0.19130807292179955 -0.4546977943011976 -1.4338001033711114
P 6.3874163168789995 7.752300859936521 9.97805686554026 -0.8266641737404343 0.2396486690087163 1.2104578848319025
P 2.4609040499380193 8.651843115726074 5.578294516149634 -0.21595723892904742 -0.30645209978651095 0.4153354904534911
P 7.272165971264017 4.02938150180005 1.4564773615705169 -0.191922823687663 -0.03359171991251634 0.16973806006050768
Ni 5.318818345894667 3.146668772333037 0.5178361056548677 1.1151987698165764 -0.471246185578182 -0.2933122199704432
Ni 1.6790870014095207 1.1886588521513646 6.884928438351994 -0.8837799449168199 -0.010026016777434345 0.5452137382045836
Ni 6.814011765706696 0.6874884135256322 9.082715201581617 0.4053485544441084 0.06453263246574692 -0.5112245257433324
Ni 2.7755863172707036 1.6195725818052322 9.111215855034343 0.267436637755262 -0.16315809285014482 -0.21127577429297809
Ni 6.564085604767299 1.6960885347251355 2.5023649776690386 -0.6497229110632681 1.608523275351036 0.48580659989086017
Ni 4.154557327761185 7.0663731835480625 10.35880792421339 0.43478280054482543 -0.013336826318222191 -0.25357710616435036
Ni 8.254208212732589 7.275551793127723 0.19955527096704137 -1.017454683595867 -0.9594572811454766 -0.4001855221859301
Ni 7.837715911498197 3.8252544660170424 8.221784894537768 -1.9542597745594668 0.9283836996691238 -0.43634834525973243
Ni 3.4792307139459875 8.48789329232576 12.31960616828282 -1.0011158372265274 0.5451895698348675 0.9802168822903312
Ni 0.1877890873406809 5.174902810687887 10.14812017959448 -0.18831042374605633 -1.590233733013229 0.2784620423314882
Ni 8.815584720134769 2.6172312476451767 5.747549397336397 0.2916736559257557 -0.1720656797524198 0.5305754194661185
Ni 3.5751200860860273 2.8309544630418975 11.331595284154513 -0.9138898769283228 -1.002146078263255 -0.26444593055805427
Ni 1.2837968253216516 3.4318473138533734 12.280213850968533 -1.7809381109127587 -1.2278817367353048 0.45008472100921837
Ni 3.2730033822475257 8.440681899226222 7.802343126022104 0.278979605397855 -0.29810758447655755 -0.03778210384478009
Ni 5.637366244071743 7.932853884668485 3.481604410450436 0.40090028886476764 0.5206946700172967 -0.5897280185668746
Ni 3.1918341875149348 8.437766833343565 3.024904116634589 0.8926451086169337 0.5391076253068458 1.937564573291973
Ni 3.2319389759005444 4.036904544497215 8.34506230647532 0.21535508656867428 1.3482461314586909 0.3740939673052009
Ni 7.2217498162934834 6.101522588387452 11.25567230271074 0.34517394183674105 0.10700185737355121 0.236271010785735
Ni 8.116376293280918 8.947016168844087 2.405468006669558 0.9945674945850483 0.4384386521298578 0.5403826353645275
Ni 4.71751811009959 0.41499312449474046 1.195825206662888 -0.20766260302042303 0.7267549615476064 0.40492329398123167
Ni 6.170071901628047 5.749279425566756 0.20437418267305943 0.4450715840653432 -0.2192536502921321 0.8322653219772956
Ni 7.959922353578862 -0.06089047554889626 11.160126944556852 -0.3317247583103706 0.00189027504417739 0.1385922305853226
Ni 0.49781901816064167 5.201708742608832 5.6811673722085585 -0.9215926448892193 -1.4300455214246857 -0.09235968198034417
Ni 7.602690987958963 6.513017633823005 2.484848328674159 -0.5282845665494127 -0.8611696637164716 -0.8696501903836571
P 8.731753943509318 1.8662577688750916 3.5582289993659666 -0.3768298781791252 -0.3103239240370913 -0.21205533277147998
P 1.9090603511521034 3.4476538512170922 1.587135684110957 0.18804919966486966 -0.6135091801468725 -0.40115637073963173
P 4.758944636431994 1.1556606684796835 8.041624769989989 0.25048664016448474 -0.6445441950758061 0.36771891701679255
P 8.735773475347514 1.6980983006442338 12.310940637031647 0.19883214921298661 0.6158013186151589 -1.232119428965736
P 6.57765605122103 8.33832868534638 1.1279041715970022 -0.9709979347952244 -2.11663162406289 0.7534047029246508
P 2.2550478912246157 3.5903381784734343 6.1620355538515454 -1.139326516102715 0.006485093503711411 0.017038957760157753
P 7.093468811457347 3.9889960704257375 6.045860220128102 -0.37379700489007234 0.18405499090381205 -0.1961342906658493
P 2.433437249043676 8.47661325477983 10.451796715270193 0.8878176053213033 -1.4023789087473526 -2.3279577919778296
