# total energy = -340862.2674555602 ev
CRYSTAL
PRIMVEC
9.36825866689778 0.00000000000000 0.00000000000000
0.00000000000000 9.36825866689778 0.00000000000000
0.00000000000000 0.00000000000000 13.71139351710523
PRIMCOORD
 96 1
Ni 5.410759510017774 8.848198408378233 4.566374009885965 -0.1365741717140293 -1.3024540128252406 -0.11128043014424707
Ni 6.630647296453132 7.1544922095131165 12.699519474649339 -1.2845442224243555 2.2747940634706567 -1.0320690910749322
Ni 4.962413392571832 0.4222311599259389 6.99122032593939 -0.19772040420604658 -0.34984923582522326 0.4064297033234291
Ni 2.074029391015915 5.834092377148604 5.56243817364208 0.059457531935684704 -0.07388090644986631 0.07200271559054695
Ni 0.78461226331138 7.485988038127448 4.601625829964893 -1.5592604245601662 -0.12640443026987908 0.25645648459467446
Ni 1.1346460019345297 8.815606236900226 0.19817239395721678 4.581427125828781 0.2131609071308329 1.1538193104022516
Ni 7.63177687760452 4.170954805915776 9.466881013166674 0.14307854849145035 -0.1846136916207595 0.428121843584882
Ni 0.8062201516453904 5.862637460935176 9.412665964140986 -0.625638873530871 0.0036021155289615377 -0.22157587066740547
Ni 5.222907189673713 0.8641066211948591 12.270079439773033 0.9763540569008154 -0.395276514920087 -0.1929540931656548
Ni 3.3848642314059973 4.103550185684601 4.207368290054282 0.7860985936132462 -0.01358339511138951 -0.2781370548919016
Ni 5.105551014880674 7.284130171258633 7.151355716552255 0.4824273990059821 -0.8129177706886194 -1.1427167727311869
Ni 1.1898250447644974 4.586156024629557 11.767296245573887 0.6601356217561599 0.15703629622312312 -0.006401275540653491
Ni 7.844286454438984 2.4482070055612026 4.762048826115088 0.1993229728064761 2.5208262674082134 -1.9376633036533664
Ni 2.2147687391372406 3.2374453149420965 1.677781096164495 1.2021254537068073 1.4698215157710428 0.5616957950200069
Ni 8.98024401256981 7.968884293087298 1.8906916344646836 0.1078822030959755 -0.5916625165854261 1.816422676972614
Ni 0.835334825551498 1.5053573608181723 10.462945176922789 0.8109781304637452 -0.7584178398685261 0.2374202938988298
Ni 8.640944424587506 1.3761878119999047 7.921304781589023 0.01930718496904417 -0.16355481406793124 -0.35227507165789657
Ni 5.394280743237143 2.6160206208775376 8.201044729045723 -0.7371944117133755 1.9624880760065297 -0.5741695020069854
Ni 1.2908336083965368 3.6311089072609555 5.04735539279922 -2.673574991999576 0.16003317406791795 0.9751476952975401
Ni 2.056107912419357 9.249628287030886 3.8764851455487936 0.18823431909248228 1.425027499384804 0.42664705881156845
Ni 6.096815819784192 5.267303366918403 11.035752356442288 -1.399514185605048 -1.835736032589245 -0.4332414241996345
Ni 5.210110148501263 2.392016190808376 3.8594011892661566 1.2595602987855083 -0.08894114321709844 -0.4230513710405101
Ni 6.18583301247865 6.763292469191589 9.569305120664861 1.174394820560758 3.6387540061201786 -1.4731518656958564
Ni 2.8498242493847545 6.50770763956728 10.25375008996154 1.0319955575245194 -0.06391145394198025 1.60362840915258
P 7.366196116112711 6.5688729996074935 0.9698573973023706 -0.79155678851434 2.1183702040205517 -1.0043693111668186
P 6.588714971205774 5.046015731827287 7.774688724882428 0.1995769977988111 2.1741279185071463 0.12371042837748371
P 5.194764941004576 2.3923347115989055 6.045133947869067 0.3351224711380099 0.15465442625450784 -0.6181258529832774
P 8.690390093187942 9.019543857166028 3.8205978623728245 -0.8732078258279283 -0.938907482018583 -0.4358590643281397
P 4.608845946825514 0.9368352227571494 2.3780218861938764 -0.1795578743644069 -1.5158787151404214 0.14236532447450967
P 1.7368376612062324 7.783196040467129 2.4794445268536043 -0.2437482929993867 -1.8935406023025387 -1.7712620212755752
P 6.790919463640753 1.4928507356606158 9.128167878169286 1.2161173971105248 -0.9278967327303762 0.9667391595188706
P 4.344829684510717 4.0593320053522675 0.7129291594027104 -0.7651595294677339 0.11767244971351992 0.8219174030840684
Ni -0.036167098938773116 6.166768606339603 13.156905024765338 0.7282225472320684 -0.782291304052014 0.018046058868433437
Ni 6.964981707406593 5.0085708024229785 12.922261063466637 2.4293212201186805 0.2468672982443426 2.829588760495456
Ni 4.016050650874432 5.521642218156229 12.791276882968203 0.9514284973037291 -1.0436513965958931 -0.9529901853638942
Ni 9.220642895092698 1.2988809424866798 12.582040575669359 -2.416485244696277 -1.369838770027802 -0.14705758774385638
Ni 4.656155652477693 5.282845307844535 8.863977366245553 -0.399109515512932 -0.8153140388349379 1.3401196456968147
Ni 6.261078865111976 4.365552272412226 4.9166859857879 0.048756857688728936 -0.04012900681040185 -0.30144461926959054
Ni 2.828399042092371 6.37663633426438 7.782285445736557 -0.088650351449557 -0.37716926379641497 -0.30363159961858033
Ni 1.4012197988321076 2.5991015459452926 13.213820942729546 -0.6392924597585635 0.8432099939142575 1.8802888794989554
Ni 6.942554096449896 0.581988072893586 3.023169821371903 -0.12089121376113374 0.7188660457178329 -0.08891311819264042
Ni 7.247593962933188 3.2623648826717595 6.92115512028144 -0.6229633835812368 -1.3870188813515145 -0.7666132311951249
Ni 3.160653699648846 2.3765023546578794 7.363594550714768 0.8270981759540595 0.9058076141408207 0.28030732307034306
Ni 8.642330926852164 8.290983758381008 13.429583178930828 -5.317016140728249 0.6323435392445561 -1.935357795448641
Ni 2.550836277921525 4.109489661602122 9.80053341489806 -1.1508314314185215 -0.7880243498810493 -1.5132739305277227
Ni 9.505035119742839 8.377752569024668 7.03830519338649 0.20199357766010373 0.3749421742381091 -0.007363896564238931
Ni 5.368049619311182 4.447037385236515 2.6986898815819123 0.06023863307608336 0.9506854484901175 -1.1316229768108705
Ni 5.618931583145908 3.2826190576460195 12.77744183874897 -0.2704196316429859 -0.7474271451849772 -0.11041448259952596
Ni 7.023458377244396 8.77565061420586 8.151451041960277 -0.1182018398544287 0.5175288706948055 0.268790323569679
Ni 7.209652515825994 6.486685267392331 5.66024185602588 -0.318796994505109 0.19474692340001942 0.9850377007177423
Ni 3.6817911859893298 8.289625360891984 1.6233880502264515 -0.5634906821369005 -0.13214441807744984 1.496383068309655
Ni 3.090569757473806 5.4745292459334935 2.1819489189765906 1.0079629420553478 0.21566181917581567 -1.5044182799093058
Ni 3.266280814743564 2.985710839579777 12.223350566150643 0.940247283875929 -0.21143312580644877 -1.1152535343139114
Ni 2.3696635259200396 1.0480177151690435 1.4543537508217048 -0.5652503451404846 -1.488622707637946 0.90641799403131
Ni 8.082427586652528 9.038814364993064 11.058828250890299 -2.1640435376879505 0.7580380879316041 1.2566428680283972
Ni 7.136720623053277 2.2879629431492163 11.155809400173847 0.685321119882852 -0.30315440287184564 -0.01093644440684568
P 0.7153424228038987 4.620706162143466 0.8168849771730025 -0.07948025491451473 -0.7329551768210474 0.6888805550993362
P 6.982987500330057 1.0965546626906164 -0.005925423529703672 1.801529819021181 1.7475168551398355 -1.512674863491143
P 2.866677746507184 0.9646308458601229 9.082056372785011 0.23663276500052793 -0.9707963603073797 -0.2091366164627882
P 7.162249127588364 3.125728831793138 2.777818877382137 0.03660582414849179 -0.18543130242604838 0.12187517494095786
P 1.0846101330457592 2.384427901386938 8.579095181673509 -0.4058352642725398 1.3483227503328972 -1.055998605307336
P 2.361981553913151 6.6754182040396195 12.503858710808034 -2.4499473810094647 1.0118702475295542 -0.6894662523994772
P 8.491848589844054 4.092486272342973 11.67046592525291 -0.8173482956561471 -0.09483385455244958 -0.3770070271869378
P 9.061897754047909 5.536631431828207 5.12208318073501 0.9849749658006068 -0.24992125457931796 -0.5086071427251435
Ni 8.026264876675338 3.364703739017187 0.4575888413264253 0.042395691357391505 -1.8621865134712898 -0.614857980865283
Ni 4.6381873325884095 1.7721653641793749 10.120694587498814 -0.20710595918600463 0.36487784802357154 0.8775419344269081
Ni 8.090493657259762 5.097494312531986 2.1157228256703755 0.14887175813445974 -0.5667446702978239 1.3254800414067687
Ni 3.3587267900654862 6.9922714445481375 3.930000385661171 0.2742857994666115 1.1129881353185027 -0.051745250893091524
Ni 7.080632859144446 7.144552487196886 3.343509927710865 0.010501156641639978 0.4501160884677861 -0.5366679055171014
Ni 4.624987456298524 4.516221974591236 6.70411692726633 -1.0931860129909108 -0.3307572521907787 -0.7136451636385258
Ni 1.5570514114694052 0.9612114314912029 6.758263588004641 0.49431977956819384 -0.9663735486493357 0.6654806881181572
Ni 1.9787729381304968 8.196617290057363 8.88366663522955 -1.1598958556136347 1.7197419990194125 0.1053560942400121
Ni 0.9667855453254697 5.374494981190133 3.062892174428499 -0.358522338119189 0.43904928913066316 0.8122420847778333
Ni 3.3683948328839115 9.193971463015123 10.91905477022496 -1.4936178468596921 -0.46920987187444346 0.4962018270822551
Ni 0.10552781155414079 1.0516057581917733 5.110373794379632 0.7827985827057358 -0.18506954821125546 -0.28822349259362623
Ni 3.9973797115942746 8.107459573484732 13.047474396701356 0.21092893247652061 -0.20809120591740934 -0.7809867263079776
Ni 8.840347807717533 1.0874861884190699 1.2453272925142673 -0.30306981357783935 -0.5467492010125036 0.18856496295902364
Ni 8.255047118602441 6.341627152081767 10.906179035680733 0.6086395107593969 0.06719552400989073 -0.3674001002247931
Ni 5.787888126004733 9.080193962986266 0.8857501089113403 0.22435600451570395 -1.0541990902047522 0.4891459486767383
Ni 9.36370557133318 3.072020605554733 2.4147548279487667 0.33725648676187725 -0.24193103728498982 1.6625218410546787
Ni 6.989020658833028 0.7977699824378129 5.787030930347866 -0.21775058338404432 -1.5893549299527014 1.2320968032579167
Ni 3.714748719550591 1.0271358668722697 4.976837700253547 -0.799572716840281 0.30425534924550823 1.1262987363844796
Ni -0.2247904269610856 4.096636410878402 7.589393002295294 2.5984453007442734 0.6369586694190643 0.04230158898168843
Ni 4.275832460326895 1.82221060132669 0.4076710124953216 -0.24446048857506286 0.3446525221156322 0.751613415352183
Ni 0.8470985478064369 8.046753258113222 11.510262146352668 0.7655544509133073 -0.31776495369616886 -0.5124594265916982
Ni 5.175119702835739 6.269229250046115 0.932073336938733 0.5134421022199415 0.5341631368173768 0.8041209983325956
Ni 4.4429434562523555 8.55835385725491 8.968896240994269 0.7340489241058583 -0.40276999508365474 0.331287670772952
Ni 8.38668051941804 6.608238422013525 7.970378530325223 -1.091950340811597 -1.08658599117589 0.5945442090085954
P 8.961994644924179 8.3834859432542 9.399448288159865 1.6728404493718676 -1.6958533653272727 -2.4060594213772624
P 2.082826185789657 2.1026587891293924 3.8623896637420074 -0.10366353702893759 -0.03925560306651304 -1.3532885789786049
P 4.793428744937374 6.094473755147946 5.204186598623268 1.1807791268205472 0.569162021490065 -0.5988914302336975
P 4.311000902904772 4.199453048409623 10.85014092354219 0.8281119619305546 -0.19902755305324432 0.04247282445223008
P 2.464563984980748 0.6583281381249683 12.672083592674493 -0.18414497951445705 1.0587879951270154 0.6864498341706564
P 5.429486658849201 8.388638485453942 11.126507361096841 0.3191340661295536 -0.9381430930487327 -0.32045818425761585
P 2.4677585611445885 8.32010967419737 6.303662284328212 -0.5421759798195244 -0.810048162450308 -0.062339738579486194
P 2.2155275680793842 4.287861304298657 7.067674683925021 -0.3462185810511715 0.8089752411011035 0.5588845508234568
