# total energy = -340861.6852797033 ev
CRYSTAL
PRIMVEC
9.34404105351368 0.00000000000000 0.00000000000000
0.00000000000000 9.34404105351368 0.00000000000000
0.00000000000000 0.00000000000000 13.67594859196338
PRIMCOORD
 96 1
Ni 4.235448103099234 8.43462264000679 3.8571639573743823 -0.10958041673400483 -0.7015283257703339 0.06384229126694166
Ni 3.3581921813219395 6.671878696551412 2.1848834100364956 0.91234464392839 -1.7831402607704 0.8480930330381716
Ni 1.3644635505254294 6.735259324958972 5.894443293298706 0.3619812432020669 -1.011931954005425 0.2952050661177819
Ni 2.9504929953159436 8.523166770154225 1.164391753197675 1.5804514568154846 1.3734917933993571 -3.597131445483386
Ni 8.439089091485313 2.6256661067221034 6.602090859401545 -0.5057532182161161 -0.10008713253158892 0.2793868681386027
Ni 7.582810541191871 6.158601194110648 13.089878871520005 -0.42764310417625057 -0.012420228041223771 -0.9956321884041368
Ni 2.194504034392743 2.5019977273952483 11.830064839778789 2.7196756430123803 -1.62475027873286 2.6247114335296535
Ni 2.948885820306936 3.3023895699626666 3.676559534545273 0.3532644321543593 1.7086985967210573 0.4051174122699087
Ni 6.1207765171544635 3.170180737390269 3.680252299449691 1.4740934036735194 1.2815848826857155 0.26204040644035514
Ni 2.6982319271869586 6.823803455106406 8.41017489178837 -0.16173010215436665 -0.9038394346708563 -1.3581654474549318
Ni 4.096988107265056 4.3039399217970695 13.005566657428266 -1.7208961672285137 1.1003151678365244 1.7147666572920084
Ni 5.820795432914995 1.7813012083849702 0.5712208335358714 -0.01914931923494121 0.4916761712977597 -0.2107499836964951
Ni 2.077881061791422 4.663339761166078 1.8202957592430609 -0.6676717822322049 -0.4157355541053872 -0.29702155050123036
Ni 7.269243221701835 0.06478036571191713 1.4116584315457608 1.6207766387970926 -0.42119246345490036 -1.7051255346578182
Ni 2.3968772689572337 6.287782557480031 13.506899672578246 0.09454640521901782 -0.18193820167112537 -0.2986696276276147
Ni 6.489286796254768 1.202521980286387 5.439184808683127 0.5139223842904698 1.3455518724559794 1.1074013852593445
Ni 1.061249428186445 8.772297584631943 4.826228817137176 -0.12288021916670451 0.39895216399946126 -0.6104896765942583
Ni 7.246266225497473 8.823596368349694 8.054353820026629 -0.6331644924839547 -0.28857290551324494 -0.09901626806491334
Ni 3.235028380195587 5.770309580742497 4.63806132772498 -0.384347526712409 0.5433602299356125 0.6053904076944799
Ni 3.4656486499474655 5.727569938351788 10.553086739583811 1.5156362601123123 0.8152798431628928 -0.7453748906416389
Ni 6.863870701842601 7.071915769142369 10.663479105813002 -1.2361619744662258 2.723034017961652 0.5075676457170355
Ni 0.3669563651235714 2.817471231198293 1.6355341726842565 0.5106601685994302 -0.3647863167510298 0.16247495074019114
Ni 9.31065449244583 3.911396769887648 12.67746748576376 -1.22718471066828 -0.10263098199936518 -0.3304669746438696
Ni 1.3583992680786499 2.6984935603279605 7.370186893924579 0.2690379208041108 -1.7173395602255068 -0.16158226372259268
P 7.478250725198859 2.4924574617894515 1.8187231571848284 0.27355149240374826 0.4440081757978353 0.7837246940644309
P 1.6537270200245957 8.451497977601372 11.086790315104173 1.3988061037944295 -0.15929063947493857 -0.4925611450058743
P 8.337435272165564 0.13597821861096565 4.391729987855975 0.37257650221940997 0.124142887929212 0.353489660791288
P 6.703162544982565 7.559207494257255 3.3973923010765317 -0.6758499471676231 -1.5545046550427355 -0.09970378105024118
P 6.547901963879804 6.828895957315179 7.806286357386265 -1.8279615308501485 -1.1853636608674358 -2.201804558486808
P 8.730230713175237 8.151806558625157 12.929172583468118 -1.348558263382471 -0.06095365686523697 0.673620286506156
P 5.420646231835036 6.006433490496153 12.179019910397395 -1.9210640045337883 0.5602498066020997 0.2873488032981567
P 5.2799062900578475 8.71624268417242 1.0993712456384819 -1.1889639766241846 1.205732197221459 -0.9755529011557585
Ni 5.916478410195464 5.286951696783382 9.383095102764635 -0.405661714809153 -1.05945313951484 0.4956392697105658
Ni 1.8946817988460252 4.786017672173429 11.769821940255094 -0.7723187662203344 0.6786568204887989 -0.07070559404567824
Ni 8.689462663382788 1.244663604069093 9.034974454985004 0.2190685308645195 -0.21053863901663744 -0.35527786303996234
Ni 3.364779730050722 2.351568015360262 1.5700128245408609 0.38257732218586366 0.8071435872090035 -0.5708432658472298
Ni 5.738988356148345 6.657012327718089 1.2813735369637977 -0.4019415856450885 0.18218785578808624 -1.0807827542305515
Ni 8.275867387663514 6.410937014565634 8.76175563785774 0.7609843150441217 -0.805143011839207 1.1192402868758013
Ni 6.922411117141637 4.272628041243666 7.4404821124871745 0.6011244333292745 0.15248827184112448 -0.48160156067057697
Ni 8.457637012374153 4.621646651339375 5.2520292788841605 -1.852991991456215 1.2518904409450762 1.8520406832865395
Ni 8.971148115833667 3.5464652583946115 9.098321444845865 -0.9476649164962387 0.14483641172282152 0.6769357240326341
Ni 4.9098916203967855 0.24711904250423475 7.393737614230996 -0.4803808008895985 -0.835277112220426 -0.01234386627733358
Ni 9.2230821425364 6.456330364529356 11.112077158181947 1.152618605225931 -0.7768683332642298 0.9953987322370922
Ni 8.718859015582431 0.19815813778214506 6.496676998083979 1.0445818788299621 0.790743034363793 -0.022344686243787323
Ni 2.5224705206785982 9.18836903114998 6.766203050306823 -0.5374559486360356 0.7730096216397719 -0.8937607102786156
Ni 6.078055562845254 8.198881835923887 5.661514111077491 0.09182463541248058 -0.9644891871424293 0.16119299870397397
Ni 1.582329204653496 1.3205372149594645 3.366909236937657 0.6683083873749393 -0.053855355257558864 0.0993793078312869
Ni 4.454341601709806 3.4983621366133755 10.926398921225564 -0.3820592448988646 -0.7015203553505338 -0.7229525570823807
Ni 0.7459132817824266 0.06387866577953771 1.3400092614784849 -0.8419689224183048 0.40126821372714766 -0.5805859470562904
Ni 7.748798081075684 1.8516805233143148 11.289850336663793 1.1364836473372815 -0.6978123103713273 -0.965392158572673
Ni 4.854827188256767 7.354694474361004 9.179775316872163 0.7826677135548262 1.2588229063988514 -0.1325010300859202
Ni 4.524449939457399 1.698316782483814 3.5018362509642427 -1.2831350007816547 -1.5871052146865765 0.6230001503564433
Ni 7.013020280294832 4.759153555017048 1.670735977401904 -0.17820984497694467 -1.0393455701316876 -0.11529957860596918
Ni 4.67580471152664 5.354780088587964 7.105776704012386 0.502849671416076 1.8597521929981842 1.7885370063059391
Ni 5.1624049776260215 5.790791718066599 3.420108598543968 1.2137818069988129 -0.2494196323525511 -0.5033746906816104
Ni 8.748236679700575 7.123130456493371 3.8610893888934763 0.5999453254195086 -0.13577070197612748 0.3075335057761478
P 0.4678645299914654 2.545671773860962 10.856076604944795 -3.102922480461443 -0.7530987416484578 -0.22739299156981485
P 5.774981601117521 2.2188546045873623 11.935602042434253 -0.8827329917095441 -1.1207742070218245 0.796293531868377
P 3.9111351367466463 7.768691543832531 6.074979504630339 0.30547302370269325 -1.3800828163533134 -0.5510545132560768
P 4.106472308626353 3.90360383990211 8.858554293603765 0.36082090434537856 0.8172444230884313 -0.8946978773809044
P 6.253461895805113 1.8557078048775844 7.4848597652213655 1.4978593957448654 1.0645323538099603 0.28509163183286385
P 2.198456563630012 8.387687523319311 2.9536905260606092 -1.940636527349077 1.4481751411458608 3.6349513445446364
P 7.393378803066194 5.165666047847788 11.14224626255162 0.9797008618858611 -3.104575442683834 -0.8045038355933113
P 1.8174065818431469 1.7942146727015333 0.23900374311282 -0.7473854933137645 -0.9373429657449405 -0.26113640656884707
Ni 0.3171432838850775 4.9406615465866865 7.53473638593696 0.7641783965013871 0.7755007634927418 -1.5982123803433312
Ni 0.5042801256025436 0.5221300466473561 12.343090053119298 1.7048918213804574 0.9508096327728075 -0.055473350476956076
Ni 0.5865544044066964 7.947639268236657 8.246514952455394 0.0067206065532852 0.2384662186648409 -0.40474871607658036
Ni 2.6435319126361914 4.434242570056457 6.529034476797312 -0.6821522352365671 0.593365872429778 0.21541807859612577
Ni 8.723166618368204 2.2969894733392446 4.012591796806568 -1.559821953490591 -0.7456960214264835 -0.7183351129150274
Ni 6.321430448220946 0.32042771420871863 3.411998905577003 0.1586360366100752 -0.3049050670143652 -0.4809253605391588
Ni 6.317384478576176 4.007425476675868 13.017888643965351 1.7971959675325178 0.08646414243151561 -0.12237165496140215
Ni 8.912065746171129 4.580831881343174 3.0719870163602634 -1.338124983864289 -0.4122270267314965 -2.3545278291568743
Ni 3.5224323855854935 1.7643698065458873 8.707434991361426 -0.30026756824235384 1.3347645520324884 0.49338595490001486
Ni 3.901211765470098 0.6740538707982747 13.419291815313969 -0.1629511190456613 1.6885079807057954 0.12545389343115168
Ni 8.787014448813265 8.654319726121866 10.579152875660139 -0.5223728290506681 0.3484816660537353 -0.35582782200616137
Ni 6.399275651709576 0.09427669914758652 12.296195115807045 -0.09841411570454019 -0.5251804737027923 0.11763028362167484
Ni 1.0927295014733494 6.857311185236069 1.7929719152817774 -0.2049395476623051 0.2909192942582345 0.7019983234282168
Ni 3.9959977148385617 8.003535320003431 12.393486202500595 0.09717278709827135 -2.318619802406355 -0.35369792014735213
Ni 0.9815073844255549 3.6288236335655144 5.000364360555029 1.9790007289495726 -1.22777246485095 0.5525074436525195
Ni 6.517627271849657 2.862911301365765 9.451270158481043 -0.36594434161487294 -0.12612289447371827 -0.5753331832977834
Ni 2.0215738722316465 3.3855608766788237 9.712425818999996 0.8137279252947405 1.647746482517717 -1.6711887727010575
Ni 4.216900182210393 2.6948961046391924 6.709665997344596 1.0345304081312312 -0.3613310112125777 -0.331129547928533
Ni 8.20332025528016 6.9779894715229105 1.384539222076903 -0.9071368744752055 1.5027504052885796 1.609506465199912
Ni 4.016816237629664 0.5565002317382493 11.0817576147562 1.0746460452051945 1.6043385478457273 0.24141501688051972
Ni 3.211472053464721 9.02486700610568 9.230662962796913 -1.8218646739237911 -2.1008869596341238 0.35498527150020803
Ni 8.43034306934327 1.8678083376488934 13.524336587021907 -1.5447113231013978 -0.2626901242092121 1.3254029083119303
Ni 8.44062151416832 7.218131318799085 6.305720312507894 -0.724998640978132 -0.819011542291183 0.4565698145129299
Ni 6.441314491044033 5.717852135971741 5.2323217625382386 1.176895732605741 0.7447819942526464 1.2013379248085052
P 1.3769939091712409 0.5676121649982037 8.384450747603495 -0.6057128240309052 1.5636827219975782 0.7729548571424365
P 6.68789438239699 9.33955561048572 9.999428965041725 -0.04042494078426586 0.5996087680156964 1.7352719763342115
P 4.873683462490359 4.249380067857552 5.353053309857355 -0.011134676460580823 -0.18956537919907998 -2.2550479911919807
P 1.1591562871654244 5.665422723323235 9.505973910648109 0.4701267272617581 -0.29069483695225423 -0.11298995663618605
P 1.164781399696952 5.483484905879093 3.8189131921599953 2.1662634281574045 1.542845730647569 1.5123023106430729
P 4.2597519530901025 4.669039626023607 1.8533101240211227 0.2833219415269508 -1.3634228391991292 -1.0999061053235637
P 0.049494449448917295 5.392913118888901 0.5052799379627986 1.037633215426271 -0.7846528623056551 0.805599125540019
P 2.6461482440462043 1.878740865326447 5.373622346760431 -1.0099380635038475 -0.42460483157055906 -0.11583951026983921
