# total energy = -340889.6522106355 ev
CRYSTAL
PRIMVEC
9.10183856891369 0.00000000000000 0.00000000000000
0.00000000000000 9.10183856891369 0.00000000000000
0.00000000000000 0.00000000000000 13.32146077354376
PRIMCOORD
 96 1
Ni 6.353420012049793 2.2647467507571455 11.499071569850102 0.7666862505249055 -0.37182291188283706 0.5130494947672132
Ni 4.563397849772171 0.22659663971105834 5.96981301819438 0.4041889869183684 0.5927092126823856 0.7275692299187857
Ni 2.735912520399399 1.5721150477428854 4.968358666835051 -0.45109310766907473 0.1301127323594017 0.5937175993422419
Ni 3.4300915359516027 4.282970206866058 4.756946624224294 0.3405546978971748 -0.012487333833733332 0.2611829435360663
Ni 4.456788015907864 4.398964036181069 2.4647496388601846 1.9349132517120544 0.25345729275703444 0.2000238555282426
Ni 6.9958823814808495 6.063726697592937 2.6514765853876683 0.6133114623137697 0.4536924929651348 -0.02292832666139922
Ni 5.167696210546775 4.597365910899259 11.662845500152962 -0.42111301636721676 0.3238654101669519 0.4607879663593355
Ni 5.5981312530872795 8.022524250406361 12.723966043343083 -0.500126358947642 0.7377006619258328 -1.7755341662883677
Ni 1.8259926278655791 6.413956339637218 0.25106056111979086 -0.2796660899419183 0.6413002342172117 0.6546360320941693
Ni 2.753861345839544 1.6143111708364504 0.2139814916075896 0.22756885502604676 0.25091292906862595 0.972074712799171
Ni 0.6139080818190785 0.06673467957765718 4.678364081525219 1.6971548577475157 0.6770020584941954 0.34014640671516255
Ni 8.52670238813756 2.590110170132829 1.4631897061747383 -0.5454469372613122 -1.690450963364779 -0.41540413890789757
Ni 7.057847697706258 0.6421210504888635 4.6775112392616585 -1.6404712890125426 0.26360877936873955 -0.16449043850832318
Ni 0.8625156974743059 7.527730108125864 2.496575127214145 0.7162458344861665 -0.6030872134826 -0.19488704852230954
Ni 7.622507551994133 3.659585290843999 3.562957443217119 0.7027742823622929 0.8659177199244183 1.2589352636069997
Ni 7.374127482300367 4.0999686428196345 12.891270576783992 0.2021614706965357 -0.5769041273293289 0.38119715400888543
Ni 8.289790634901495 8.600927880766555 6.641893680153212 -0.359786035322961 1.4392852948553985 0.5034842196762813
Ni 6.8341427120734615 0.9594247919095531 0.5772504274275053 0.08017753809185546 0.6263806367929019 -1.8556965348715717
Ni 1.684258799389955 6.613040852239795 9.583245616766906 0.3670712561304646 -0.39267198741770437 -0.41408721986868685
Ni -0.020470034693146618 4.781487001076077 1.4861017641262981 -0.39772317668836665 2.5958618562878133 1.2571000101704737
Ni 6.615944338708053 1.432547456820382 7.037901018724474 -0.6259882864504897 0.6176208883224008 -0.8331407826037135
Ni 3.142992245455416 4.297960934807193 0.08308886291987408 0.6820529906545415 -0.706211590178616 1.8138695715334565
Ni 6.013948743063448 5.370658106332669 4.856351442764859 -0.24164307373092575 0.881974516276965 -0.357372797895778
Ni 5.641628939080409 2.5914117330323934 9.056541339034787 -0.23553053307528468 1.6623747739538532 0.5844446586807482
P 0.003371320965025125 5.6188470374188055 12.536067690205993 1.2798272765646603 0.2793159056913513 -0.15913277374083562
P 3.92445789182455 6.294376385969561 12.660356935092071 -0.052304208720355086 -0.1464001566655156 0.4876408248861215
P 2.5699586997857296 8.752054806531344 1.2955265602985644 -0.6413179748290245 -1.1587329456537852 -0.08872877009597623
P 6.512929731034851 7.819553252782008 5.633952448524517 -0.6075079682581151 -0.8771873793009668 0.6353514728329445
P 4.862593483579692 0.9893425349226135 12.70097388921309 -0.6042393248091722 1.298390127168512 0.46439650964620016
P 4.353627778819325 6.114287410229855 8.243465917883157 0.8188251373119897 0.5562645967021066 1.1303811339839696
P 4.6694251659751345 1.0751455660708098 4.012117698018279 0.5565268492245576 -0.2637787292877006 -1.4124347503214578
P 9.097842751407882 5.773450865474737 3.5345560664912434 0.5824140014039647 -0.9543850088288919 0.36344034424609667
Ni 1.3200396316349727 0.99817131822735 2.4093330954056613 -0.5574994975504721 0.9920015336300853 0.597646502083003
Ni 1.9160826249277247 6.10985481490057 4.842324599516478 -0.2259079223838561 1.8952786680395683 0.2228915041550355
Ni 6.512556555658052 5.813453445499804 8.85297690154294 -1.775558077547768 -0.47678305623601114 2.2199033249700477
Ni 8.68856038144491 2.6382770992551645 10.38313247399218 -0.013598821730357223 -0.2643487428585577 0.570765618531759
Ni 2.6374306282785245 5.390773169325935 7.280644319860896 -0.42594334787632454 -0.8608351631951885 -0.7798528698138504
Ni 0.3494095663991712 0.22788363966908898 9.647841364306819 -0.2628991548962247 0.1429548784293925 -1.7529886768876841
Ni 1.5528828630800937 1.1091591363901911 11.471615874140063 -0.6994048516694278 1.5367517019346888 1.1438084631334688
Ni 3.888978925513351 6.906529633333842 1.721599091665915 -0.025380901966949834 0.703106468890731 -0.2616092324402075
Ni 5.958099862282146 7.9554254972903635 7.814475337106016 -0.5995720012404899 0.32977611922443206 0.20376069686285553
Ni 5.2547643972407005 2.8922183922470674 5.090369721554971 0.23210376678192285 -0.9162555489470221 0.20631945872896726
Ni 1.0717323766488756 7.680932253059186 7.506683016874449 -0.1614105140314188 -0.8005209396861633 -0.14696914179510817
Ni 5.465635790647023 4.599723287060009 7.135120485851155 -1.378305926958549 -1.0311440081575016 0.02378707511726871
Ni 8.366100448537484 7.168189285338546 9.02544945886058 0.10645241262798441 2.666402642620853 0.36379772758551543
Ni 5.005009949939703 0.41382145680222143 10.618629801531798 -0.45800011920155315 -0.9605104050003395 -0.7582784860771844
Ni 8.23564379791193 7.576051768501993 4.361086735436058 -0.9583362801671559 -1.8349490179115755 -0.21843809636937223
Ni 7.670000945070539 6.190387881581299 6.899890752362219 -0.1600545142241566 0.21889266740828753 -1.1853466915865716
Ni 2.3871209688315593 5.17037215105357 2.661148198933661 -2.0497317769165475 0.7461590771058311 -0.9320763180293624
Ni 2.3770452336580092 5.229397573456886 11.46655343158945 -1.044387503430969 -0.3837859977819842 -1.359153522399814
Ni 1.1944615664231701 3.3815514314524693 3.8851242969261803 -0.666012392251911 -0.44178365734269076 0.3629047834576008
Ni 3.2523326308572704 2.3230895352760736 2.7928973106203205 1.0335688155489102 0.49270229856942893 -0.7455638667239934
Ni 1.059808968268252 3.301546271402332 8.477577945609392 1.0167178054298425 -0.06863097090483665 -1.3394254478432674
Ni 3.763719424647596 2.4220629266737066 7.363637613476956 -0.09179995282213223 1.2506817653489557 -0.7827106509776197
Ni 4.376200338196383 7.029249721269679 5.941544528309997 -0.48354197222639955 -1.2989650258353758 0.13335257945293807
Ni 0.6376930060788075 7.729454153881403 11.630767890873702 0.22495969953797385 -1.191560019486135 -0.3907189774563916
P 0.5515076977153548 5.487516610301237 7.8110785309933055 -1.0086219157955856 0.44432185038351224 0.06264210031125342
P 8.575178779767485 1.6264348196631606 7.90131779820617 0.9611022729480674 -1.1013914316198385 1.6504489690505448
P 1.8408832355836706 3.20033382774391 10.465419464943862 0.0774519116305763 1.0175549566191573 1.262320635139465
P 4.005446050428205 6.30915777162615 3.88794859739985 -0.5237257435341367 -1.058879783509873 -0.5917113675454906
P 6.751525324385738 4.070597010114084 10.32748929476004 0.8164460955568519 0.22404592947445284 -0.27834608557891416
P 6.539288655210641 7.707191057011934 10.281129990755561 -0.7103479809444927 0.8499395993286072 -0.7050353104823277
P 2.3797393778417226 8.46916056540298 6.049302104003919 0.45201047727702154 0.39695673083598737 -1.4433887755008108
P 6.518764009486744 4.198960237894185 1.719746867539612 0.6047455750216295 -0.8190202840419313 -0.7050188554220955
Ni 5.104238192814173 2.9287440699809926 0.639873806573462 -0.2413530532943327 -0.36485522231575224 -1.417511650623733
Ni 1.5676278413828493 1.1390040646955837 7.14336675149455 -0.4098744673389199 0.10354089540814425 0.31450402355671
Ni 7.069161282910162 0.668165961237836 9.313193159519628 0.10615056511684944 -0.518115853546527 -0.5064433023046052
Ni 2.8266760535074726 1.571031928966325 9.473249898996041 0.6231649580690816 -1.2704617761893604 -1.4213968446107519
Ni 6.078216824418854 2.070167648191522 2.6450688911128903 0.5457958359602987 0.13858914526152905 1.0268523227606832
Ni 4.316492277908681 6.932524483971292 10.594783894954396 -0.030577358566224757 0.05546769405000125 -1.1197311104692909
Ni 8.328346022611663 7.102583233729741 0.570876409955024 -0.2932636261206949 0.329208162536104 0.1747383414885765
Ni 7.834088888800218 3.7544992622891447 8.094558930518396 -1.0972763810102006 -0.6221583711814381 -1.347180666308654
Ni 2.9948143153511797 8.373154373342816 12.395472501721523 0.5365989999523791 -0.09656600675220789 -0.0382623859153083
Ni 8.688214511583485 5.116998970332978 9.747219787515855 1.1326167081827074 -1.1754168340673692 2.181487701306327
Ni 8.701876371109682 2.127081444072467 5.769857459651324 0.39391383024460547 1.1439074506051785 -0.502089910431916
Ni 3.7715288020449815 2.564597716933678 11.466287657906463 0.21535945744404847 0.36712396374527095 0.5239319460076719
Ni 0.8291301540085604 3.677142737230428 12.949112760187704 0.5871103784383696 -1.371280130460019 -1.9425566271899255
Ni 3.301637289786917 8.071637770728378 8.141091169453587 1.1567179721062855 0.724152748038069 0.6505855161738795
Ni 5.52556229505773 7.869158272380784 3.533184419435549 0.23019369424340355 0.5917064824494842 0.39682174792001984
Ni 2.967690836744876 8.529596772767361 3.5441748893741765 0.43484887789607046 -0.3006056683080629 0.7689670761392821
Ni 3.787684565308803 4.216517684280614 9.579342748435906 -0.23046725961976436 0.4830300655869874 -0.7868002476659611
Ni 7.333260227621742 6.211786303797211 11.591974945179766 -0.885393569260843 0.026690364806992745 -0.3698483046549695
Ni 0.5890782665043145 0.01902375256209237 0.2694362627836387 -0.13953762521772745 0.4774793109720873 -0.14248050989613525
Ni 4.680593121763703 0.3958507869497765 1.6434953056697563 -0.6010943514222874 -0.5690967154697683 -0.012411743400791528
Ni 5.785629125332197 5.98281135369695 0.4554459844405932 0.6146882880566381 -1.3846910045492862 0.3945676617785205
Ni 7.799219745665738 9.085682695227337 11.44084346849575 -0.18939131551506094 0.335242541655642 1.293023206429644
Ni 0.04846364905608202 4.771183719941066 5.6631129185778315 -0.09122531126558484 -0.8564205790672604 0.21714791680303894
Ni 8.115435817390638 9.001299550878665 2.277357347941385 0.04383756601024063 -0.22167614369069566 0.5948571122633238
P 8.540573589948302 1.6157583631513506 3.46852222847489 0.262533801137006 0.9781581999890898 0.522438649291597
P 1.5795512497634727 3.2646383164531505 1.6809420894556808 1.28462161262951 -0.3751712595297797 -0.7122045745372573
P 4.826067805845767 0.8225486146192255 8.280952749758299 -0.11306091908343756 -1.3851540602286339 0.09644927866868551
P 8.629471246172384 1.8182742688527789 12.549841502345226 -0.6613772074727449 -0.2984194592900215 0.211235665083662
P 6.447851586056639 8.05684728323333 1.3392326783923931 -0.4084822149770836 -1.5554598198671534 1.2480337862031474
P 2.0490422811293634 3.364995187296474 6.195890853113304 -0.6480138987919614 -0.5733387785755738 -0.14575506688234896
P 7.021567769610712 3.730133640735764 5.9755408051363075 1.3025684269159181 0.0171176335168931 -0.7982899934731155
P 2.288784706126021 8.597878764882962 10.215016056560774 0.955652562687406 -0.6243178407266022 0.09001175057345788
