# total energy = -381167.07405685436 ev
CRYSTAL
PRIMVEC
9.31928203043861 0.00000000000000 0.00000000000000
0.00000000000000 9.31928203043861 0.00000000000000
0.00000000000000 0.00000000000000 13.63971125901075
PRIMCOORD
 96 1
Ni 1.9276748712670186 4.801545777084101 7.4447318325477445 0.6702421140625424 0.18843769335254 0.9696725311155816
Ni 2.487782366204801 7.302198071918716 8.122761795921598 -0.532669840101302 0.005171002677978191 -0.07446223287463305
Ni 3.503006323536206 7.251119086531308 0.41696425325705866 0.700419151866555 -0.3485495431771933 0.3044430397762821
Ni 8.61443687020653 0.4508500950317629 4.521782791217854 1.6229839308610563 -0.8315305006938002 -0.7681065279111998
Ni 6.5282316905240405 9.84209386382802 3.6256266420970333 -1.1235957356310198 0.7892358536906473 -0.41299887190051454
Ni 4.043990651530919 2.7580135903023497 0.6260078666342819 1.7823761289108657 -2.174322293906139 -0.6091763570994735
Ni 1.0934872887095204 5.967154990244115 0.7398410340690765 1.410761476384093 -0.8687706159921812 -2.1009327252703947
Ni 1.5966260119499438 7.676935725889352 4.033931418393322 -0.8807406438698637 -1.1523715222121316 2.3691129260599
Ni 4.549002550480678 1.2762290921143153 12.44067131149128 -1.2069102766899602 0.07860068052303883 -0.9333335874752312
Ni 4.685632545876552 5.711760063307075 4.913570071856299 1.449811134087387 0.27874049280385543 0.31132202628430256
Ni 0.36801285998129935 5.783798114218344 2.8210603978088065 -0.31297498850669325 2.7590909115852096 3.019356485513329
Ni 9.419371226139129 7.532440256370695 7.936552287633998 -0.3378462978270762 0.06008385266577394 1.481062635902501
Ni 8.494851841837397 3.268700932072931 5.08690312801659 -0.1979425475191817 0.05456549395070602 1.0529456774136252
Ni 9.488520299588236 0.06324344435952665 12.002168333361501 -1.1153275820849566 0.3225402635976251 -1.319394240224005
Ni 4.053841132748669 9.024448007061919 5.016139954901525 0.5227824057842609 -1.070986079855104 -0.30776130551623765
Ni 2.0916569597320485 7.306643369497587 12.246714683964024 -0.7663162687799964 0.8543896646801608 -0.11608453640110976
Ni 4.1205951506888265 5.784422506121455 11.754117000747629 1.7684173527379285 -1.2687442792776213 2.5875237687357635
Ni 4.765536070910604 7.346744240528789 6.882598325673597 -0.8432575593227413 1.9552535059313039 0.5956294716529742
Ni 3.397353621960391 3.7183376565705872 5.03691356671088 0.15670076726057527 -0.7173943462683128 0.3234208664303656
Ni 8.708039739980498 3.8738764754204023 2.4383435744733286 -1.5956160803710648 -1.2976607052016553 -0.09679406360261394
Ni 6.578378747697848 5.457921456486749 11.08956271934243 0.7702798814134346 0.32695381928428857 0.2790899057234742
Ni 1.786888476038489 7.783566952089447 1.849626815306245 -0.10577852648941137 1.4443220859483576 -1.227182653785751
Ni 8.134885250052319 2.7766614738564823 7.724891819832987 -0.034660784606979016 0.0831859859008761 -0.6061913063292206
Ni 2.042973029853592 0.7260317217999539 13.21738501725965 0.8137137842273534 -0.510953788580449 -0.8230756850582277
P 0.12856136092252657 1.8856169509872573 2.7595046754441093 -1.9197324302065581 -0.5024208114087734 -0.02405112741193277
Ni 6.390725682607382 5.9937149443317095 6.679094093598011 2.7553458427204807 -0.3583117647702797 -0.2522074795103334
P 3.409841460022629 9.227477887676782 10.975425743310003 -0.5871060075629954 -0.1761961569810256 0.9135944571750912
Ni 9.041343865574484 4.068919731244715 10.894500824953845 -0.6853589150993229 -0.965460292806447 0.4720977349451998
P 4.114686725814604 3.6741269821174103 12.318773237295993 -0.010874480820658691 -0.42421608077257267 -1.3498821244002173
P 6.7687996395827055 4.492704767097111 8.443567832242996 -0.5662461333948505 -0.135457798721399 0.4309384870980707
P 1.1739406513895956 8.353142837677403 6.391910163366868 1.458826964432752 0.6153871138958756 -0.9739942984193871
Ni 6.868851452594786 1.1849746814386177 13.696315973223603 0.02689888127337303 0.20169147303865267 0.3687486438328875
Ni 0.7351552990110963 2.6451198065068633 9.127899494197212 -0.2896519975100367 -0.08518527571909201 -1.5955931975529294
Ni 6.301651983951508 2.9547809133218217 12.08442963677596 0.1547215320470174 -0.30211901962879584 -1.1777385402220104
Ni 7.11766696634381 1.239436566241393 6.1000060167338415 -1.0889159248606473 0.710416629398899 -0.3358572924215054
Ni 1.6027674188775667 2.1766674513766264 11.248846957682703 -0.8689534214269486 -1.6160568647239202 1.4377367194213562
Ni 1.0858547966401377 4.815384911056059 5.155319705889808 -0.7525109874657878 0.17281258522077336 0.08064599308784176
Ni 3.8536349946210136 1.9015063270291348 9.873923871963523 -0.16126910335754807 -1.182260853572396 0.364754692182146
Ni 1.838237720607841 4.133315970804465 2.5522084274673853 0.691971535319834 -1.4444699243801316 -0.2648567928432277
Ni 3.286174586077929 6.860454779390251 10.23339840565182 -1.9608860216267325 1.8860738616118484 -1.6479935655315165
Ni 8.815127611005257 5.176451178133185 7.7129836411196075 0.401626882618147 -0.48631310721363336 -0.7646283395546122
Ni 4.052573710378174 4.909444425654692 2.6577660723654133 1.8590137721702626 -0.11148920372094347 -0.289914507142804
Ni 7.282487790201079 3.7162501373721235 0.3321811520965987 0.4791494995856586 -0.05266827692799317 -0.14229616179947108
Ni 1.1731951088187158 2.225332742690811 4.512971409958267 1.7342003405365873 -0.01812164930137524 0.2995941963244131
Ni -0.624281935582695 -0.04025370725823194 2.0880764915353978 0.9523073003642567 -1.1754649136964852 0.40845110462883205
Ni 6.158554406753251 7.89073869665343 4.859938535091841 0.4777770447181643 -1.2187476356445204 0.43730248164288554
Ni 5.165482383059115 1.2921837031311447 7.6767027438359525 -0.19553393807768904 0.5832989751120794 -1.288228356144162
Ni 9.1022360550511 6.191553984796823 12.147458737646359 -0.40744683173403373 0.37527127544275374 0.012728503310261948
Ni 2.828616471764674 6.7723316475122495 5.927627255064277 -1.2212007251707033 -0.10585334559140479 -0.35761242471040994
Ni 7.4527137976972275 6.637407080747264 8.848312642763334 -0.5928881614624112 -0.05343960787637893 0.825835507191552
Ni 9.426453880562487 0.9647973216935171 6.662057513925192 0.6633117054912964 0.1322151234143852 0.5622948620565864
Ni 4.056758068057237 8.939223171928214 8.942031071635789 1.0370709151648978 -0.9850654686318842 0.2463829024087563
Ni 5.1201347561853465 6.223705508166017 9.012903280351845 0.2419726891562026 0.03648009720390491 0.53361369207181
Ni 2.0912748691644722 0.5646935136769069 8.03882302172266 -0.574766769271352 -0.6652140647203317 0.31047973288866526
Ni 4.053962283416437 2.579698445912154 2.7576221804526373 0.4592612453021639 -1.0819713752220141 2.938413530010359
Ni 6.52869765463084 3.208116278906805 3.9247858498729347 -1.3095258320703576 -1.7925294152947837 0.0341650759174831
P 6.215532497732747 4.146773014208846 2.0815157169116545 -0.7333608968998983 1.317012627365706 0.037594413314006224
Ni 5.328756206081808 8.533079537159264 13.358992441244359 -1.5218521591150371 -0.03571802222689978 -0.9711953955180113
P 8.35399089235178 1.857603188886446 11.309148304671895 0.08660401044348956 0.6321928725993048 -0.22526180415942496
Ni 6.23175736793152 3.633010309333385 6.411264448506909 0.16972006233837866 -0.8945826919592788 -0.9701196459553293
P 6.376057132525321 9.458325825467602 8.921353448432436 0.6353296184560736 -0.8581748427542059 1.2127500233001887
P 0.39263440338460737 8.315930944108361 0.13214462490381798 -0.0857123518671556 -0.9337765885499208 1.378518042969355
P 0.9876016050803055 3.0537144124775817 6.646195163801509 -0.25068538643885213 -0.39156024241076437 0.24992279724121474
Ni 3.2445453527764236 2.595997870368015 7.735339667035655 -0.7561300722756139 2.446545297306451 0.8418169702214728
Ni 4.518854672770723 4.8054132791705415 7.4249954568401275 -1.8293573827564105 -0.6738717403953297 -0.5320034101618967
Ni 2.372391014796867 3.794373679518199 10.048252227455938 2.2163035234339317 1.9706050486867095 -0.9975566591203593
Ni 8.06191527092745 7.84795387236706 10.726842279686165 0.5149551964303583 -0.01076340916409114 -1.269127887869285
Ni 3.6736703372927466 9.66353641810229 1.0494676595401315 1.2096305038346007 -0.9659135782937818 1.4580090965171468
Ni 7.291024252637654 7.643041496760725 12.848949061869376 1.7830955235753938 0.802471635654631 -0.3962684465197111
Ni 8.698151981634204 0.7245229300221356 9.343693063625539 -0.28490368419177386 -0.9786551942301661 0.038048470132289305
Ni 6.554307041940564 0.37978218139085185 11.512721499435287 0.9504609911841374 0.5018304861229422 -1.18843895735865
Ni 3.711991225435972 4.910106094686348 0.41497738230566383 -0.5320869710146385 2.2345532136727386 -0.3232748277708046
Ni 5.565130478179275 7.670002179980169 10.85599634695254 -0.2222718682931656 0.4033770325400343 -0.04683341541377095
Ni 2.419397473890844 0.23211536016131473 3.3285530896631683 1.1836605621334002 0.9105888375795479 0.8334248895030355
Ni 1.9886229764364487 3.2084331344994292 -0.05785223964385152 -1.8594704000917073 -0.02255345982048374 -0.25448342002870367
Ni 8.941245456151725 7.023504939641681 5.523864696881073 -0.1411813314687375 -0.6125874396635514 1.0128526660474815
Ni 6.1828404559996635 6.322601730193234 2.630827755423096 -0.7968303782084535 0.6627630320766779 -1.2174196608617163
Ni 8.23290545955875 6.739043171722463 1.3137522497066996 0.14705964462638546 0.34692280620704774 -0.3994522435643314
Ni 4.97316967690065 3.8801203944515215 10.237953670759897 -0.023084649733605404 0.748106430640189 -0.4007519362123614
Ni 1.0426878817861926 5.719429832505003 9.776276433742531 -0.16818485664077484 1.300405100716012 -0.5893912040527463
Ni 6.158330743981987 6.01667765551481 13.78592925831515 -1.3595528147207618 -0.9373043991975214 0.4085755460218382
Ni 6.795965347009141 2.2288088349275386 9.601047835595779 -0.5395364853141482 0.35221567917487084 0.5249645010372443
Ni 7.1323075585794635 5.366993220685811 4.343457395617309 1.1656314725458312 -0.42345657689872873 2.134247280262124
Ni 4.0421733915144 7.310632022251795 3.0140757778403255 -0.8641506007216665 0.9519026087266703 0.1880240028538891
Ni 2.945405715493007 1.4305098078757703 5.909896388872326 -0.3106363130711876 -0.103460419879196 -0.8599162509253447
Ni 6.664395721813114 8.464657367716761 1.479104272645721 -1.2105113637776572 0.11160027537751104 0.9979358968366491
Ni 7.155027968427027 8.469400882323985 7.1567837211814505 0.10040157844821418 -0.39938333799960896 0.2355845262416717
Ni 1.737673347078281 4.854209040434628 12.033266777849327 0.6964545107918522 0.6274802976149839 -0.4164073833614312
P 5.589817256557535 1.2196890073952122 1.7778543639358524 -0.28750898302510486 -0.6099577153501883 -0.44952807717480003
Ni 1.2766018633997551 8.507526065542354 10.114773263342695 0.7354743436984752 -0.34422186233611685 -0.4047345750091933
P 2.659173283967949 5.658444450207028 4.028461931707705 -0.44768639598037097 0.8113198300738801 -0.5243896023703808
Ni 9.274009063381824 1.413380967309805 0.32993240931718226 -0.37880217141414757 1.3630181475615428 0.2596757628629205
P 7.949515409085173 7.370294066486458 3.747619772970108 0.1718149971941944 1.0530114976545542 -2.520701311794575
P 5.203775313355933 1.613568466873189 5.105276092747711 -0.8216718627321655 0.6044951495737202 0.5017132438187875
P -0.05880560220636416 4.412596217856068 13.483155100998696 0.3849370806672919 -0.6910533943809389 -0.38256600933195406
Ni 1.9328004764418178 1.7431717235385202 1.8095529701932378 0.458197837034656 1.0006746359240506 -1.0848450972253831
