# total energy = -340857.1169815586 ev
CRYSTAL
PRIMVEC
9.42505040220466 0.00000000000000 0.00000000000000
0.00000000000000 9.42505040220466 0.00000000000000
0.00000000000000 0.00000000000000 13.79451396231710
PRIMCOORD
 96 1
Ni 6.092852088236375 8.957511323402198 11.216622382216947 -3.4329616235392746 1.0283978128709321 -0.2627256054328379
Ni 6.654999792633709 5.006992034859389 11.515094877402626 1.0449701154073165 0.8199679926671813 0.3954516070453705
Ni 4.151103210563198 1.0310533854628539 13.182603064396956 0.3859796629991933 -1.4037868448384727 -0.1975522540592985
Ni 1.8072911090638883 8.67195114722638 13.800583824693952 -2.7130033731985272 4.597777027941714 3.9522403870456513
Ni 5.28494619538487 4.629867494318001 13.165525815627632 -1.2314596838945502 -0.1362191023674557 2.682212613069916
Ni 1.3466888973762459 3.3399739504844135 5.339193957811933 -0.028998958335511346 0.5171007820184514 -0.4894010021103377
Ni 9.048265133435763 4.1736290809526695 2.440346294926123 -0.4387865223875798 1.1719548436606977 -0.6748510735894636
Ni 1.3684890388870603 9.400281339785707 7.771636405495959 -1.3328493372876464 1.2353947572828983 -1.154889660648295
Ni 3.0758651889556403 5.464983507593942 12.488297303681142 -0.1158546797784908 -0.3639262827435797 0.4501430850509796
Ni 8.771979206826154 3.600538893073253 10.781737362974791 0.12537238946093893 0.3998654198423501 1.4899128872042793
Ni 0.49666151190650387 5.883031616851266 0.311645888090855 0.038555491675694886 0.13065112136137497 0.8473124461184052
Ni 7.081275970865931 0.7841575934287638 5.405393626615936 -0.3221707960733484 0.9502355054368927 -4.684860034904151
Ni 4.816181890074933 7.8883147590831975 13.436477163726595 -0.32217876649314836 1.4011604629592191 -0.7191342117775551
Ni 1.5024755549777404 4.652553590563798 10.880436490472087 0.5821671755004812 1.4385160207895418 -0.5047481739903694
Ni 1.8358395866411723 8.563176640881238 3.152184534344237 0.15117340968444287 -2.0212388116831774 0.027202271446404764
Ni 5.190299839547601 0.8202677889196347 9.08059776873747 0.17999599034309002 -2.530387428734087 0.4510252305456168
Ni 7.315893749780203 6.599750147352086 2.983822032031164 0.022366026400025996 -2.453396258790013 0.07345436043540898
Ni 3.272481164769349 3.0648001798187208 12.788190153957906 -1.284287369218543 1.0862615179569355 -0.07018725964836299
Ni 2.8987402173115675 1.4157462414530897 3.2412833055324497 -0.9131447712321822 2.394395354775773 -1.6196515240537137
Ni 1.6744073238667516 7.218410453780914 8.07129457201846 0.756864122228161 -2.1549415753866823 0.8440823692168817
Ni 9.388396351266408 6.101089582261645 11.761202735225606 -0.7240825569217658 0.19899104338835405 -0.3307526242050885
Ni 6.578044256344993 8.57159321086358 3.7833245499708474 -0.3479988128800458 -0.7393173715936492 0.5698631613221476
Ni 4.332149003162091 3.8780218010801257 7.995300390867703 -0.11323678253966951 0.24653279772305925 -1.5194733744702156
Ni 4.987444480387521 1.958242715824463 4.4211827415027365 -0.8762106172099943 -1.339490753863564 -0.7229926662916968
P 0.3284196502381948 7.556194834068891 9.869257708729016 0.7279232708240947 0.9876568835081443 2.0905069019513802
P 8.71886904797901 9.177614524743339 6.294256932144179 0.49120823052240564 -3.8111801545358106 0.4097402557539008
P 2.6712854766801395 5.657188559833477 4.972908225198533 0.6083518043156491 -1.3043316894639279 -0.3200699476802617
P 7.024179015711364 4.151942040046321 1.0516914182627806 3.311337388266858 -2.142266293911859 -0.6546008079808597
P 3.6269101840145668 4.728632597167904 0.9843211582025542 -1.0560145461469361 -0.6209707786312403 -0.5514136963677084
P 5.368725468143033 7.0559602855663 1.457486962036291 1.0880780023403842 1.5680541115923963 1.6529120858790565
P 2.7626613400382674 5.1539191451110495 8.593650656249556 -1.4123077378252902 0.9940360475616106 -0.24671148939276863
P 5.724181817878818 7.907466461439434 8.884288107060858 0.11902433575572403 0.4213019924495712 1.9307385515090747
Ni 0.23768657531544882 1.1420050784439655 4.516737672195882 0.8159519295292529 -1.2500431033236923 -2.9571532725117073
Ni 3.848295192206321 3.9201046509918367 3.495764378106057 0.22365152224951163 -0.7811289083127967 -0.34635767773219706
Ni 3.723771426689294 3.7383708297157754 5.80749078062341 -0.10930196626163757 0.17399529267496486 -0.4253519941492287
Ni 3.492254489347463 6.54449107702009 10.307288809785401 -0.604142651330308 -0.8041690779617118 -1.1949286788480518
Ni 6.183219471204681 4.108115555815759 9.463036152678685 -1.1844252082135667 -0.3803119231904547 1.2073751321415207
Ni 1.2897804432291209 1.3834371687773122 13.39118979668835 -0.21475601953209464 0.9946348574878742 -1.1333584714447384
Ni 4.335862473008724 8.91544732359123 3.227530272029388 0.373940215336156 -1.1136969884600691 0.7195941821331091
Ni 9.260432442363541 1.6786203213831088 6.4956843961728765 0.6731551739442794 2.4315004871581865 3.47416895101552
Ni 3.6811701990071133 8.524609334758345 7.900379766064605 0.32245747407583175 0.14430162226527407 0.8155472378916665
Ni 4.800668257162352 0.9730799006236746 6.486015236996074 -1.2145063438696633 1.0477245382240021 0.6466249888642348
Ni 4.024930061231042 6.246216507892223 3.0587813426510566 -0.5285028532078059 2.6116155195776445 2.212880870905628
Ni 7.057487143726591 2.6121150104436954 12.552041746863196 0.4481695062643765 -0.27048905142834057 1.139128026938664
Ni 1.2822781031328787 3.1509639903210416 8.106760094063874 0.5971502791728748 0.18084085484188855 0.04344084479245422
Ni 7.045903756819201 1.9808345615665395 10.227707454463 -0.47105540972361454 0.05890397342505985 0.29409923464811283
Ni 6.152870809006314 2.340824360531334 1.4437339285332298 -1.4757268255118843 -1.1763691706783095 0.3848522342629695
Ni 6.5559707883733855 3.3429051411501565 3.806913566042299 0.8396549295731475 0.6511149063147883 -1.902832569127426
Ni 2.1056033783932433 7.642697946384609 5.7012308777175615 -1.228178442040117 -0.8972306711050869 0.02074160342272557
Ni 7.818833287739606 9.441921212329925 9.352831866192085 1.4331562991395252 -1.6214158150429883 1.1204733879519542
Ni 1.4473295852502102 3.3570144415572853 0.7947428675017408 -0.21098164009132697 1.1069876947606934 1.2448936979122691
Ni 0.4355975530502922 5.5415149166159114 6.85519728758884 1.210479224988141 -0.6439217310004588 -0.7607863401007027
Ni 3.628757493887511 3.9003497454117815 10.16905348098695 0.49698472799486665 -0.32047361087658355 1.7016851415177014
Ni 8.157428222359588 8.262517534009215 1.8001836785782397 0.4826842522117945 1.8332034959753782 -1.188787084726688
Ni 2.106762659589019 5.193711707782325 2.500972931445066 -2.6103543934770337 -0.4947208716613545 0.40031227757178156
Ni 6.221918728032786 3.562292038663012 6.064826700954746 -0.2658546379801228 -1.8303333735164347 -0.2980497346554286
P 2.5222283050443695 7.429918009182641 12.726404236243187 2.0401148226520736 -4.135891457642826 -4.502956028905071
P 7.814149037704641 5.466576341106838 9.814189966919576 1.291751795916388 -0.1456884753104717 -1.2339937631703135
P 4.177427376252652 8.358483396898587 5.725992370055311 -0.5934689736665456 -0.06369805237959353 -1.7854210863847766
P 5.88374792067955 2.469579973665463 8.148281210973403 1.3289744277132727 1.2674705547715204 -1.0604090756702058
P 2.570258361740916 1.86954356677203 6.568354362057371 -0.15845914471257871 0.6634166065002768 1.011088632168523
P 3.856165109267078 0.5061958928629847 10.733594205673777 -0.3324027582140017 0.2584089803353549 1.4076869512238275
P 6.9009747572464395 1.0536735063560467 3.1126907457697586 -0.5143353034581724 1.486725747725549 -0.21495733690962332
P 0.49804039677595147 2.276988494360669 2.7308037272753167 0.23412696785953874 2.033879897485955 0.3361046325456211
Ni 3.6246575969756196 2.5752442133877906 1.3173958408195607 0.7210679384651582 -0.4346807277493223 -0.037329846798709904
Ni 7.522104426872774 7.362679699827625 10.809395173291904 1.2665475287366188 -0.8457451016312854 -0.33564311952817033
Ni 8.963364279683312 8.113064510257814 13.11109237970824 -0.2535467671470472 -0.2044996319114091 0.5464131578293234
Ni 2.6519546983668314 0.3726683767254292 5.0421295651518525 -0.0842697058833581 -0.32164911924192346 2.481496359460339
Ni 8.365834936188874 3.654261680194586 8.508993911301744 -0.18479855393805594 -0.16751765537042118 -1.3339903928706254
Ni 5.629431786487455 5.754115777860809 4.737850296431881 0.6183299985742835 -0.5311603454353111 0.5578460822566135
Ni 8.970744094124717 8.15142446527252 4.36749482706778 0.5655300811644325 -0.0829512441822507 -0.7144447767216857
Ni 8.218040721302975 4.794089572002582 4.559514205814984 -0.06769586068507696 0.5398069653667156 0.8858067455388616
Ni 1.7666408668087459 2.4778080426403624 10.931614513992937 -0.939327343164821 -2.4205722702814567 -0.07484481302503239
Ni 4.0646283733985955 6.35309657911256 6.7138450946323145 -0.12943241846292547 -1.2112819233950947 0.19074140178505214
Ni 0.7421058461832808 0.5201770125850524 1.7996049804853889 -0.35710308917415917 -0.6948403722271969 -0.9428366418696601
Ni 8.694071740449848 6.9213140159495685 8.239890815580761 -1.9954948699498536 0.22093103799455502 -0.3200609488191972
Ni 0.4855540900429089 0.10492625827818741 11.258544063767294 -0.8021260793897541 0.19178912632327613 -0.1994471570891662
Ni 8.42017977663477 2.2078180496793594 0.9059198191867472 0.8440875114232044 -0.02763473099813305 -0.12095806244332719
Ni 2.38523519788497 8.545071119116312 10.002153746491636 -0.4851237148912226 0.46301299903511234 0.38879013586479494
Ni 7.075036587519559 0.8653053921230193 7.440829389998495 0.038357002511643624 0.4450774976026141 2.9306223161007146
Ni 6.715508616023 0.3307127649937423 0.09058227411679139 -0.6348408517451132 -0.009242601644190534 1.0183180600374269
Ni 7.909436296967216 6.749316271707952 5.945463150516478 -0.821278998169121 0.4732225925782624 -0.017457276244498967
Ni 2.8214171040583356 1.3814956084006464 8.935920418009646 0.4767041233689597 0.7010639845394055 -0.23623475823116086
Ni 5.536858941732063 5.069225642466786 2.0493132075505325 0.43766372163704625 -1.6677280678459665 0.7967110790217699
Ni 7.226723348209163 5.89956315520404 0.09834003307811938 0.6553708533776649 2.335362311972017 -0.5140406550358889
Ni 5.867216382326774 8.277182912388302 6.8846901552134145 2.5936679339602877 -1.1608631046229103 -1.147107959820347
Ni 2.920351857814939 6.94270888029438 1.150101196713654 -0.007252053576722994 0.0471144369892995 -0.8092236096664838
Ni 6.6020310095421495 5.0848146757823445 7.4766125362414515 0.6885977337515948 2.8370174488593594 0.07169161210803138
P -0.014918912234098004 1.8156511287439976 9.54148555945139 0.12490984800222357 -0.2837757412349177 0.08315050467725035
P 0.2202134744304944 6.860833467711394 2.449781712853696 0.51149963378159 -0.7852794401460604 -0.006086829624028227
P 3.2771654148043146 0.17088841581281264 1.5264868133058649 -0.28439846242058114 0.5087159003888658 -1.5810106717530643
P 0.4778613639291489 3.5263448965435793 12.733080941926827 -0.0748188448831034 0.1010232711926131 -1.0263769257861612
P 4.974711237334728 6.556394915640133 11.777604207883245 1.9417109913601784 -0.7558323385295369 -0.009568360414725459
P 8.825428667486694 3.760934400306735 6.335406702069045 -0.7867105161656323 0.46562601117792707 -0.03769262945476735
P 5.116840996946957 3.0134525053911725 11.804765318045746 0.32714099559443016 -0.5093553337450776 -1.6962721980322462
P 7.77311236838424 0.20911359260719717 12.169092525191811 2.0332605187344015 1.2029055264059414 -1.1090985704561092
