# total energy = -340897.7242310562 ev
CRYSTAL
PRIMVEC
9.04101675107108 0.00000000000000 0.00000000000000

0.00000000000000 9.04101675107108 0.00000000000000

0.00000000000000 0.00000000000000 13.23244189517498

PRIMCOORD
 96 1
Ni 6.423271859057618 1.8713277696974264 11.401337159157775 -0.04525038719736723 0.22228600936055265 0.32575877053492286
Ni 4.523048999197989 0.29054302470636806 6.016116893668803 -0.05185349433618167 -0.3488447058201089 -0.5172234236392447
Ni 2.7419415376133967 1.5902063887513935 4.79861286702678 0.20024188507631963 0.4089696961364634 0.36891088044236464
Ni 3.579709290961382 4.44434694667547 5.021817493411152 -0.3640594658873343 -0.6577738063922026 -0.5415550584060738
Ni 5.129791646502558 4.663428869332069 2.5352430958689287 -0.27469820441368176 -0.24880128204226185 0.3319168197165187
Ni 7.283859139179508 6.259810272658175 2.6187133807292287 0.3459169906503527 -0.5822113984748554 -0.38349469179381046
Ni 5.155902103445124 4.349416268733316 11.664596202921873 -0.4127913838753988 0.5378539554054027 -0.2540779570601689
Ni 5.5454885647027785 7.696599644838101 12.439977322929662 0.42617551849178864 0.7706866299335501 0.1269291924250975
Ni 1.9194983079903596 6.5335089786908265 0.4275533078243479 -0.26534890198829786 -0.21386127563196716 0.1815923882959324
Ni 2.7113919413499175 1.6496420341601292 0.4068132149482239 0.7556739585748018 -0.3730454714360285 0.16076079626256184
Ni 0.560430037994218 0.1810761997170332 4.736566175923788 -0.0674408072514774 -0.2527697797717066 0.34857088333343195
Ni 8.558344175129191 2.1794546682637654 1.3017021133665452 0.588828903791373 1.0938241607955421 0.6399645461249236
Ni 6.790364270151455 0.574823336973638 4.765982028662131 0.7914251480324821 0.85069318966518 0.38404233676716437
Ni 0.7251528462577495 7.533147099455605 2.5643542663361614 0.5457356721463247 0.20841670757762815 -0.09272195041576935
Ni 7.429338142871623 4.028731397627772 3.6502879897571368 1.232768889624277 -0.9488442815163208 0.2517521371404696
Ni 7.675452706199368 3.822948810900022 12.573493252997677 0.3364905551301302 -0.471786117242052 -0.17989674576106437
Ni 7.758937456686782 8.900664199788599 6.937491451232986 0.8766829288607225 -0.2814483786533218 0.1127089350606575
Ni 6.946195238247739 0.7766061778040918 0.34213558791369214 -0.8789979501471442 -1.3350237192311458 -0.49535876235566945
Ni 1.8654239856311194 6.49901749903851 9.089589810418905 0.34102598110663845 0.129703412736125 0.5471785752404382
Ni 0.10172590627942317 4.716897443555869 1.353414017997568 -0.14837553522433156 0.3736717921661177 0.6972343263806702
Ni 6.283163219431946 1.968708563232183 7.063147121167389 0.46058047833421967 -0.003930188292341618 -0.002310393300731505
Ni 3.338386466615479 4.216992493512484 0.4128734086077121 0.42492107725939726 -0.0807966597330931 0.0647131239076692
Ni 6.055031238811528 5.536348096569491 4.849200069149613 -0.9359571411410075 1.191550249294122 -0.23170036069591707
Ni 5.186957996657629 2.752817881000484 9.497611809332927 0.37782412377159447 -0.4471323232491138 -1.4872242846285224
P 0.24646083427681034 5.497290903359005 12.458423709806365 -0.09244941348067304 0.30673954911994267 0.06762669801003839
P 4.033604505762136 6.0738003899932345 12.767282026643706 -0.5489392666852868 -0.22963962151214645 -1.0031822328372528
P 2.4395466437913744 8.616523119182311 1.4077595708652146 -0.1198745995711613 -0.5874559347032463 0.2027674797116508
P 6.280514201466512 7.696925121448189 5.821295635887441 -0.24743474071203841 -0.6248891398490399 -0.25123740228758024
P 4.688517691359638 0.7677948026876704 12.521939566163224 0.9596871377680957 1.2751962055505524 1.1518143641570808
P 4.1096394582853275 6.074686409654028 8.20465687986248 -0.6460590890584357 1.2733606950037102 0.5683876052178857
P 4.870242131991762 0.9279699794269253 3.8108908065979787 -1.1041057452272083 -0.10820641920461366 -0.20608960210634827
P 0.20564606737185212 5.6476158921346435 3.480145091833956 -0.026819434185689297 -0.36080907727083666 0.6295407796884384
Ni 1.449736108447846 1.1004364187054525 2.6603427432610998 -0.4263305560124141 1.086811991143767 -0.5674455530195904
Ni 1.7636673398940768 6.573623970884097 4.783223247979815 0.5549091111154766 0.2069789466898371 -0.2804153094031171
Ni 6.117278640490741 5.744011214822191 9.19468168730765 -0.8573088952094848 -1.091218861962211 0.020718977714906252
Ni 8.568244088686015 2.2878835845075995 10.1789238603136 0.6520662144844641 1.077396611367138 -0.23513278341623378
Ni 2.4188155919321974 5.3301496230621845 6.982230019492886 -0.8035535558649 -0.5624969507650635 0.08818858132179005
Ni 0.6036008939155311 8.93649374994905 9.028760040196962 0.30656857075971716 0.4281413839689079 0.15108496373569466
Ni 1.5357523436803844 1.1377667776790865 11.313870744806957 -0.2513636434527993 -0.0621762164184284 0.2744776037624434
Ni 4.220455203003136 6.947479062654194 1.5689708481465812 0.12213871301498964 0.21247879346214374 0.3867337675563985
Ni 5.652859681963828 7.937949592234845 7.997277649541913 -0.6865580776137465 0.14146029616173703 -0.27633136914173057
Ni 5.271401094941412 2.7472214915103703 4.955166212377119 -0.2673705604040169 0.2467793665162266 -0.44431902217003477
Ni 0.6460312905488952 7.384621273052395 6.890291014058451 -0.059224332878956065 0.0982415946824179 0.27981752791811804
Ni 4.998796351959332 4.517995070724688 7.096850224141937 1.17175146940064 -0.22516873022498643 -0.2074980524181007
Ni 8.124800289475845 7.12254931481342 9.136538003220624 0.36224683815862774 -0.005738959366306246 -0.07851840522187768
Ni 4.614381352395289 0.2552704011898423 10.412238151847964 -0.0693231118758548 -0.29047655029386105 -1.1179567921776876
Ni 8.209812971827281 7.2957119123968575 4.764155743238862 -0.37150615197336667 -0.4786805303690401 -0.036301919754827806
Ni 7.2523150310518725 6.057815872031165 6.993213046879945 0.2366037115348054 0.21509052005337795 -0.1993419989698696
Ni 2.384224661093466 5.300323308154455 2.565161629149517 -0.8695815419292507 -0.50220586718449 -0.09555479187887414
Ni 2.2923588878963015 5.459409042351612 11.325766010803957 0.0033933419522651233 -0.8103528381749204 0.963694716265592
Ni 0.9952622685624924 3.321814282551863 3.803056765413514 -0.2530651995249384 0.7067080701990603 0.22261588189614565
Ni 3.86382324851683 2.5098947966549847 2.6655033557343746 -0.5479311371357467 0.7249726728362029 -0.19949600804923062
Ni 1.2852800101842472 3.4605396465846643 8.370207845278344 -0.6823352977816506 -0.2250707711945414 -0.18858373201210105
Ni 3.5164312133502262 2.7602586379477594 7.131267567455289 -0.006072174336008897 -0.19100699674161298 0.06606141040544752
Ni 4.0265705945774695 6.837305230139614 5.8727562002473395 0.7182944894850791 0.6910780769712872 0.3523311217068126
Ni 0.613907653234965 7.302320895785019 11.276594631935005 0.463320245862886 0.15214297268656377 -0.09028660150139935
P 0.26341454925558444 5.4731604291278035 7.9207680436290095 -0.34280158494982255 0.1695395708964564 0.5076440074809258
P 8.434391832787577 1.6576704572089513 8.006262612183713 1.014781250528762 0.6103438950450134 -0.3407215624923422
P 1.875667457831925 3.3044826530647096 10.709676760179711 0.23466612819246035 -0.34069482301946485 -1.4782351937560347
P 3.8999059471517947 6.146110443534316 3.7728208924380913 1.0179413934242985 1.0893144458506463 -0.3510535405459696
P 6.847964589119976 3.8981339078302084 10.379011510466514 0.7214070669721317 0.4692844338661208 -0.38541890539971685
P 6.241827689950847 7.732519605168023 10.132993686020102 1.0159138214713084 -0.002211920049654255 1.2687741040742924
P 2.3050434346727626 8.500120025991336 5.965145448325729 0.20009816040960376 0.3189191219052701 -1.0669746447028656
P 6.975415805020028 3.9111439312167566 1.4800090495927516 -0.2614336260942917 -0.2501840213224014 0.29574114112691
Ni 5.3609433267832305 2.757573455914538 0.4510527190726572 -0.525064002729586 0.0919058822723772 -0.5295325800239009
Ni 1.3709346047389108 1.2899722979796737 6.953437092822183 -0.06933519606071285 -0.15538821909673883 0.30407948578927635
Ni 7.035520485682833 0.6621405745448314 9.238931136550724 -1.4277173875121412 -0.5770483662166771 0.0716396758241734
Ni 2.6922521084733892 1.4913880735220844 9.15702223531715 0.26953954303087774 0.3597646951667224 0.4496005822839483
Ni 6.382478790593333 1.9202396713800032 2.4975972054038493 0.5602516063743125 0.6788283130696567 0.9061451999858976
Ni 4.190448067756468 6.872574237249362 10.539296083510827 -0.5429480820988585 -0.6054207467117831 -0.6083160659817072
Ni 8.389448937544676 7.208764452418791 0.475365821846185 -0.18302243587423964 -0.41832928297449246 -0.7837771445689211
Ni 7.490699524890042 3.869464843091677 8.089335996400045 1.0402858225577698 -0.45684415122023897 0.8796404688271495
Ni 2.981899168400322 8.369522536193772 12.488792485730906 0.5519145472635268 -0.18924939062055796 -0.5468363614096712
Ni 0.11965243468168064 4.867782975382212 10.121336198768805 -0.4779858182948607 -0.32077545838771854 0.3096564656564216
Ni 8.461053791763902 2.362571425505708 5.786334927455582 0.3172849287359568 0.2524342508091588 -0.09076251269655337
Ni 3.851021168520059 2.372100657367711 11.385881540687096 -1.2357135740748975 0.6915041087651123 0.41870954913204667
Ni 1.142576598694822 3.2711032184968585 12.813476198632053 -0.2999047855862964 0.5861739826670291 -0.6266675719057014
Ni 3.1376668493779776 8.367497348397672 7.993983102966472 0.11215871898414231 -0.4069688636563507 0.3067817152117878
Ni 5.728532993809146 7.853253345476549 3.5871165961459544 -1.457530871329148 -0.5239921098216459 -0.21758140479603177
Ni 2.976917568062596 8.53545232021971 3.55074096856191 1.2368530869959795 -1.0573656608581918 0.5955983613047227
Ni 3.429176358795966 4.306986776201646 9.395986258341614 0.0346093625437533 0.3895750936599355 -0.061381745541591065
Ni 7.217760264280928 5.95271405002378 11.436522084809914 0.5252295817731728 0.7194144620221352 -0.2389333881092466
Ni 0.6487074315651693 9.242993265464953 0.25516823769834257 -0.23475843079595055 -0.7308147334392768 0.08868197601844083
Ni 4.637264166287821 0.4332672305347709 1.5637704551987404 -0.13289877974497113 -0.9339401107109787 -0.3344773813548433
Ni 6.10548915439202 5.560523775885427 0.3863778043432095 -0.11403279607840362 0.6494514025694363 0.27144627313528735
Ni 7.916151700375936 8.827477167603671 11.377267259740117 -0.3670838545359549 -0.19637237481858438 0.05841263561093811
Ni 0.09988967573751348 4.911568620455913 5.737388669908607 -0.22468536283066465 -0.5405530995041207 -0.28274550019819045
Ni 7.805724719386844 8.920870872664857 2.5139126245861743 0.8903910224754343 0.08896119782175646 0.4005704163291746
P 8.436371815498942 1.7664971781984475 3.601156391362751 -0.30187553615942203 -0.5855672023209657 -0.04431913363234948
P 1.8730003578325978 3.235445447658396 1.8056194667309515 0.31515682664936046 -0.5527205881045901 -0.865978912179657
P 4.627129186290379 1.09885424073975 8.050962304070742 -0.4296943302783245 -0.5539788859917233 1.4188946470141885
P 8.585412979868124 1.6969988809278438 12.303193969337048 -0.47649457846131493 -0.3623185719368276 0.3094996283635831
P 6.452854066507783 7.797370819727934 1.2746622398818408 -1.0203829129862556 -0.31781586153876235 0.07111414233800656
P 1.8222983347945405 3.3326725439050557 5.9224176022348125 -0.6430966639960022 -0.1947019290946969 0.03853338018850783
P 6.8711547975887015 3.887501671900687 5.947281302940405 0.09791249347777331 0.6032101122137096 0.1094012108436632
P 2.3972979715986424 8.343204135861427 10.289573250319586 -0.2612271665104404 0.47526122027484596 -0.5314925319637491
