# total energy = -340888.9910087021 ev
CRYSTAL
PRIMVEC
9.08234250684645 0.00000000000000 0.00000000000000
0.00000000000000 9.08234250684645 0.00000000000000
0.00000000000000 0.00000000000000 13.29292631601624
PRIMCOORD
 96 1
Ni 6.356041265964626 1.8034898349068647 11.299279650743408 -0.20553064427908474 0.237808530476184 1.3983787864490238
Ni 4.851760122765874 9.343732329270056 5.65364105136527 -1.1759431388844845 -0.4207628321166495 1.966393324598207
Ni 2.601818659349903 1.818820829066751 4.568180326052034 0.8319225939258963 0.38038057164486105 0.4306399820210455
Ni 3.769017742566414 4.555821074362002 5.059845672053289 -0.9071872680971667 -0.02226189672199392 -0.4354302043208371
Ni 5.253372226294318 4.682919375471866 2.6346177228626972 -0.8020134650712898 -0.18605428072202795 -0.6000502264284892
Ni 7.398676021632061 6.150698584115769 2.7213413785706897 0.23012838822310688 -0.030205319938786685 -0.19189145622909534
Ni 4.8740845206598316 4.758711523732678 11.629741591268811 0.5332066864413785 -1.1282797713702504 -1.4059252313377142
Ni 5.573134259106592 7.967039933676804 12.439148148873468 -0.8975582296478349 -0.4472032856963653 0.4978720156958264
Ni 1.812844647693999 6.462922272643264 0.4537047872390151 -0.0625636816648342 -0.09960890734358975 0.7391409939167851
Ni 2.7936649802262528 1.5849414270458784 0.31708909941105645 -0.043327973363673764 -0.13870690178631595 1.1906233666044785
Ni 0.32670094249127435 9.051780429228856 4.806496452389911 1.1363386371189848 -0.7230047504765548 -0.39931931753089295
Ni 8.646153930310204 2.2807124398458853 1.0898747437739615 -0.018654638986709812 -0.8935249401187256 0.6479578487430454
Ni 6.929182490170565 0.44441718378646783 4.710760388207479 0.48321852744870963 0.5656714918383032 -0.4475344437835389
Ni 0.8347063309054744 7.661873225280963 2.568937854754502 0.6343798529482946 -1.668932372566713 0.08582162375151026
Ni 7.558007556316235 3.8765890072759484 3.825903178420452 1.0061449150100026 -0.17099044441037003 -0.009372185243519343
Ni 7.695123681216592 3.685451109115517 12.507965966319484 -0.20882139921521456 0.7215980999370152 0.48065616603817224
Ni 8.136952397387203 8.838863073725173 6.8514803252795256 -1.2150339342383591 0.248893584645752 0.8192005183735376
Ni 6.6335704060971175 0.753605553446526 0.4764805775558083 1.286844588422758 -0.021409576024027644 -1.269051526105395
Ni 1.917636715594928 6.371136119219206 9.16383746290496 1.5509693881959676 0.8489988326818927 0.6724699749517967
Ni 8.984707329779352 4.5940214069665535 1.6030334533293462 1.4533852245918906 0.9357131434510013 -0.12674330166653655
Ni 6.486572692543943 2.1375111454626343 7.269794856687135 -0.13254165351586852 -0.46420033447499415 -1.3783270100044713
Ni 3.1567225397921863 4.203771313920347 0.5305750095559759 -1.0058271266592678 0.09725197707563896 -0.2717103254299514
Ni 5.895530171247282 5.585949444390715 4.725661787566557 1.5217732262479857 -0.35403884842653865 -0.5306412397070475
Ni 5.308801762643718 2.5853432900335322 9.157922133227034 -1.3270903233166822 0.9583609627575043 1.2655072603975623
P 0.29791354966593325 5.39137842076083 12.462809467585162 -0.7951977277010369 -0.2201800187611434 0.9281327600005822
P 3.888695769844152 6.096613234458113 12.896225209887108 0.023601955689656128 1.2033742385122437 -0.015844166121108196
P 2.643016164983341 8.494124599005502 1.52410063102796 -2.365522380495165 -0.5466995787214908 -0.43159874638988893
P 6.5890396807618545 7.569169755263213 5.657669070269245 0.3657857045498217 0.8488476518160092 -0.26410937315424193
P 4.723090576401472 1.0719525572954642 12.7729469420377 0.25114587101503844 0.37429245646925213 -0.9286786052017233
P 4.111503796343164 6.21123239695679 7.998632862104033 0.1294892398427899 -0.9315122179957764 0.7532902888339738
P 4.77743931399197 1.1383444810565833 3.781797506714741 -0.05063504854804828 -0.41893889153403335 -0.5947709803074208
P 0.1749477143989303 5.789121446379255 3.8256906516056763 -0.09147342272064891 -0.7391499927778497 -0.22597734216921078
Ni 1.3644039861748123 0.974753327734384 2.5134928784228325 -0.24755841077409624 0.9251999026245032 0.34558171879812094
Ni 1.939670478528509 6.7056478762706115 4.610611213798572 0.20531904248891092 0.48429401990107557 0.6845888697025178
Ni 5.854477983094031 5.59352411804554 9.290904884050281 0.8657148598849929 0.11692914378959218 -0.003963355523122206
Ni 8.56382249544091 2.8300125149584003 10.335954634591598 0.5097566829485544 -2.075108050897807 0.26444901588184777
Ni 2.3547426136594125 5.728042692987528 6.7857468713505105 -0.7122724516607153 -1.2777171722001932 0.48571969660400865
Ni 0.5341552689741199 9.331471166879153 9.454886578100488 0.3691065413929385 0.7959009244156486 -0.3952867993327321
Ni 1.7294324140658024 0.9354540316859076 11.497264726923472 -1.0858182597719301 0.6617381903565893 -0.8680977582948728
Ni 4.291543071954199 6.829694510296516 1.6385790172177037 -0.21482672486903004 -0.34911210054888264 -0.19456823173031007
Ni 5.786260508488045 7.85350156993703 7.882732181076945 -0.3205594857221705 0.2979340350131708 0.31535634425467624
Ni 5.435763828615904 3.09850472429167 4.621724368095988 -0.16613723008312678 -1.4998046923966946 0.08532900038580789
Ni 1.1393798681029264 7.822503534944321 7.349193603159376 -1.1325747992011785 0.5689041398429879 0.0748844080137162
Ni 4.997822355040336 4.265867289673394 7.260117620740832 0.7387746117163019 0.796791554550718 -0.3789960325925086
Ni 8.389178131281872 7.3626100395177785 9.394111174948653 -0.9414022234159788 -0.158909601986436 -0.9033761218811925
Ni 4.4097406774025165 0.3302902842519302 10.632453155294197 0.1816957466430161 -0.023107018331108592 -0.24326055472969074
Ni 8.696987801348643 6.759497085022961 5.855467958427815 0.2896872216233463 0.2412345254385974 -1.0363206672624345
Ni 6.693114243604353 5.872515515322429 6.937551868795172 1.260451700251526 -0.46516346971921185 1.0317173641624684
Ni 2.4893792590540538 5.20493609367899 2.6508751159587853 -0.8805694083993222 -0.5150402999449968 0.1568799731509169
Ni 2.382380181922762 5.378009212583488 11.495483679556912 -0.535674945476213 -0.6996447355943757 -0.24751573046161887
Ni 0.9052379863834633 3.5366096800324502 3.9535418789097663 0.202459975773561 0.18103523024088178 -0.09288855790062067
Ni 3.958311925196954 2.60665046556617 2.489552731796029 -0.7935517074571817 0.2630765610143534 -0.34611779380724905
Ni 0.8782761444029902 3.438393228110051 8.288843677085726 0.8698615350635148 -0.13922189374952149 -0.1293077199596031
Ni 3.5278906312211404 2.6150425500470558 7.375394344837361 0.38068164782504765 -0.5816434417865274 -0.8681689778524404
Ni 4.374628341251971 6.870637710339626 5.875008618341912 -0.29104964918851167 0.7152497891214843 0.030962252709469257
Ni 0.777297752122758 7.347506103920687 11.609443463989232 -0.37184785158350153 0.8638400114597833 -0.9408718048338055
P 9.25445290237925 5.879163790041052 8.070095457689481 -0.8020656584654638 -0.8124891677916329 -1.7518041696612798
P 8.522397931244676 1.6049225805717968 7.922358441455846 0.484876631877423 0.14085043049188 2.4436517778087397
P 1.7750802675300137 3.4018186348151085 10.368934436720378 -0.48643266351063325 0.6643080079662946 -0.36731088294509645
P 4.0101448539116875 6.255590557784328 3.7423710578711 -0.4779986738106671 0.5684624243198791 0.09138112011715875
P 6.566124930604632 3.8149199016209554 10.494499638414254 0.6283351894161114 0.8811481637209277 -0.044173866303736826
P 6.116676129066637 7.648195217458221 10.19377328727242 1.055808600783717 0.49349728366689855 -0.03787954865459283
P 2.3320004280099127 8.943918529558944 5.766896954252927 -0.092751260991808 -0.5864925423487125 0.027596164450713764
P 6.956456764733443 3.9430535897771617 1.657454849659938 -0.09437131309373424 -0.7267935280950257 -1.8638117077795384
Ni 5.155809703032767 3.1976929868628305 0.3090457768826232 1.7443453993903895 -1.03967081468159 0.0260658438491164
Ni 1.4655267877009819 1.5498018438677978 6.800076083131348 -0.29573317070711 -0.8259450361862226 0.8143969263373071
Ni 6.711751210438528 0.641058073274787 9.263122906540994 0.8797512833734009 -1.0823323581058586 -0.7103245839057251
Ni 2.838295611329144 1.875758034273106 9.348928337421047 -0.7104906771699441 -1.744976605216485 -0.040661739385420295
Ni 6.3910718610325645 1.8114096375771378 2.5578247004570867 1.1433441219025406 0.9205174095471697 0.0967369851124334
Ni 4.120495315429827 6.8272967718734066 10.340501255252997 -0.5916226644864263 0.40187113741846914 0.3661153199750985
Ni 8.256330707362052 7.103390901889036 0.4082440300305465 0.3679181775117922 -0.07585577078805002 -0.4201213418779087
Ni 7.619821979451417 4.117697953936198 8.45581618652506 -0.3089293576824099 -0.09945155583011905 -0.4378287864600008
Ni 2.869057505416547 8.3160380270345 12.52137786150663 1.913287703022479 -0.8168155630811288 0.6279173851524025
Ni 9.271164412600926 5.090543989743108 10.187166791329352 0.2102571032204766 -0.45865600761799724 0.07399197810643386
Ni 8.451573824337808 2.0485586829022515 5.836817368079874 -0.5193728658820798 1.6916187584206352 -0.6113255422319923
Ni 3.4553317968945216 2.7365552105121735 11.487561152183885 1.529036335568302 0.09288367280461422 0.8585934183488633
Ni 1.1843556282212657 3.135878563727649 12.507926004012432 -0.6989263693711124 0.8658698974056185 0.3233002816921013
Ni 3.33838755471283 8.20858483277762 7.568739252228156 0.5301992670736223 1.0627516077604535 1.297825512914294
Ni 5.6827399685387645 7.772632392212132 3.5549405719239777 -0.7027439433449898 0.6382889581947135 0.19773531660438204
Ni 3.1094671117033896 8.672865099637352 3.7887500399075096 1.049590130677831 -0.5436538499166315 -0.9795082862590808
Ni 3.6623910414781053 4.392157262299708 9.327340517504794 -0.8539068115064713 -0.0008844594874823478 0.3675492242081476
Ni 7.486257050473165 6.164703556268936 11.287621555895287 -0.921128046547975 -0.43348156523489856 1.0756055809049863
Ni 0.6884679011862839 -0.015365507061431093 13.622723603872974 -0.16046794761249136 -0.13709122055976392 -0.0776858820182533
Ni 4.587354967562906 0.08993426378590663 1.5294837354346924 0.7682862480221737 1.1950531202410581 0.6816585834296002
Ni 6.029694534831311 5.722811263700742 0.13881179824730724 1.0162254391744563 -0.08928284282723334 1.477465405469546
Ni 7.578188521377412 8.734670440430023 11.403018166912972 1.5888304249077991 0.27437630229788873 0.7354229216352496
Ni -0.033840808198896004 4.491726983256363 6.13718496669249 0.6093131397876539 -0.44165921594968455 0.10354629472478297
Ni 8.104292293714838 -0.09718288134455905 2.310044773221933 -0.5075751019162034 0.6200397821765385 0.3430697510095447
P 8.553686601197763 1.6664826981166485 3.7410677417206593 -0.3629027265750718 -0.04270216685421678 -1.9481438914697158
P 1.837821089601397 3.0477071826232787 2.0004522393201007 -0.20281118846539264 0.7196507464026574 -1.0504072272624878
P 4.788592430596437 0.8036665171372117 7.952506369189451 0.09461248257026288 0.049914368331939844 0.4169457723634045
P 8.673546275325736 1.44114069805685 12.290426606711558 -0.5671516759282554 0.27712352602572277 -0.1680365039883687
P 6.4950646827924565 7.7370205272234385 1.4955475626394228 -0.8433472908230701 0.3881537878323767 -1.1388287505306904
P 2.213512187601218 3.5165286207389026 5.982215681116725 -2.2617580562223045 0.2658548950904389 0.031131688407797998
P 6.902389579760811 3.8764436897957597 6.004600930705511 0.024690560768144576 0.2979062670990289 0.419418145163297
P 2.507934484805623 8.312650313277606 10.2555858939391 -1.4892994219899964 0.5249125647533863 -0.4251074822385905
