# total energy = -381167.50377236155 ev
CRYSTAL
PRIMVEC
9.21938225974841 0.00000000000000 0.00000000000000

0.00000000000000 9.21938225974841 0.00000000000000

0.00000000000000 0.00000000000000 13.49349784658028

PRIMCOORD
 96 1
Ni 6.7929885177540505 8.869755833471672 1.8519554398776872 -1.8938784452579318 0.26001489136989414 1.0187230087853294
Ni 7.345893323549183 0.979079980087898 8.82337127636308 1.4105812420524868 -1.8703901323280046 2.287306337005054
Ni 2.214680058162252 8.903397360123217 3.898878692585247 1.7577372473162631 -0.7064766709145446 -3.3185161654034845
Ni 4.512251584157894 0.314947934422237 6.892937687042822 -0.2636398897169911 -2.0624312267610865 -0.16622464759061048
Ni 3.4750987138595053 6.213338283398729 7.226362185883355 0.0677933054948897 0.5414139048425193 0.4742849724045058
Ni 8.326485282362993 1.2149210031827635 1.8482040731485796 1.1638527833788537 2.5080481418069387 -1.1312825627523162
Ni 8.175951205309985 4.220955975475459 10.743671842404986 0.4132459549143141 -0.04024162112886617 1.7582252426962752
Ni 2.262454898148085 6.450285632390604 3.8339345966160843 0.08912523420344651 0.3054442273472869 -0.7759525063181799
Ni 6.3592073529193485 8.665684802385911 11.298389178794718 0.2186550974761847 -1.473922425313294 -0.6380300481063722
Ni 0.4802099749791742 8.111498502426745 -0.08749562744144133 0.33715852773143223 -1.4223676931644536 -0.12938973815044813
Ni 4.856162208625576 2.6116851063038844 3.4412875505704195 0.0056602836095708976 -1.3001747298727608 0.3356287213504672
Ni 5.608012068850327 5.730390151824458 8.091902704975976 1.1037033675824668 -1.366683255117956 -0.5360259010577284
Ni 4.650468566224201 1.1362612319054328 12.095085803131218 -0.5672496349587004 0.12420999372172158 1.4270720406186583
Ni 3.347327292137456 4.82119309089762 12.170554746133925 0.7801002099379661 -1.57348839523409 -0.3521747986346064
Ni 1.7573894680161117 3.3837346335315233 9.945247505792656 -0.09234862623675062 0.38946479333431633 1.4989685696486443
Ni 1.137496629157093 6.736418386886997 7.8291161927212105 -0.08612295704201296 0.711244267506517 -0.9732828741746593
Ni 2.8840625421474675 2.56810508534421 12.902847530314302 -1.9499549765365256 -0.01185895622111506 -1.7666422631153766
Ni 3.390206640029025 4.325789573599525 4.347591569276579 -1.2024321863139484 -0.5055724696638777 -0.7025567670348482
Ni 4.31288243813442 6.554483093123888 13.437001034093383 1.8498444469661688 0.5364573321681922 0.13683513868489983
Ni 9.145489124536182 6.086848355840715 4.355647465683298 -1.08946099873084 -0.055265348231208045 -0.5519651979958042
Ni -0.102051188493088 -0.05424869035982984 7.615554729315609 1.2260233433703271 0.576584282096065 -2.072999489195236
Ni 1.0237017912672557 1.1086030844802113 13.292957402302827 0.12557653505194502 -0.028206801451519162 0.29555473614771677
Ni 8.13591142722074 1.9135289296139633 5.581329332090968 0.4212364293189584 0.2807927473471938 2.258467301286175
Ni 1.7661939782798073 4.366161249457873 7.763754458725927 -0.0882798554840157 -0.6821535207881478 0.3672697452945159
P 4.4462131474889395 3.8180597419322546 8.55692927895695 0.1386966173736708 0.4083827132847419 0.49880352637116027
Ni 5.073896364539396 5.220751907984848 5.643142525771596 -0.004970456631397891 -0.034403417180534294 1.7693023264460432
P 5.550916433182194 7.315524677676289 6.304594496951753 -0.3775598143666143 0.9210498850118719 0.1444710579636028
Ni 9.19825165044103 5.266950233567443 0.28815917476441477 -0.7569777649878898 0.2607458559986477 0.2783895372223399
P 3.07091176676979 6.978362641180362 9.581895047561538 -0.5377757938692996 -0.7396544432180939 -0.7240401337196046
P 6.336186554879089 1.633167508546966 0.5158926729107002 -1.9425435145638026 -1.1040260410292082 0.6708324393483737
P 3.6455466570586714 4.888586776790411 1.867081680704541 0.8537173212034845 -0.3895216147141808 1.114458292106126
Ni 1.4165028010002543 4.416139521855248 2.6112213713653882 0.7173300686892807 0.9546999689661493 0.6868123597163978
Ni 3.0740647955762657 1.757158983454235 8.524827389178743 -0.8595768653080551 0.054147946797313204 -0.5245574954068127
Ni 6.439074863300914 3.2003979936322033 9.652128303256651 -0.18790110412277963 1.892969046069785 -0.9378510157296106
Ni 3.8623404359600344 3.1822726876862077 6.7142706643671275 -1.5716662544236868 1.1954002191678317 -1.4138534850458555
Ni 5.558771347050958 4.781577404402228 3.6053141938756967 0.3654314065341965 0.8806138884840125 -2.9270801072754105
Ni 9.003870190336572 7.8659679083505765 9.451048961784052 -0.23402360951245504 0.10336194662811876 1.79026633029222
Ni 7.255543375293459 7.306323733966165 0.27782055925686694 0.7928446540878281 -2.4000934336018154 -0.7199590216716956
Ni 7.012345284983484 1.2950743144210557 3.8486966718351727 -0.9433747737613172 -0.37360185816013075 -0.9542587676636727
Ni 2.7530090202642925 8.599139299680829 8.164793908638652 -0.5492100038481703 -0.1146730007655638 0.5512424608971668
Ni 6.678013598907404 1.7564767491510793 11.240272957486594 1.3798411326561526 -0.28547729730705673 0.8975682569501638
Ni 1.0907543600084681 2.9518618808691612 4.980018158610461 1.3620763524735637 0.4625962232126678 -1.8554836475298173
Ni 4.130965583136263 0.5612916780327066 1.8242668684902976 0.09439008214681163 0.8865469661389959 0.03032256224294132
Ni 7.853042334120523 0.22911732745579405 12.98805859477842 -0.2945196100149831 1.1307639712446849 1.3360866132780216
Ni 0.48135502228257837 5.536017911102475 9.60722253509706 -0.04543782061782497 -0.42732171628108984 0.05620045845096772
Ni 8.886977639935111 6.556409944061179 11.763806654592635 -5.220088379761249 0.9575392381871575 -0.9368485426070253
Ni -0.02058872494333503 2.1527258079297558 11.546197882280476 0.11743076601635904 0.5840579647652908 -0.5580959934838905
Ni 4.441548139956552 3.021827774472497 0.8522996419819193 1.7293846643154989 0.3966209447631234 1.1800540757290645
Ni 1.769531394735784 5.445640304699325 5.757135580384648 -0.4295966283581956 -0.5728453838789231 0.16776628104611752
Ni 6.870136310305469 0.13161313839941247 6.682182603662633 -0.5443375062472173 0.4034119995430278 -1.505434379878646
Ni 4.393911590707845 7.123715425282376 4.36830383394508 0.02053925760393237 -0.4724011251182316 0.09337423928778757
Ni 4.570637933372537 5.193877408070008 10.189561141382114 -0.17281644187551526 1.4728484755228248 0.6288527524824783
Ni 1.2440173742740968 2.1046651670871954 7.02026196871483 -0.12988647528120856 -0.31268548229073245 1.1682475700124397
Ni 2.963487522170229 8.688926865605573 13.055431998029766 -0.979112850592875 0.37044248659554263 1.4647919237669356
Ni 4.199677640722989 2.7253600922215457 10.391572562422944 -0.10087414720925852 1.0859257318840718 1.0586602112998995
Ni 5.754120842315299 3.8328107538923724 12.09501850163915 -0.18821452159814037 0.47936881468531634 0.14833696867691226
P 8.48465300810536 0.13017399279505343 11.003758919471046 0.33402975229446347 -0.007907941993167026 -1.6439237663375172
Ni 2.345576850543351 5.897500678567647 0.5119458552731211 -1.362480272780202 -1.2403505586262766 0.6819095230981418
P 0.0034913801433104855 2.800378207421222 3.161472838884194 -0.6185783671396636 -0.22576445482745633 -0.011966171222940681
Ni 6.355325992897342 4.912704681345203 0.806855461885785 -1.3008280471860436 1.3565050290333733 -1.7893757001571506
P 1.0420299236277026 4.135058988955195 12.244917363239624 0.2655661602054265 -0.4746295002281181 -0.3081760244561531
P 5.8735856004273055 6.115686584222747 12.09256245814779 1.0625554325892475 -0.26336349612715293 -0.7586314985412289
P 9.031712725411294 7.636709524342913 5.906913668074698 0.3589640536422979 0.26860237592858904 0.39205929353436997
Ni 0.6387510857117825 0.4354729215188781 5.145934775323129 -2.407135685160577 -0.27998722072676296 0.6001422719216631
Ni 7.4146791361957085 3.6780541996657825 2.162360062616208 1.0837179255994756 -1.2821160725988372 1.1919528840491795
Ni 8.861541363686381 4.146583217049038 6.223174442561386 1.103231313042055 1.160268665572021 1.9472905423304852
Ni 7.0513617116179965 6.438235899495682 9.968942240691842 1.1733100721370116 -1.762721587904732 1.3960182566366475
Ni 6.536320909647993 3.6052026393477483 6.820004996159008 -0.4471102117619268 -0.6258178223108964 -0.09640377014273074
Ni 7.7834175576687645 2.913785831247106 13.390691153982837 -0.17495739947791805 0.9903228603760815 -1.4978573388623364
Ni 7.297297958523068 5.917589712980834 6.304836966710848 0.5811719014667476 -1.236279730991013 -2.2028455981568125
Ni 5.354903142379648 8.67289435948142 13.507126423013537 0.13345696624128628 0.09417488081221201 -0.04334237154137696
Ni 1.6221226883418274 6.2971793476270514 11.886827328525278 3.847982668076141 0.3284270613957053 -0.9911939501271252
Ni 2.3468122477950115 1.9613498665121714 2.897134704558875 -0.36940813179375737 0.0355411303294033 -0.11185944257616864
Ni 3.488319308328761 7.584149824852517 1.979549849456215 -1.3568924942797793 0.11446576985076416 0.16912768017001842
Ni 6.805333270888174 8.087804689465804 4.3178249490793075 0.6532280960030491 -1.1991895110069348 0.3312794432428359
Ni 8.662771477523787 2.701343600873978 8.129562960448403 -1.0918230712051131 0.9947659837490996 0.5141201021235726
Ni 7.458120866418257 3.866664326340844 4.512738367552578 -0.16148507602309609 0.13701794411966725 -0.5914735405030717
Ni 2.704330680795902 1.1684460961259158 5.707115820766134 1.814451669289172 0.061424940074700674 -0.9774069236453617
Ni 2.1465672604364063 7.886674641389592 5.9413757197665245 -0.12236317032096991 -0.13639548004431992 0.08189760610675573
Ni 5.596865835437963 7.7785958206343 9.083809611901444 -1.9522031491407539 1.4792795758601491 -0.7674686372168846
Ni 5.573190461241974 6.778550964798084 2.1620493694267977 0.9222649883658954 -0.37362936896395654 0.34138722110079917
Ni 0.7585827752462981 1.320648881406911 9.379128559096 0.4398555870820425 -1.4129487138433987 0.6046229334008361
Ni 7.478117707006692 7.472337154194821 7.756697021441258 0.5207720602224515 0.6263505548859148 1.4001117099797307
Ni 0.5186280636910546 3.020195943774409 0.9985144383453538 1.145244167138731 0.17095702006927332 -0.2801702832718465
Ni 5.515661514597512 1.8144482261543442 8.187598051190747 -1.8572865050665108 0.6199302531818678 -1.1240197105423158
Ni 1.5360966304669128 8.60243061922443 10.903637347729994 -0.26371419459835227 -0.4110142373703179 0.5651300175125363
Ni 0.9342553424940887 6.864816726617351 1.8912761061338774 -1.2588774137858707 0.73705531503235 1.5497298593619118
Ni 4.465583070069069 0.36424489445470465 9.875459546271088 0.6388291469688998 0.9248708014198587 -1.278820689677017
P 1.7994943877797742 9.280322593234139 1.450834859399182 0.7376901204028715 -0.47256593283086995 1.740653295250783
Ni 4.012902171160466 7.909584806840151 11.243254505779033 0.7614705106519207 -2.148964788977957 0.4620678615130236
P 5.190862670000659 2.0177079515822984 5.638312491292905 1.4655691682525922 -0.8563537303850671 -1.3616953149850612
Ni 8.804547141225473 8.590113524237731 2.9376962996962104 1.308855031255578 -0.9415906852777011 1.5023002051250385
P 2.692234850988605 1.1499612342633927 10.7995348466362 -0.4189895422663107 1.0473609842369962 0.37788660157841375
P 7.737505032942897 4.598987534483389 8.591202333308038 0.43335686673157625 1.5278068340365751 -0.47799995936224765
P 7.822738223924954 6.574415398034998 2.5251058854804653 -0.22588941044109487 0.25236585946506856 -0.357150654582643
Ni 4.8497916153353 0.13845392019591732 4.419619838739589 -0.6336959395073926 1.614866443960245 -0.5985764700964401
