# total energy = -340888.9549186518 ev
CRYSTAL
PRIMVEC
9.11168022396809 0.00000000000000 0.00000000000000

0.00000000000000 9.11168022396809 0.00000000000000

0.00000000000000 0.00000000000000 13.33586503053334

PRIMCOORD
 96 1
Ni 6.884840150778454 2.032168900178093 11.271233017639286 -1.1236800678147099 0.7100793006641384 0.6744198995893159
Ni 4.878019944628024 0.7622120857443554 5.897292571582735 -0.36194473353717665 -0.9019846408503047 -0.17832168796446063
Ni 2.702934342140844 1.9307012306266744 4.604820795631258 0.5402563941993083 -1.4031021600666223 0.06577241841011898
Ni 3.928291304839642 4.667248560642445 5.1047686596623105 -2.3450247747624453 -0.37275725077164834 0.7492073770138516
Ni 3.6334191135660254 2.940940537934001 2.6392072515479366 0.04323618498081586 0.25192645793480484 0.02625122038704511
Ni 5.400729696707424 4.3823445473940845 2.563552971709087 -0.007460570043103281 0.3380170190769856 -0.6744317266638578
Ni 5.4187070415372505 3.289571641775269 -0.2551616670783049 0.48453750337044943 -0.9286685778993942 1.0555633175421306
Ni 6.250621657681609 8.45642273377312 12.522790616454742 -0.6983319303202231 -0.4190355650128977 -0.17354020741541726
Ni 2.367578956199757 6.827946820257706 0.27906798214673667 -1.535618102550878 0.006918581496704213 0.2771525794914453
Ni 1.0483625768298779 0.37505133144824476 0.04967961338857734 -0.05641077468956091 -0.6637732185087472 0.0177570668731049
Ni 8.392814095021464 0.01718827333349454 6.977751041551519 -0.8096588974316895 0.7074758016030203 -0.7670857999561692
Ni 9.188127092219338 2.6586515768732535 1.1103065116279567 -1.358943206161221 -0.3193580092149016 -0.48104363128457794
Ni 7.127493303420679 1.086859425236374 4.738165677999274 -0.7912785951522888 -1.394019995259696 -0.5101130378467086
Ni 1.089301355502159 7.690886707129667 2.618696859651363 1.1185232062041188 -0.27845587168390107 -0.6659956800813627
Ni 7.78036340567447 4.022524300394668 3.471272210413883 0.034484664040430935 -0.5464825776146782 0.7415727432867293
Ni 7.778850866778499 4.187108577972547 12.49073117003622 1.0564531763462515 -1.3801370666300166 -0.017786891669775817
Ni 8.381870967225913 7.7540124268362245 9.028780208360763 0.5748842686858229 -0.8000907941272801 0.14696117137530817
Ni 7.639742846749628 0.6657786194460945 0.545120840444044 -0.10750142271778905 0.2827889518416162 -0.5391289654630844
Ni 1.9464917722334103 6.788229006718317 9.175435433013325 -0.02465507954451883 0.4543393825205143 -0.9768065710572016
Ni 0.2020806635098116 5.120764214071212 1.2575558178227926 0.11481646832196354 0.1656453780483728 -0.5609429760143824
Ni 6.867455065154881 2.1901198746459296 6.853954288756324 -0.1663899695238812 0.3137329497186403 0.14466774735544116
Ni 3.581500760377809 4.674337447757298 0.5437540884296121 1.3617814469409644 -0.12810212968727616 -0.689006024933607
Ni 6.002082359697232 5.504402392842126 4.514616985014777 1.9537689509659772 0.8678578743699247 1.3723725921932495
Ni 5.243853900490941 2.953578438227447 9.369125150322535 0.39873130623790687 0.04319993242624173 -0.31796884217685883
P 0.42117192259124164 5.8683228958848375 12.263288144978603 0.1127996950022509 -0.9166103611832794 1.0831947061061538
P 4.2175324778137995 6.349055137760989 12.521976943422152 0.49628204550088734 0.7581771846126297 -0.35616309385839307
P 2.6742143264775833 8.774921511536215 1.341775076952081 -0.40482430650952217 -0.41994779241452196 0.43663373771063513
P 6.533047293943801 8.142261115735824 5.845229342680988 0.9452082274256303 0.04124203736892252 -0.7788593955523296
P 5.167479797924491 1.2479721526975966 12.499879296852816 -0.3932494571877292 0.21952130213122195 0.2559834016129978
P 4.267983850506526 6.35485016630218 7.7195584308884175 0.46462559493787076 0.5279487804765488 0.7071389870888919
P 4.856243029198077 1.4343151223452306 3.638157187216056 0.10487272684569035 -1.0149871958919812 -0.3881157355055897
P 0.24001623242238115 5.778126374612434 3.505811856154594 0.035564013147538744 -0.09305953626084618 -0.37687358693286704
Ni 0.80225245275915 0.03480023979146295 4.7490213336659 0.22694947627449302 0.7613296141986824 -0.3967515568037167
Ni 1.9803143287505496 6.565083961162082 4.701532168172453 0.13745888831182776 0.8332716517546229 -0.28762416844673044
Ni 6.112515922463323 6.113190186790442 9.159978378898112 0.0007751876031276973 -1.0355318528125521 0.46332230274541497
Ni 8.97370192451518 2.920202354035022 10.355872724005806 -0.25996552618919744 -0.7850650101424093 -0.8438944215757918
Ni 2.3957704944174374 5.671319260524635 6.820214648528061 0.6511856116517236 -1.0825974388417872 1.1559003613009964
Ni 1.1715433800505695 9.216191066915673 8.679473929024365 -0.7520864983338597 0.4808148031032236 0.975080075284398
Ni 1.6007308476224489 1.5224341805556982 11.1819093953201 0.15820254861708238 -1.1087280744905679 0.1483721927902219
Ni 4.558865125898002 6.7456501256287185 1.5016048798557573 -1.0295386113435947 2.2673679462099146 1.5592401128451918
Ni 6.199231781938973 8.167937830246949 8.039979773151813 -1.7496608980660318 0.5394351838495935 -0.5049024401800467
Ni 5.449896322506586 3.0487499368323827 4.8975699654424565 0.7885820221567322 -0.47060803777355076 0.09075505649738563
Ni 1.1405727794035445 7.6921350073028485 6.828536345959931 0.19011379550338225 0.3416530731676761 -0.7459544172941927
Ni 5.484274691509593 4.481698307163182 7.209461977566203 -0.11378571306460404 0.11162341530596259 0.07166667240736689
Ni 0.7737802747945064 7.697128207995572 11.269179244945601 0.8081195779690277 0.25958371736974645 -0.03565760130260956
Ni 4.865199810732653 0.5393777484794015 10.379023680794262 0.6391991287138088 -0.5881439619092064 0.3234020973772882
Ni 8.433142391127298 7.307266751718944 4.74144679400192 -0.748978291722181 -0.040080155850337425 0.45485823113846174
Ni 7.307667665643178 6.293811021337656 7.022946797164751 0.6215639321305488 -0.23501554111207915 -0.9360905813950782
Ni 2.380071069611664 5.495017362343027 2.5874775101377114 0.6785598898996185 0.5597497270372295 -0.8892977894112556
Ni 2.547826211863025 5.867220382593197 11.219209880129963 -0.583312344848518 -1.097413163698381 0.8669934694871004
Ni 1.0606815683199566 3.6985494028937502 3.2648598541863323 -0.15790995707732805 -1.1735643542396628 1.6136803940719435
Ni 1.615045297053598 1.3662690953867185 2.3915736545651223 -0.13677368931934508 -1.0561796109698907 0.4313863732687667
Ni 1.4860603536116193 3.583696675280996 8.182940211525363 -0.4609545738441868 -0.18525723874202935 0.021240911656647286
Ni 3.6433690682310895 2.6606196997740352 7.109563339327353 0.5496563473569696 0.7668060639322214 -0.6065849422232135
Ni 4.351692855550427 7.176359243776664 5.477026349993056 0.45194697102893777 0.7011418889651925 1.5471245605285806
Ni 8.773673211363034 7.402939392729172 0.28558374458353797 -0.46010405291843337 0.5468343045271422 0.7734130277257777
P 0.2957177551865451 6.053754697522851 8.026296763151331 -0.5025287977415474 -0.9603844209454363 -0.5064199052658376
P 8.867578186434596 1.90172608792072 8.22698880661448 0.9125796427573316 -0.039133218556035826 -0.7249708730639902
P 2.100005358494392 3.8371016104367515 10.360967064347598 -0.4590265035835385 -1.0830196139808703 -0.45955769349666015
P 4.178716720603936 6.1315593338644065 3.5857477144706538 -0.34409947782563965 0.6967252479547356 -0.9404858822492964
P 6.963082147764628 4.242015562232322 10.003192389529783 0.4957752810677978 -0.5358960603480836 1.0179480782925179
P 6.707745536428476 7.916783480074958 10.375995869498292 -0.7856311670585244 0.1390725126558508 0.3722761973701718
P 2.8181242019171573 8.763067215731043 5.517833920471952 -1.0959712890455318 0.5880213202884131 0.5483859652849781
P 7.194773949251109 3.922304931016431 1.2932453575916458 -0.3277038100764356 0.7216618632954153 -0.6371450743982575
Ni 3.152796211851029 2.0830576335154376 0.3099720675290593 -0.8548072118335537 -0.05295624048205718 -0.69094772204101
Ni 1.4638643008972465 1.4496774149874443 6.721262713851206 0.26723403482615266 0.0044662633014697275 0.46054268311774876
Ni 7.049451763396623 1.0734652554949422 9.01769858302775 1.6499563456848423 -0.28937200437577265 1.6948184963048554
Ni 3.0615062889670797 1.6443302368828239 9.154111368084159 -0.22127453737690278 0.38772801314886773 0.24428771044262446
Ni 6.430750461503627 2.062857038742135 2.2301165055962624 0.5324422974715283 0.26099988099098276 0.2551567919466444
Ni 4.1566482314109106 7.299130021393027 10.096783011638024 0.8786991879598027 -0.3200650625842552 0.35211951991663876
Ni 7.364934575047871 6.341483331601037 11.964377657086343 -0.0620890560212608 1.0304742357839867 -2.098091399166858
Ni 8.04965911091802 3.9853121988817377 8.051075066004971 -0.022439045729806515 0.7868562977148771 -0.07438021468378804
Ni 3.4868850742587423 8.728497501446014 12.567639217056307 0.23881743135667255 0.11735234736993984 -1.1811308537330112
Ni 9.099844023767139 5.162632384113305 10.080446680393525 0.20545094008108486 1.8644231161112923 0.28612110153864273
Ni 8.931824642792987 2.5741680790211743 5.3070078664057965 0.5293950260047722 0.6147085997716123 0.03571210868962882
Ni 3.67175195173079 2.6010566469850964 11.387415139378078 0.6899563046620182 0.7843057633788815 -0.40536140995991476
Ni 1.5393272354540755 3.7728460423982635 12.5065071329548 -1.0672926901639168 0.20735458486170097 -0.28463294702889047
Ni 3.4976368567722727 8.678702169720216 7.882976413413982 0.5189067248789385 -0.7071366730960467 -0.7458168632750639
Ni 6.017708891062235 7.839789783261966 3.62236755677733 0.2536724940916341 0.22253643480846189 0.5433915973941803
Ni 3.789629757135486 8.570601197058755 3.401312730635166 -1.554571246614613 0.39315741169455515 0.13535418326399912
Ni 3.5722432934000574 4.713034753125911 9.072362285428953 0.6482923492643287 0.23973480096461935 -0.3458503990784753
Ni 5.2260770126232305 4.754884699807813 11.244147637385286 -0.22869345554879322 0.4784211060600663 -0.34712309514331186
Ni 8.248840437821215 8.777454558602962 2.651716677152026 -0.7203691126259206 0.8864839741115442 0.6790196031448564
Ni 4.596979283740458 0.6625303054917949 1.2803404850713807 1.793569426523524 -1.040982334404162 0.8651420181006584
Ni 5.941261895055016 5.56156907376576 0.3575851518718157 1.7925890648881255 -0.3042656336581534 -1.215161718065475
Ni 8.398827803884963 0.2667590135047637 10.920726730034216 0.13855135004505817 0.022925755558237938 0.10065354655802021
Ni 0.18204772365027966 5.123670840021902 6.009767150690378 0.08199402247530395 -0.6305941606536172 -0.900179726431082
Ni 7.3172167063840075 6.118793870049613 2.438423180115816 0.6571384868010489 0.41977989937808996 -0.45635358473706567
P 8.482463915488095 1.811010200882832 3.203568315683142 1.368466572270624 -0.2252749167855475 -0.14956081378168434
P 2.042528880447486 3.5920794209695113 1.3438288496457675 -1.4947257352118901 -0.23594936578025816 0.446011065160477
P 5.237949531788595 1.1083629902634347 8.1328642400526 -2.693757123374406 0.8338236676033511 -1.287606406289447
P 8.85850295305877 1.8644319812869237 12.362987237423345 -0.24784303189405057 0.8572857552810332 0.2536190151458793
P 6.554979107935384 7.953658449424329 1.498177976971572 0.3958082190538409 0.10568031034865025 -1.3847298282070217
P 2.0128339150139305 3.6135465392761867 5.648511814075807 -0.724840518133713 0.5959104932285028 1.2570701853738027
P 7.254829032765244 4.1912452807362275 5.808142982353386 -0.036580113116878935 -0.3152162191323862 0.5279269260996778
P 2.5517806810247814 8.764461302785763 10.298701487242123 0.28985254355661694 0.46063061484586476 0.20780684190777113
