# total energy = -381163.2878317054 ev
CRYSTAL
PRIMVEC
9.29805196921739 0.00000000000000 0.00000000000000

0.00000000000000 9.29805196921739 0.00000000000000

0.00000000000000 0.00000000000000 13.60863891845594

PRIMCOORD
 96 1
Ni 0.4281399654824139 3.7040557072953626 12.040937456247736 -0.8401830341624755 -0.28394646248482713 0.9134993263581236
Ni 5.689524555305682 3.013517273798518 1.273469580517835 0.41636624571085074 -1.5736388047690253 -0.4253620214515578
Ni 5.277751021086697 4.711369476955026 3.4937188924625002 0.8025775651048759 -0.5032584768187204 -0.31470868336834834
Ni 4.228949343065811 6.715201977814608 0.7176552725700567 0.844169015393417 -0.07073567595266528 0.0025911577659439244
Ni 4.13667547426779 4.125229572162755 8.446065985060244 0.5292921818783207 3.015681864875219 -0.6158640535322942
Ni 9.070854173109858 6.7498093276399045 9.775602819593807 0.35181381575076187 0.10183085469557301 -0.131073039390142
Ni 2.199054402238388 7.9522985084179965 3.8779859992263055 -1.2499276607917504 0.16786115475276897 1.9429289229276796
Ni 1.9291319504844002 3.3757786807150567 8.083381516774267 -1.693898298483431 0.642244600408352 -1.514817877976075
Ni 5.484186373268649 3.7475055046445322 6.14522580675052 -0.8574991568434199 -1.0017226175725908 -0.41854525564004047
Ni 5.991264941262292 5.188833749087959 0.5311828381943686 0.010165370568776042 0.801430081763994 -0.6606868662739396
Ni 7.961921992316217 5.243404016719518 11.109861204971345 -0.04129628764562565 -0.3708687754996839 2.062191599946455
Ni 0.7612240849857934 2.5603395136869915 0.8401589682761931 2.489120965885133 -0.9549840758654714 -1.2432152817685815
Ni 5.226686119087631 3.1248149571431694 11.39963034888065 -1.513526669968477 0.32775471791902905 -2.088540522253629
Ni 5.912817275900653 2.9849815519785734 9.000114592918871 0.368835547119739 -1.1738767432737591 -0.9996022287954784
Ni 4.7704307037390885 8.260361569786 11.821906032919 1.7629085071045576 -1.3609486666270239 -0.10934181836063749
Ni 4.890691709284596 9.063908528209401 0.7668438276602718 2.116403052991852 -0.8621333131813217 1.438264309790052
Ni 5.5369621168496215 5.439183801222858 11.050446652208413 0.5547155070474318 0.03730516420836156 -0.6274090780574163
Ni 0.49020353328168 6.907560079154137 2.186649870964361 -0.6423263614888809 -0.960425815706333 0.09667784973972383
Ni 0.9204764719102312 5.797698093152939 4.769501828336739 1.0077374563081032 0.16820825367954256 0.5724088105621368
Ni 3.460614107852617 7.072637695703923 9.351367106177927 1.0492489452883282 0.002812786858446769 1.1702445458378103
Ni 8.339692550094817 8.831131794497344 10.961718130666808 0.5724692314864269 0.7095509389644942 -0.04375040561307304
Ni 6.928759637886451 3.53564938810252 12.729847800826146 1.0802199397485461 -0.10334754845041556 0.6238928373740417
Ni 4.248558934893203 9.273598198617805 3.373200330874499 1.0386971379144112 0.5028157328543469 0.04529949526774779
Ni 6.898457286172147 9.275085886949897 13.053025775648205 -0.44934064375434224 -0.6288162428175881 -0.4328580727182868
P 6.973734315776015 6.770729944809951 12.441358068882439 -0.519147637245151 0.6143722994781161 0.4567112251868005
Ni 3.762019763934507 6.046504668643293 12.220408457410514 -1.1958686741638178 0.09443096268707608 -0.30804078442986943
P 3.3028540582863095 9.155243293747791 8.475909942807222 -5.89017648474443 -0.2617735259322137 -1.6275900621745
Ni 2.734055020614988 5.913105515514997 7.63874680690978 -1.5134024856857873 -0.630583619130656 -3.189086318043721
P 6.094240867999304 0.7993990973924882 2.4387767808509033 -0.7338288376752523 -0.32622388309679945 -1.2113117481917655
P 0.1506972492096997 3.857817594469173 6.5494567611257954 0.6840332543093638 0.6294189093985934 -0.9928060318092514
P 4.224123654038587 3.9419463696489894 13.2262363983485 1.760820514227277 -0.658636154392498 -0.32968973015821285
Ni 2.2622904544043845 2.4115706804777663 12.43479829314312 1.5805776979807038 0.13672355280770002 -0.24096995892330114
Ni 8.388256276085555 9.234881109775104 6.054987281551842 0.5665086430276179 -0.5928048577199855 0.14964720284790356
Ni 7.209607300829242 5.841919628824382 2.503567467323936 0.11040908328288726 -0.13900334998081224 0.9550064444629744
Ni 4.305834935678754 2.5259925093198112 4.296696810098878 -0.06259222090992446 0.6309194052035199 -0.5542946174599293
Ni 1.9543110755050617 3.805739204793868 3.5978793910339393 0.15544195515280973 2.225630457261812 -0.5175898058397279
Ni 3.019421536866509 8.145456242236024 1.8712971367691063 -2.0396353119124937 0.7347302664435992 -1.5816490766680116
Ni 1.1134603321544454 1.7502095343940804 10.00051247144472 2.2398034063280843 2.069751414571584 -0.04399234642055004
Ni 3.266108156483631 0.9542404884122723 10.781267114815261 0.5175304133567022 0.17536003423297541 -0.2096125276579422
Ni 1.7845286446050335 5.4021217656496106 9.506627839346319 -0.5283989806400899 -0.23905140174434958 2.383165804608541
Ni 8.8187746832889 7.803883001187643 13.189751771809144 0.5254229287309016 0.39314532750969705 -0.015163338003999691
Ni 9.448308597117888 2.3484555029887524 3.2239414903208914 -2.2598466981322045 -0.3574213917455264 0.6798793800419903
Ni 3.6218330327910393 6.047722713465194 4.282502403800303 -0.43869704799756704 -0.41090290860343426 1.3279351878154806
Ni 2.3046244855044846 4.637096636975321 13.510561532767557 -2.118493616972293 -0.04512543158372874 0.2048899253712923
Ni 3.8312623577413265 1.886955986269585 8.296861073208674 -0.4455793769396971 -0.17608328555224514 0.0682015966769019
Ni 8.162136947659608 2.996734289802102 8.018250521595268 0.2344216162818221 -1.4573418952467936 -1.1003699323338598
Ni 3.12111433241709 9.100468468970568 12.890321021988107 -2.752913064909272 -0.2633475552875529 0.34169086838414703
Ni 7.3596220730165935 4.805000861356082 6.586976260861162 0.953423673356887 -0.5499201425413174 -1.632069952322725
Ni 6.751845601044456 7.423416008307125 10.228362167361933 -1.0434485365564674 -0.4403222423058159 -0.5763233151251945
Ni -0.01026318988102142 5.833783833258252 7.5258498586081295 1.1200329579804258 0.6357006286422472 -0.3612757324946101
Ni 1.8653380151938692 7.615783407698729 11.075159944820086 0.2109153056297658 -1.3969808776602328 2.7087096309191803
Ni 1.8454401837521357 6.978188082720216 0.018799731491608268 -0.3967664692020521 0.4836196195418703 -0.3300982784505412
Ni 6.824305320869424 2.5279729944119094 3.3025583802303062 -1.001913136316842 1.106718757370023 -0.6211170744011174
Ni 8.158575793714661 3.404881583711611 1.5696748360738555 -2.2954667613286595 1.324684284978351 -0.74205816756358
Ni 6.6309244338015825 9.186931055221354 8.186481107603882 1.7200237919258894 0.606722239132026 0.15252041063064053
Ni 0.040724538285817825 9.154889967768918 2.7838786326619656 1.4988474706897477 -0.09273480593157576 0.5145505047927719
P 6.738270445014114 1.8799080627962979 6.781021958652407 -2.1315702476505933 -1.086204182356439 2.061895923082907
Ni 1.9590344859594544 2.7596711540832017 5.631976121594315 -0.527243526879408 0.5624928370000054 0.3349116406787845
P 8.66932709227816 8.214168847074534 8.129120494544443 -0.1139993717373069 -0.41462560887066013 -0.5588475269379343
Ni 7.186687602462946 8.508935693974463 3.2772593103378695 0.16636605826448123 -0.5396871519593995 0.5796469801817888
P 3.3985217160919166 4.419475728146451 6.075427189429582 -0.012076728658875975 0.0843596944940031 -0.17398063738694552
P 0.9881132921235978 0.748161251624816 4.647254758867889 -0.6948236600566485 -0.6102914445405231 0.8646036290986853
P 0.6665820023241222 4.548421114330547 1.6579542617002094 0.5990626657042393 1.4383190742873875 1.0846226968019321
Ni 2.6098795351456636 5.653364430783764 2.1488179566792556 -1.598027260915719 2.558367458886781 0.4384455941083933
Ni 6.847987459505918 7.622450111036917 1.1885978909771797 -0.13990940673484936 -0.18659086995178834 -1.4521577799426926
Ni 3.150821608798557 0.7397251289766453 5.327959572489603 -0.7510210331838227 -0.5543853774015227 0.2352826787305367
Ni 1.9184949789099406 8.091657712926738 6.702445050366918 0.33512684201338416 -0.0866744586701088 -0.23234365070687082
Ni 7.448530046963258 4.875944998692732 8.937350881798315 -1.6118618528059658 1.783044101512168 0.3935214799021932
Ni 8.103884651406121 6.852125092679549 4.769882118666629 1.6199963089876424 -0.30888924847309385 0.04266257186553298
Ni 0.9944173714308387 0.5233557379571482 11.747290094817707 0.23288563925326988 -1.3322019335116346 2.0888950773795703
Ni 3.4979550849881327 1.4965121835119737 0.8326665979136936 -2.0314211515328173 1.480112870394722 1.870389360997056
Ni 7.511552243931515 2.536387731540306 10.462077074528418 0.7292000806539893 0.9916626622334276 -0.15593303585661533
Ni 8.522892070139903 4.456435485146868 3.8103640558962604 0.15663160458553668 -0.07903905361203807 0.5710818642205971
Ni 8.284582995442875 1.6787354080891232 12.307612098411724 0.9313466389521895 -0.5668657692567205 1.0196673749764698
Ni 1.3146050927053936 8.480641721508483 9.194472705259855 0.023512481299643378 1.5447594027305138 -1.9582192734278472
Ni 8.799760166794346 0.9706794444818917 8.93430298032794 -1.9643127879200946 -1.284485087051646 -0.7831713926641223
Ni 1.414707921351051 1.1852970824903502 7.358286872738541 0.14154000035973688 -1.1485812019317638 0.06991960780927313
Ni 6.97220943523562 6.946853647225523 7.061440981394513 1.3025193188455375 0.9745943938972312 1.0943540651570831
Ni 4.708793916530092 9.413626862875986 7.019921459656234 0.824025964786639 -0.5184320992353652 -1.2040537810777716
Ni 8.35705201331992 1.0119720937495273 1.0655307333152635 -0.8391273392044515 -0.537120676783804 0.037502110710516054
Ni 7.825519568367509 2.0959390047202437 5.1054032576190185 3.3170328959897386 1.474628707351699 1.0602923475866837
Ni 5.963389381139714 7.080875769842884 4.8900194601195315 -1.2830028460791647 -0.26192470679809726 -1.1934320396978673
Ni 8.435945985181187 5.396161714269166 0.029959253592715267 0.4529399310698264 0.09137057859419748 0.31593278558343657
Ni 4.798548013215632 8.94464241423598 9.606869208967904 3.107799091827454 -0.9308419314016291 0.9983434166877128
Ni 6.199392538921999 0.6885765445088985 10.888843717719269 0.7929480124349118 1.0537221505683338 0.003199480773904167
Ni 6.0709027572896055 0.5786103422214696 5.032229447394646 -0.7345603165246382 -0.3033693470961291 -0.2113199972673522
Ni 9.365741894686767 3.8201232913547853 9.841359573677492 0.8305218569236278 0.4826989074998138 -1.1281352753725862
Ni 3.665561771702476 3.8679431731794756 1.7802143484419657 0.4933782415905309 -1.987194063393642 0.3655602188025769
P 4.021835233082343 7.996743197339251 5.359721718379773 -1.1745457443163254 1.4111869939572859 -1.5205519522463748
Ni 2.1797702422336425 1.6666572384429492 3.028411823418384 2.657185752008275 -2.0256929907997887 -0.7592958715981053
P 5.471457339977184 6.038945352305849 8.873023238318645 0.3262670776299091 0.053044429320489285 -0.13824847409265867
Ni 4.947763152924485 1.445642540606494 12.782336234597985 0.5070138300960946 -0.2668676526256694 -0.23507699047763386
P 1.4106446725940238 0.25647932806311924 0.7337409026608042 -0.42792335442083074 -0.013365622673628594 0.17738863462722998
P 0.7937449519253301 5.816145428470884 11.963572084147692 0.3655841300619768 0.8956234745189672 -0.07761800489479535
P 2.863400223038334 3.3893910289537006 9.979269211867651 -0.1806703907022953 -1.0185674570440717 1.7064977324149966
Ni 4.711090535392759 6.752477868585595 6.8368037624694145 -0.04556560444494088 -1.2705525361309538 1.3677464062751477
