# total energy = -340859.82865106384 ev
CRYSTAL
PRIMVEC
9.31692057073381 0.00000000000000 0.00000000000000
0.00000000000000 9.31692057073381 0.00000000000000
0.00000000000000 0.00000000000000 13.63625502403488
PRIMCOORD
 96 1
Ni 4.614875655342858 0.5527244404207444 2.8241635509806504 1.466802783549377 -0.5897897250427455 -0.9372812592690696
Ni 3.924380049315324 2.884937822868032 11.073307124275402 -3.4236208057543234 -2.3058038815886093 0.2620409206609874
Ni 0.9918141292698754 4.232826016677526 10.892912911139808 0.5448185596486939 -0.5832256986719826 0.1430230126631666
Ni 7.575969985708583 6.016392043079038 4.286911671396741 -0.5924204777973733 0.012501474901120404 -0.07700633945272543
Ni 0.9913669170898057 5.541983772308906 4.11210854220406 -0.45172354216422206 -0.3527224436079603 -0.5644666728969246
Ni 1.932720605375156 3.523705886734176 5.397420571717309 2.2601542020702947 -0.5274381593887174 -0.26076462505172504
Ni 2.5132672335484836 8.882789194315015 1.6521825414333835 -0.23758792982494564 -1.096341270790441 1.1886708708637979
Ni 1.6112495832684257 0.03207443023141173 12.030613243700655 2.344502583710388 1.0117350075032705 -0.5132914355746903
Ni 7.188591068564088 3.105804738299928 3.1556334920801046 -0.6444367229636644 0.25766721707332396 -1.6935632837415155
Ni 5.829205794958637 0.433625315023905 11.362886327790916 0.553332510656976 -0.14641789727732848 -0.7585286544147775
Ni 1.8160913955811595 1.7860443272327304 2.6933511932341534 0.5007269686461183 -0.8128725192729807 0.15981154497541508
Ni 5.383400469872126 7.373149945126579 3.31100525204876 0.8976816425995766 -1.008444766787773 -1.150107151657987
Ni 3.323699556118445 0.16355760624801305 9.824757799347962 2.1007730597640792 -0.5459716994165307 0.5711749381550356
Ni 5.795236303114179 7.2260357717245025 11.017589145098933 -0.2627106930345024 -0.40051950848658113 0.8163273105908005
Ni 6.599798965820726 5.80611846616254 8.66676707750054 -0.9879129653830082 -0.8400120558022501 0.41651048459819884
Ni 1.0733371829284046 0.6566090347747977 5.055327477957118 0.5130404959061486 0.2356413476215361 -0.7640549835496454
Ni 8.646120781853991 6.745217459706707 8.195348606492583 1.1906616760415818 1.8043950563841182 0.8442057821686235
Ni 8.654366256424025 8.03663579886199 4.591968143110832 1.0745185184883947 0.8635453630375 -0.711094372192214
Ni 4.6951129739836865 2.8253654337145875 2.817823386636121 -0.23435605315120928 1.5310214843191308 0.4130379526685661
Ni 0.7950035023575588 0.6887514785252618 0.6392823578732244 -0.5021284769793352 0.8047367775397236 -1.5681618408148539
Ni 6.765863755353256 8.100969134349093 9.158217859099492 0.4216727455254286 1.791218409792844 -0.7471288972182681
Ni 7.5860881612826585 6.405708879670501 12.862547155211548 -0.13932448076565682 -0.21478018790181075 -4.562411761068542
Ni 5.728480568318367 6.810547705678548 5.9201939080699315 -1.7334925158362855 -0.4300177750560142 -0.35873136880620154
Ni 8.02619153107328 4.238863381108466 10.151441638428627 -0.03616385151506675 0.801208195561175 0.12299643302959463
P 4.871957440439977 7.105008975493155 9.005233094141959 -1.3001356491047091 0.26361700689885564 -0.5442801706467207
P 8.965309158458282 2.060613971954657 6.329949272982619 -0.5131335698405872 -0.7349441822266182 -0.24726659056529024
P 3.810685669453035 1.57420550768599 4.761112174841548 0.31711523592731194 0.24077481219335956 -0.06385386123116744
P 1.6952043531560834 8.860465852993205 8.626813327671526 -0.8752796207552925 -0.3902032141622377 -0.9666386293852642
P -0.03995468152105562 2.1182018570590415 12.625739920636294 0.524350007381697 0.03375755606641928 0.7012599026002956
P 3.717386028386005 6.414550637147294 4.527645987928231 1.2649567872107312 -0.43541580614313397 2.3020531562969255
P 2.6340145221672877 5.125871472594937 7.108566175708792 -1.5249984180535026 -2.887890324449826 -0.4180932557042864
P 6.157617922776865 8.262710872807615 13.130649925471257 0.7425322789865212 -1.5137009907628123 -2.168932747459452
Ni 8.714702633051756 1.4441972001715766 10.652014616808959 0.22612106683592673 1.7731520392094362 0.025705375185904118
Ni 0.21990634093678846 7.929994327756216 2.1872281253607495 -1.321681493596285 0.791552674749282 -0.7904607272366838
Ni 7.50955897696824 9.463196068682072 0.3837974929357701 1.6952951788309576 1.445480110812201 -0.8324033902170568
Ni 0.9990254256734985 5.8502434012627464 1.571319125740457 2.08441158768692 -1.1507908079885731 -1.632290295863647
Ni 9.430307339606115 2.8460955816448994 8.60549994052304 -1.5333678730641205 -0.4070172003957829 1.7817696056751187
Ni 1.6779121488600572 1.9404350154813577 7.2552648144602205 0.9388809996560217 -1.131968275965431 -0.23890227776099499
Ni 2.773050925566857 4.025887897270716 9.001810057580341 -1.1876282885318965 -0.788435469276539 -0.7534586960910378
Ni 7.005187490133443 2.1117079635276137 12.639417159810089 0.6978092250475337 -0.1529047905532528 0.9389427061318927
Ni 0.468361589418773 4.150585560146802 6.804777736863607 -0.7850017610046416 2.166952740914945 0.25076534774716813
Ni 7.08800559573009 0.4801968734259077 7.346014414408812 0.49271669674713203 0.745551011208187 0.2595821747078497
Ni 4.66183293425017 0.0833286728355604 7.881496030211746 1.0745717403238333 -0.46426769737781975 -0.24483304142313317
Ni 5.723784840427635 9.667981979472295 5.269103285258785 0.2856914702003919 -2.055309271004325 -0.46927980588043056
Ni 8.39493660738154 4.143010903846872 12.912824052863835 0.6857965168573738 -1.1667766418938679 -1.2878046383431823
Ni 3.2639501454770565 4.4370994968447555 3.8389196650880986 -0.5593622617908238 -0.22466427978474213 -1.0359681690190223
Ni 8.79506107165802 8.809586150589865 11.830569645403251 -2.309332463567158 -1.5195890741124733 0.7235207708810248
Ni 4.423338405387196 8.61147115481901 0.4188542693930213 -0.7841504687479398 0.5851666244484374 0.5997969727671025
Ni 6.00509061861186 3.0963387471551203 10.774727775635988 1.491284313630509 -0.8954974904640642 0.4579335276296758
Ni 3.266521615512457 6.9537767232662695 6.7615639965802945 2.7663244532191715 -0.47338225808457823 -2.6859445693085227
Ni 2.7958494298299907 -0.3864099574210103 6.559625336669845 -2.0793478000107672 3.7040080901329824 0.40243935121711333
Ni 5.512598205310163 4.821375879490017 4.44727357394134 0.0047012621304112585 -0.6404754243230711 -0.04474747941901971
Ni 3.8935969442538636 3.04070741533854 6.532638876678767 0.7688984276848758 0.6528671131192046 0.3835057475374041
Ni 3.213610824457967 7.674198277676797 11.146983467557792 1.0505321828761263 -0.8842098333653868 0.819273537703318
Ni 7.7992686173696075 5.5384526594704395 6.50604838580546 0.15481280620924306 0.15800843032840528 0.3384415082089139
Ni 7.898074558403746 1.1914198323076273 4.325638382806689 0.32852347776425356 -0.42740347736161877 0.6442847707668324
P 8.625567655411624 5.658342791410778 2.5923334152927553 -1.7441289125042092 -1.0658323035683064 -0.7810484327838484
P 5.881976832206855 4.549237950997219 6.620129417865102 0.050907585483144585 -0.5233354500742535 0.054305041200467766
P 6.168546670427316 1.7721993834914076 1.557287843590772 0.10402014903740794 -0.0433876229570156 -0.5703745537409273
P 4.901883388822971 5.675728164910985 1.6044277341382798 0.6148055303607928 0.10340334138901547 -0.2972925447744299
P 2.501919224479216 3.6138005071773733 1.8607623022178663 -0.258856866506051 -0.4397583993825458 0.23468978234154422
P 9.014735421276397 0.9726585408902256 2.3821716414212752 -0.8017005618165612 0.6000276007206699 1.6314608579838161
P 2.735895046939404 5.485849326789747 11.378840622314902 -0.47738700836859727 0.17669058011894087 1.1571049231320587
P 7.94858158399036 6.749447341576532 10.748409338838886 1.0750067709787228 0.6509431566236145 -2.0118910519196898
Ni 2.98161018912642 6.556484602796898 2.603815588016043 0.12812398406414707 0.7004872861003292 -1.2672846640129594
Ni 0.3721047578110325 2.9312149665848217 4.029295095067622 -1.7606811604359354 0.013959804614201765 -0.6445297968981029
Ni 1.7835008079585843 1.653194358990791 10.050001803992288 -1.4563497065368531 1.5699950373688512 -0.06010467860138036
Ni 4.446966115567542 4.8805569579859 10.234800125409526 1.6258869634404645 2.7432775987020372 -0.14199405717801997
Ni 0.9257841825746339 6.711667229281065 6.078660749001485 0.0628398181443563 -0.37825555488205825 0.822266816003687
Ni 2.692170739417178 6.7915970895480955 8.84960232378568 -0.2353410427722979 -0.11686769442403742 1.8051255067922394
Ni 7.28806782786833 6.901778990412755 1.1483672747475475 -0.8233649341638722 1.6766017161865125 4.921715714548762
Ni 9.215636176252268 3.5199511678056745 1.7082815826549536 0.4731344037398304 -0.15563941587559646 -0.2036622236117783
Ni 0.9900625482312693 6.881235180890806 10.615414958330467 -1.2830964342342355 -0.3637265080279478 -0.2796918009735312
Ni 2.9097115142598065 6.946621328385156 13.43581540515424 -4.13294574475094 2.378635520838355 0.6976264196127663
Ni 2.9738771451793826 4.792353672387581 0.20282283565812798 0.22137352484861225 -0.9894363440060702 -0.512981103423123
Ni 3.544389450062397 1.5313010891605583 1.0105802703760478 0.5942233353340669 1.0950451776868366 -1.67792814830742
Ni 0.05438472786463619 8.790449196051052 6.87578105567804 0.3381563728683273 0.9256686147308057 1.078353833074085
Ni 2.20977786784872 2.5449074952884105 12.92557425845603 -0.5074079802107196 -0.24780549378789582 -0.4147161117019374
Ni 6.1674286399771425 2.3425998853294048 5.960625615916395 -0.22356384763171175 1.5128880079432139 0.7166458981380626
Ni 8.977262767354727 8.81293092501997 9.465879341762488 0.9425350514688413 0.0836492986905398 -0.8209419265446766
Ni 7.097024374694828 8.906910701277521 2.422276325361063 -0.29190299832774247 0.5369090749936302 2.8790932949834867
Ni 7.015687659444661 4.663482029164177 0.9245748463043623 -1.4730521068931985 -1.2633771014284372 1.4898712353330663
Ni 4.826807644093779 6.250693957753859 12.918660171813743 2.7495235796117488 -1.1518220774665646 0.31071935970329717
Ni 4.981226283103661 3.3263828291988626 13.149331282601626 0.02849013701989287 0.1327051756769263 1.064154144534935
Ni 0.6023389050313044 5.857929860607693 12.923515219043626 1.1625551476133527 -0.3396949210000408 -0.543157112785871
Ni 7.865754161473295 3.656267030443153 5.260403144972346 0.11331263008292743 0.21474342112660438 0.33163091304498366
Ni 5.880458174178702 3.5158517228217026 8.578131486794819 -0.5090827968099813 -1.0798975234121209 -1.6947398205481201
Ni 3.8997554286502396 8.6146016400795 4.463145879565644 -2.7503273064599663 -1.0742521522008852 1.3995262697899058
P 0.6630740458529296 7.889195533245279 13.407656876574563 0.7036682549314721 0.2692873178107556 1.389865092551058
P 7.475198174466222 7.7557492820965805 6.351249616442519 1.2489179885803137 1.38635836494938 0.919792615566003
P 3.596107675303368 1.990150102832433 8.429496791980505 0.3450767541372444 -0.11984323211259361 0.8830312396762533
P 1.7114157946836082 8.24986283955103 3.6689566760526295 0.04302869695570009 0.3240029641860807 0.6356492065790214
P 0.3959635276177481 5.06720282472205 8.829283983737849 0.3193032447175662 -1.2285314545041617 0.9797193738286225
P 3.9012647697579745 0.6781003751032697 12.244061095403602 -1.6173678702258598 0.7894880789107693 0.6253599088378715
P 6.931341578899442 1.5693979767502413 9.526342428507904 -0.2979980554818868 -0.6397012651612081 -1.3814210755487628
P 6.304322151680544 4.742983311091975 12.036094387982633 0.2549529034659545 -0.13895681301359294 0.8007294561525435
