# total energy = -340862.6068730833 ev
CRYSTAL
PRIMVEC
9.37779132546039 0.00000000000000 0.00000000000000
0.00000000000000 9.37779132546039 0.00000000000000
0.00000000000000 0.00000000000000 13.72534552648814
PRIMCOORD
 96 1
Ni 0.8869974375020963 1.1696168669643512 10.056835124339463 -1.235088281786073 -0.34664024196962234 2.0656427917198488
Ni 2.2528830330819574 1.105491531127031 12.165500858546338 2.660832347621927 -0.3530476881578629 -0.3097359127441053
Ni 3.5828319952218948 5.642645064247294 4.221628372315572 -0.42780791188888906 0.26871936112242756 -1.0995628630515322
Ni 0.3520235239340919 2.546557940522951 2.780288131418271 -0.18447330938815326 -1.030128936629426 2.1826866067104347
Ni 4.878036241176212 2.156394940009394 1.4517298957048723 -2.5887928652561736 3.686501962928419 -0.5555950814389077
Ni 7.607461108991901 5.327851371151774 10.411278118388504 0.7755318738409935 -0.8741398507238946 -0.5042815187665961
Ni 0.03642240302114177 8.026498328435425 11.457273191386507 0.3635776411549093 -1.700974231493606 -0.2395363118005681
Ni 7.674953071849636 5.877961977404047 5.408554766172075 -1.5993742618619164 0.2509846628468258 -1.1472434569569467
Ni 5.820607406772129 0.6875683932713224 11.134905994163725 -1.5746559331796302 0.22976740533926235 0.18637489728624032
Ni 2.7123479101438903 2.8060883104114906 2.8641368375880054 0.47788657371283494 0.22826382421054237 -0.4946789626798254
Ni 6.117330096334669 0.5104659941943203 1.677277963827735 3.398431450972889 -2.5429261846310465 -1.1989010332322385
Ni 7.6015812339451045 2.518143233359002 10.31838547044025 1.4195014273602522 1.1718062338979756 -2.3567094101892248
Ni 5.844136284750461 0.27240138823260523 4.925312499666514 -1.0620934053511644 -0.919149068444733 -1.3043869681818954
Ni 5.404064679772702 5.892638220543181 5.736000037298908 -0.7551530530743252 -0.5732634452529483 0.4816372990045189
Ni 1.1693355332300546 8.903284289161672 5.80701523628915 -0.1729794498159408 0.27915778284693216 0.003904991481361016
Ni 3.43395956082332 0.08201253466389279 6.5095468331085895 -0.04043522519691101 -0.31894354738530234 -1.559992160519868
Ni 3.5215668856832565 7.137924484242153 0.41710633224713445 0.3038606849102509 0.47784286495909317 0.3968454020691036
Ni 5.404589836076722 6.133413008145285 9.962006900299249 0.18554185986198368 -0.3714369892983281 -1.5154722237306224
Ni 7.8767068705048136 0.08162992078524953 10.451163739678837 1.079073999069561 -0.3083608867734496 -1.331902914213977
Ni 6.39100217526718 6.601167852577823 0.6697102655972936 -0.7760201263313217 -1.0871488056578955 0.44833868485238915
Ni 8.67409107362144 3.945733756882119 1.4116792252904198 0.2651028474157628 1.2980990782906547 -0.3459033638035979
Ni 2.4789159330069244 8.148100146189522 3.124739089004215 -0.12260819645224044 -1.752281109297698 1.9038993198290437
Ni 4.340538764011568 6.778530016469492 11.82817327111278 0.47626677872122497 0.44329469467057847 1.3849162331862148
Ni 0.8986212096241142 6.542050257210981 2.323042039740823 0.20404711775502277 -0.8422265469550656 0.23745191846771363
P 1.3729555123227324 7.436072598058462 8.567072658874158 1.4087192491430836 -0.006505148108369442 -0.530656666326015
P 1.8051122615756163 8.268042094911273 13.061340615317373 0.5674501810052808 -0.12307793699980737 -0.38408758818280303
P 7.3603281789946955 2.426475324934053 2.195945774155913 -0.6401380955883104 -0.12386366612589637 0.18711614632763904
P 3.1641417540506707 0.5501218596016433 10.082075449201431 0.026764669688353906 0.05035068453841005 1.472590850986064
P 3.360578345127644 4.831728708511005 10.883841894119284 0.2533109969871573 1.011768174734051 0.08151451173572413
P 6.287621405704352 8.236579605625778 9.326592154691815 0.07539271510870241 -0.22516873022498643 0.07504098819623851
P 1.0816625638321158 0.4362145194805541 3.1001439561728983 -0.5035991479875906 0.3330023394712136 0.1225781145452534
P 8.411353499161919 6.077652662007717 1.4393905981186268 -1.0876954221899848 0.9581491038570145 -0.4452117091876333
Ni 8.028392642246354 8.223394431278415 13.594378015014303 -0.8693984793841671 -0.49043895645654895 -0.8373954441150094
Ni 3.722242238356964 2.650782711288668 10.816820696376938 -0.7354002959274302 -0.7569679947958771 1.8453067069968154
Ni 8.815179941371145 7.4147568787899285 9.200071685483099 -2.655238398473917 1.4178618348743002 1.5016440595982783
Ni 0.42204842817961 1.980551978282926 5.077787881422314 0.3002457138654829 -1.2405007110508959 0.7615823536394367
Ni 2.9666173392010844 0.26939955728766135 1.6164067215171114 -0.361943447985596 1.334569662412863 -1.130628474108085
Ni 4.475260111575029 -0.003006519840515474 8.472559528616356 0.5510318875482574 0.1248424850993979 1.6346215150999845
Ni 4.135465227291692 4.708485777306843 13.155866874482776 0.8023050281697796 -0.3070825342816582 -1.2543620424140203
Ni 8.297835337373275 0.9014495514329085 0.8610762850031293 0.06559784050546767 2.7429502972696054 -0.47302076098010143
Ni 6.336357786275652 5.164443360481213 3.418132662710912 -0.6431686548845181 0.5740424895108179 -0.18909923819593882
Ni 1.6049151762502127 3.8166953507514485 9.875070087506053 0.5564098640307191 -0.035231569508784484 1.0715465803442643
Ni 7.001965268247789 7.321822968560644 11.66301630239401 -0.8366153714158753 0.01736188831721526 -0.9813309412901164
Ni 1.2572429474065738 6.5450511503768105 4.92656162144679 0.8662406504814759 -0.1332602768494479 -0.6396418726781822
Ni 8.036823276484107 3.6844778734232277 12.890212806977715 0.10635342515627488 0.41357377056737804 -0.35490968106726617
Ni 5.013939190423718 7.84521624784589 2.7902257766927385 -0.12717936076269062 -0.1705793250148804 0.21952335901375097
Ni 8.655213580050143 7.947518571427247 4.502325354593468 2.5381277348011384 0.5826497715638546 0.4418777597183938
Ni 6.416397233683012 1.226793259564547 8.45713212440665 1.2772602871684327 0.04405148179325962 0.27542454105674496
Ni 9.055110727770359 7.199189593780791 6.912207615878712 0.5489989162786287 0.4136064235775264 -0.108339088127736
Ni 5.9140008287674295 3.232158873212426 11.801847935815543 -1.1425373097305291 -2.7162733021990513 1.1496677501277233
Ni 1.9411277443168404 6.462395299240493 11.685580205663705 -0.05012622723242979 -0.8685474442377815 -0.266218963298077
Ni 2.9690180537337483 0.9872844737667766 4.247761462894377 -0.7766443901788819 -0.23597173437776134 1.1908395963803426
Ni 1.125860093490099 2.0822447454399744 0.8289714170243248 1.3232143853010436 -0.8706390366594876 -2.095696673682436
Ni 0.36649720678453357 6.4250810682816315 13.502830142315988 0.13767357542579517 -0.07780440987398858 -0.11168897843657538
Ni 0.6026440544574606 2.6844583592839615 11.713086204865874 -1.1885441154779466 -0.4987009393550251 0.04956264141947593
Ni 7.573701060876319 2.042304732961012 6.160978087431659 0.9043999351600167 -0.303916992069483 -0.14307006385101811
P 8.111826850047558 9.358876138481454 6.043008288187329 0.7406679720842727 -0.15667994132496887 1.0765931416292362
P 0.050083031379466444 5.209597424835804 6.05946537386456 2.0817091011540922 -1.6825957289864182 1.3089355067845263
P 7.742426279125085 1.577297581333438 12.119397761728052 -0.09158012350184228 -0.7586926907964675 2.028589081400661
P 5.68982473148882 8.223938343164722 13.161439157980077 -0.956822671736107 1.6375859970449476 -0.3284769407970343
P 0.07266193911499079 4.716138054879709 11.339454374579583 1.1253649117163005 1.1471514114637729 0.2055733245915621
P 4.6928905106356735 4.814829928870928 8.217281987011265 -0.26963184563436793 0.7879706138249785 -0.804413332762034
P 4.607552611232395 0.6540137187817765 2.956494013661981 -1.2216326705017992 0.1227084694755306 2.44932671670633
P 1.5038225877263303 4.596936951658273 3.2003803523654053 -0.09762864368876734 0.31942717188994024 -0.6068235405965807
Ni 3.9806847844728903 3.9935980028771 6.249506311381859 0.19179812518434064 -1.047734565526331 -0.05559393521522038
Ni 6.309996815372068 3.581387815385839 7.192836140281262 -2.933239442008587 1.5842006394452717 -0.5038048362404937
Ni 0.4183413873406962 5.405030592260453 8.78843448103069 -0.856435491465596 0.25419828468811706 -0.6806041740231569
Ni 1.7604270867781857 3.919044563288522 5.222384043059581 -0.1502213301838187 2.2371423145561535 -0.5831225974352151
Ni 7.977621280996976 8.459996101821789 2.2065830026496647 -0.580640968663942 -1.3207702946359254 0.38566958795794226
Ni 7.821162213563538 0.8671605958968487 3.969712768835326 1.049553878123257 0.7405702701641439 -1.2814077336779028
Ni 3.2923455367695946 7.355479860973652 9.762961407726232 -1.0316795689459974 0.7404617696107377 -0.7414650140642713
Ni 7.03709447387028 5.712772186416273 7.868232160648688 0.24274067767047874 0.9088412587608218 0.6703475292921551
Ni 0.7551653873898615 3.4659003174571184 7.522560214655897 0.564919444163627 -0.9106376885396122 -0.9825154485165207
Ni 2.684261425669954 5.944835006046329 7.020884961879229 -0.6557277224964513 0.07735163860728614 0.42155730299348687
Ni 4.343558412759684 0.7232921508522944 13.472030662864318 0.5529941534809509 -0.8554684995666364 -1.2751129018081264
Ni 8.983548803556468 0.7310888464087654 8.15772738657715 -0.7710131600350334 -0.03389562430618034 -0.9679072116850428
Ni 5.495507521210214 3.2300957591609185 9.562543944308963 0.34473171209299985 0.5507755485630772 -1.68259161522136
Ni 6.1877291744468 4.055763380365487 1.0190282967865674 0.1624350986411912 0.8451802302667508 0.11160593180446585
Ni 3.1695621173314508 2.826991406869722 8.52505921677343 1.1078389870173952 0.31446417145771005 -1.7283726781112172
Ni 8.082558763889576 3.5659894823286766 4.131850088805981 -0.787719674156437 -0.12996283704509876 0.2187718255597071
Ni 4.673272171564062 7.199780394622814 7.673167540415968 -0.44662607303665663 -0.9935526801672888 0.5094638342984839
Ni 0.24549744322182904 0.48855478518819295 12.663305896918201 -1.8241239022716131 0.44889867112091725 0.7657555111805199
Ni 6.3685798766437465 7.940138249797536 6.429953768559646 1.9226573171628372 0.673758354745917 0.04475005052218099
Ni 2.97666095351547 4.7403046226557795 1.3940424134873708 -1.2297915521635079 -0.3269455917541724 0.8263597551261381
Ni 5.130195667226183 1.705501364052362 6.487366481496651 -1.0953681082438942 0.5679770000430283 0.09692287587099437
Ni 2.0527140811299835 0.7997961709986614 8.326865227636217 0.007977104668205616 -0.8510292328483602 -3.262319820717575
Ni 1.1958465487919299 4.095656503888734 13.393644520035508 0.0026945161130276173 1.6820763661478384 0.21801412145807614
Ni 0.55580198769709 8.649042993477906 1.1423209302837884 2.7257046228152797 0.2219461095226307 0.32395025657127435
P 4.635254606269459 5.8142961533327435 2.098028505713124 0.38858136228809853 -0.5213176483132764 -0.6036045194386508
P 6.336142097079358 5.094719483331391 12.233413884226403 0.07605066040767547 3.166231267822418 1.2135429515151295
P 2.3566295364993706 2.200320513724224 6.2254185170513905 1.2177580180377414 -1.7859448200987307 1.519854411958718
P 8.087407081910621 3.497737918388341 8.066564003315706 1.373907026559905 -0.5317265023514263 2.0086409204135087
P 5.981455280460592 3.3961014179781515 4.952214569119061 -0.0885837598776797 0.4960200500887523 0.6324507542463818
P 6.91467678828672 7.456253604598666 3.69276315189826 -2.508063054205274 -1.7810885204476938 0.9171292098012269
P 3.4245442585155295 7.514874177034916 5.498332111902551 -0.47799944514161546 -0.5966604840206499 0.08941499752972343
P 3.0070262412372077 2.881673307025822 13.381457142665782 0.4330035971572156 -1.388254039310196 0.5820419627765266
