# total energy = -340860.1253331086 ev
CRYSTAL
PRIMVEC
9.33185837708600 0.00000000000000 0.00000000000000

0.00000000000000 9.33185837708600 0.00000000000000

0.00000000000000 0.00000000000000 13.65811801356915

PRIMCOORD
 96 1
Ni 7.308282359898217 2.188488806133417 0.8012380420224386 0.9634838858063665 -0.6130026728240991 -0.6482820648516835
Ni 6.270635679007201 7.370460533493707 8.25560878132973 -0.984479257111111 -0.6226602505185213 -1.381821139200659
Ni 6.594283197638262 2.3863988625063928 5.1379244217640005 0.3400767298194917 0.5998537941469669 4.464547861440518
Ni 0.596288031550643 7.980465463943945 7.996650639433067 -2.2257032194812765 -0.04272350701045545 -0.17553589768920735
Ni 5.591229716434847 0.45208095482757304 1.7964117018564962 -1.169510238774947 -1.7364390000591192 0.628696172299956
Ni 5.303360543528701 5.424469403940266 3.641117638140634 -2.1344655669205173 3.605409883442094 0.5132760089557225
Ni 6.585949847942814 4.3787320016764015 0.6355200981291806 0.44945300096249047 1.5808551200118066 -0.441546344520904
Ni 2.61129665383932 4.937010440120068 12.619965054892091 -0.22488693731850948 0.3132989475050153 -1.385436110245427
Ni 5.625095031154648 8.813371167994944 10.756491817854856 0.6015283536359124 1.1399561792669142 1.8707333746000363
Ni 8.561718938166104 4.23066340188057 5.742173461853487 -1.8073585098878167 -1.585176887315612 1.011016384169691
Ni 6.899434972600367 5.6271946993309925 12.077341742371253 1.202674641342058 0.5332205703984494 1.258768141901516
Ni 7.902339144066798 6.177727695168587 4.232104240842471 -0.8278113999710002 -1.1077855080716403 -0.18965742469225402
Ni 4.245230433095122 9.147517027507728 5.967968977980033 -1.3480988072475493 -1.1328761324916812 0.8244355415202318
Ni 4.909537448514918 7.565207089814322 3.530486588521957 -1.4027404058518294 1.598567449689905 0.9079069198720107
Ni 3.1764993313356427 2.945041243433958 10.910596263768287 1.456201610994763 0.3980191106622306 0.4744639211845313
Ni 1.670747961281047 2.7855411169002493 12.758293993907253 -1.6343096402865207 -0.5722591723581499 0.5808939652150126
Ni 9.06847618549155 3.824363611970018 0.43551597269499714 0.4646410215568385 0.8192465411201246 1.6979313309022244
Ni 5.818031206914326 0.673318791232667 13.256023601260273 0.6981293273911138 -0.36737413208286407 -1.5458058417171572
Ni 6.305322197280416 6.710306195133793 6.148147569900242 -1.3994781901607898 -0.4061183427305973 -2.9555118802535425
Ni 4.6710524711164 6.90536070278694 9.912502665390328 -0.8603996183196666 -0.4446416956167762 0.3633279870379485
Ni 0.26693501459506114 6.399284681136485 2.4808335384056743 -0.05450378747483516 -0.897974234139331 -1.540345589933534
Ni -0.19185741290996586 4.2007921226251055 3.365496529596499 -0.7536152762735601 -0.24265480282489174 -0.3353057907934096
Ni 2.0447315249930127 1.3809937529454712 3.6257797954088997 1.1074677197209057 2.805713753650071 -1.420586947114947
Ni 2.3194894366202066 7.705212963812991 11.268083901101033 -0.20675628915606972 -0.234013582210126 1.4817660897274287
P 6.5492009889275 7.858722037150196 12.531091233509628 -0.5987986134095752 -0.2347556025824731 -0.24548507318483528
P 0.22032144789435149 2.3538493398437685 2.592119684495371 0.7353164779643724 -0.8476929693862756 -0.585125743908173
P 0.5249562378921467 5.7605749537509725 13.608894768162628 0.9219088905780575 -0.18830965241510794 -0.33963552851701506
P 5.043374964004412 3.249987717507709 9.290798383861494 0.5802195648558072 -1.3522966473789808 0.24782426284097317
P 0.35485325366082476 4.870138341668128 7.6772556487484955 0.8283636729300443 -2.5816642246311923 -2.4153403324585563
P 7.223502424866696 1.006972861799259 9.503947365265452 -0.15601968203315067 0.3594325086382842 -0.016760764398106618
P 2.851461365778913 5.654975642268674 10.339318546348407 0.2659060600433485 0.2028186446645604 0.8160190353217623
P 3.155446658420826 5.328351260756484 3.043697652146477 -0.45080360145311393 -0.450461644732663 -0.526071618058494
Ni 4.071797841729046 3.4683438759890017 3.817157550788803 -1.1926049158108816 -0.7762962628108437 0.29848142287620855
Ni 6.452438947502973 3.8396585281523694 3.4375300790188223 4.110986209760713 -2.8772631837532834 -1.9034411492457024
Ni 4.084255872908691 6.48275815596939 6.757654179103295 -0.604620619407991 1.489602812163028 -0.0795545597958759
Ni 9.024784423706457 5.803744131456621 9.366942616980172 1.0128668071148685 0.9868205036497779 1.5446676143476559
Ni 7.962622950374295 0.0065229691345110325 7.416222101507748 -0.06561095313159022 0.7591706588741506 0.6054161187260928
Ni 7.322728076951469 8.439770210484001 3.145095760904374 0.7608760716010315 -1.4831616845233746 -1.899926708334541
Ni 7.337332435600267 3.4931012967527466 8.096696561885398 0.5721768970569888 0.12922415910686133 0.2728056153766592
Ni 4.043783602327325 4.996687675621067 8.459811309930748 0.519807382316337 -0.7499509400480955 1.2544728569602717
Ni 8.815078898111704 6.804632621473761 11.62151497951708 0.06544485986737117 -0.16690290460455773 1.4643653777524779
Ni 5.250411578050567 2.716448036110665 1.5952270963142787 -1.1225153580826475 -0.16243072776581702 0.19568666160546944
Ni 7.8573595858002125 7.336725864793767 0.631526995850701 -0.43530216338340516 0.336020300361931 -0.3396648390930537
Ni 5.133362076113268 7.141120777485489 1.3322329255897527 1.8822909975306485 -0.693131102845574 -0.3268090661763081
Ni 0.9848843525841122 5.434949081104867 4.984476005507446 -0.8645763754051755 0.21019385408270896 -0.19886351667155427
Ni 1.1477906074927804 2.69547001806434 5.269233936769177 0.2944661310692283 1.011304090613439 0.6322468657656918
Ni 2.603728516545917 8.779197901942613 4.240422659564221 -0.7110635189542786 -0.09240364784440215 -0.41893914864434945
Ni 3.326033032925635 1.2817867645778218 12.964682043783382 2.253878910584544 1.3187614917360126 -1.4101827210624875
Ni 1.0012524325010397 8.60579330615222 1.9481663857841336 0.8248723719473343 0.6859510401573671 1.515465795972719
Ni 0.3681950118462475 4.400512559559018 11.588230106399807 0.9210000056105428 1.2251303992424127 0.6645846586664489
Ni 5.188802647827331 3.274259881626254 7.126533216182103 -0.22306016852241584 1.4286111029710042 -1.6116705627307664
Ni 5.619533243451974 1.0989476597817207 7.261885292316134 1.9921840604090655 0.2948566816394277 0.1778429485558292
Ni 1.2193099715083635 0.48089586769387227 6.5859853090053475 0.39229686346647274 0.6887604845817041 -0.7243396672378944
Ni 9.168000457050292 1.8011700165370215 10.557547791553263 -1.2850023930076966 0.33255676729336275 -0.15631407334511788
Ni 4.3982542497871275 4.87599874884477 1.2502861428175136 -0.9506507385974402 -0.31632642147742945 0.07208010579570168
Ni 3.2341702172459117 2.5088795061265032 8.032462579848803 -1.1366664527720487 -0.6685742394418164 0.5727415113112071
P 2.2417643866612047 7.922048029348754 6.624816105665739 1.6075963926613925 -0.8792514609188471 -0.07252310687039124
P 5.973994559053215 8.892020071951537 4.670680129959795 1.086830245976212 1.0468264518897648 2.0012957929023467
P 6.05868117549912 4.515453061461411 5.595293740838395 0.7086112007590442 0.955133199848826 0.09580778842994468
P 8.441225980419599 2.7729804352764273 12.461244138548272 -0.5976184770585449 -1.3261706397158903 -0.7656629514667136
P 0.31298027110937354 7.929914786116125 10.145168295789873 1.7478148459962286 0.9051440124148927 -0.9125511035122412
P 3.2781605985049747 2.164365951751856 5.797762410118679 0.1964489936927907 -0.07515617361786411 -0.37687564381539607
P 4.73341728188312 8.938642037324952 8.30162324271079 -1.6503818632580352 -1.437628475978266 2.0223500424694847
P 7.263890708721008 5.892592756820969 2.1412378734929547 -0.5734048559268189 -0.6189038687998825 0.654047506580551
Ni 6.9239964243343195 1.5001242593419917 3.3122162831394304 2.0609065625864442 -0.8053366159072517 -2.532478249824845
Ni 4.676119670315311 1.1609112006302948 4.045507196603641 -1.1333304464202805 0.29010656854895195 -0.4092530317048371
Ni -0.030098043418509923 0.7480511141509856 4.25481798458124 -0.9080185057492105 -1.1735273303541403 -1.2576142308027307
Ni 1.7140571168651182 3.980821552612668 9.440914393425727 -0.9726897206753506 0.9718993635635712 -0.04258235344690086
Ni 5.2955591097712595 1.929100465557067 11.357503636209348 0.994364634545623 0.9972093030832695 -0.6260191396884252
Ni 7.9995864421365255 8.188705887744536 5.333782402439296 0.7116854688089936 1.1640448447850016 1.4909575264187098
Ni 7.463275198746706 8.192662595774628 9.791723219585984 3.857925124000833 0.019912936873843122 1.1269273711074141
Ni 2.789217869173493 6.69311691166345 4.652692972582441 1.2208430847209686 -1.4622169639509077 1.1125001399384906
Ni 2.477813748975162 4.7591825433715105 6.537949567059861 0.3932376301131873 -2.302319265474119 -0.5322692622287736
Ni 0.7322840059254206 7.869295032900412 13.464104450279462 -0.16291486649108716 -0.3679384892267663 -0.3372228053104644
Ni 0.30886865422716236 1.2285018521914728 0.5872202645864021 -0.39172016502739637 0.8176465436228563 0.6400987577099427
Ni 4.051529044933398 8.587138920887718 13.572440795877858 -1.0042564397380382 -0.8429965923518707 -0.09652538332225956
Ni 8.343120151362212 6.401123057273106 6.928258284139371 0.995068345480867 0.28591361351352695 0.8444286968127069
Ni 2.027868856572324 6.087376640575831 8.277625435233952 -0.48060577241621094 1.1432369069007149 0.04834008186628449
Ni 3.2052694512808464 1.555816791237216 1.6129147010318072 -0.015128628111322333 -0.8674189870602932 0.30666241602510413
Ni 3.725828517418799 0.4166450883118667 10.36406663525359 -2.254082799065234 1.369910503806002 -0.6020099212580213
Ni 5.3853689165674465 4.660199519609337 10.877776117207379 -1.6856293736064194 -0.5779806482229595 -0.5529303901225511
Ni 4.739977578451876 6.344180056330638 12.768564637440075 -0.008974949805100671 -0.07418455373321417 -0.7501311743797017
Ni 7.806025031853223 3.830615957206245 10.557753092441617 -1.5380663069810545 -0.3146094387863227 -0.4076987998438398
Ni 1.815606401731712 4.007799955714058 1.7983237996757542 0.45565475889782814 0.052287496549806724 0.11878265205856316
Ni 2.7369407975117896 6.503577532420169 0.6177960991632624 -1.0704777727601176 1.3504703928035193 1.4884578999253075
Ni 2.632498636491121 8.16210075898561 9.059320699056832 1.3670025861305874 0.9719739255552485 -1.0451171825081418
Ni 8.24840178696266 0.27345145142857913 12.230189186936446 -0.20518740200705307 -0.4394917759847205 0.4779536795053446
Ni 0.6621905498980398 2.5022165591135694 7.8771151303749765 -0.9492520584777008 0.16221346954868837 -0.4741715867550931
P 1.5278025518354963 0.3040599475104049 12.779068577436936 0.6974353866478827 0.0319896655327191 -1.235184183933989
P 8.656913227352295 1.664999536407143 6.007522993678943 -1.1118121127325302 0.556175636532726 1.4705388535530417
P 7.884365984477287 0.19263568991399765 1.3875689804879268 0.06040009835461212 -0.48241968569649823 -0.28362198926587284
P 1.760837723834079 1.800582109447645 9.825950610417971 1.1923436917296948 -0.8763653976203036 -1.3441945870971366
P 3.4579295218343318 8.416888493291124 2.0732748807751715 -0.9437239295706198 1.1169075249775668 -0.44537394579711037
P 4.341404567430273 3.737726637084753 12.951870335164253 1.0601306251978388 -0.8221038080632617 -0.008409821330250032
P 7.004586354871712 5.613504862821225 9.398055966610178 -2.5652603293518723 -0.6615399583028542 0.4309096907426643
P 0.4851642597999171 7.463415176625129 4.313315673160061 0.42113152830997796 0.99252321046151 -0.4141427556969707
