# total energy = -381165.1458166962 ev
CRYSTAL
PRIMVEC
9.36902627972362 0.00000000000000 0.00000000000000

0.00000000000000 9.36902627972362 0.00000000000000

0.00000000000000 0.00000000000000 13.71251699607443

PRIMCOORD
 96 1
Ni 4.285636261408076 8.007725585992063 3.624437836418898 0.9497850481630353 -0.29540072706835574 -1.368528535856811
Ni 4.2341253543647035 2.280627139743864 12.837411840325128 0.07823532676382011 -2.0900371614038136 -0.23899072370974322
Ni 8.39385127023697 3.905216314229268 10.685959214908253 -0.8882312958199541 2.5000874921989653 -1.7232451270766644
Ni 7.460583814361307 9.025604719115579 6.270885169531878 1.0209557547705899 -0.7665525531605185 0.6294163382954321
Ni 8.803455734592953 6.126977861220584 12.49665566633077 1.8043336070185634 -1.3354260968758873 2.8074916714861002
Ni 2.932036805970053 3.634666939421799 5.507467856016817 -1.3967273668885298 1.1936888929036795 0.6372864850721283
Ni 0.7642942543843336 3.9147258760061 6.8433551670813415 -0.32765341645447443 0.5276443618622526 0.35767927339260336
Ni 3.8276782518991572 6.540892077711879 13.431163581299295 -0.14701490743137907 -0.20144773245896272 -1.1661279525662753
Ni 0.2852699890574768 7.9197879043789134 5.4430876543363444 0.37284363983786756 0.36923303966847376 0.30176883537822863
Ni 8.245305356964385 8.452810553253329 12.360489984518193 0.32324526008444976 0.48153471198838355 1.9889629823686068
Ni 0.622127711174651 4.828355852586945 1.823559187741151 -0.5497957011483112 -1.672085573483714 -2.1422274702541233
Ni 3.8748794068072163 3.9318899323363032 0.8615531803440541 -0.4963172696141968 -0.754712623102797 -0.39477643535521684
Ni 0.14980792112612032 1.49309488922645 6.911643189665377 -1.5150986424412873 0.07980395680252061 0.019036447806160765
Ni 8.429772117382168 1.7674574577710322 0.28729650946371205 -0.00618633131636999 0.3677047759494054 0.18988599576329232
Ni 6.613923638352674 8.641174828645655 3.2137343852684106 0.660491719543998 0.9788282294729206 -0.005384918460997178
Ni 6.906743188868053 1.4268183966064398 12.065328177407535 0.04703576123256415 -0.7384966754645669 0.6695674565930211
Ni 0.6922398831950897 4.4391571276890325 4.5898260623395775 -0.9892985328766252 -0.006047234635344424 -0.5700480236394441
Ni 5.155400456472539 8.880337965076386 6.5068909440721745 -1.2559499557264306 -1.4158136940960198 0.2876755905099562
Ni 9.072955778445737 9.01349993703118 10.363988875710673 -1.3039215985097028 0.8191706935768667 0.5682701058034149
Ni 0.22192225408420338 3.7394407614418124 13.061405586142197 0.4960514175473199 1.481177049993178 0.8806933355716962
Ni 4.7018833654682695 3.3616254035969546 6.929593307308956 0.1547071338693142 0.45245244991044664 -0.30148190026542915
Ni 1.546863731627671 6.118058548105762 3.1187746183826155 1.7709110656940599 2.3486924534220197 2.248588351609566
Ni 1.4461841741362051 1.9423115971217881 4.936204589065241 0.15477064011739797 -0.22485454141867725 -0.12407603924701857
Ni 7.6185174920677685 2.8175098274872985 2.4609715285539533 1.5139876687652958 0.11091301950249931 1.103223599732571
P 5.704425402405899 5.245015193807908 0.8063124638983599 0.4494378314538388 0.5483831370715008 -0.318452980902129
Ni 2.219175695710128 2.8370442474919244 8.231993844282098 0.19063444389354267 -0.44135813976949795 0.760984829264754
P 0.9745380170844767 3.1056448648121204 10.16954597600228 3.5786778667638885 0.6322329818086209 0.7099373757696353
Ni 3.644897916229978 0.724909678186039 8.017860061828516 -0.015706097881347143 0.525033920822599 -0.4016019429174826
P 3.287909904030339 9.296453902767244 12.32481085825363 -0.18976052592902157 0.9407607331772379 0.646395646462248
P 8.326291221002748 2.4469929411933293 5.272298735532354 -0.07065751441656219 0.8354748300535287 -0.16383583564345977
P 3.7858080730019528 6.243715929929282 6.273352971080664 1.179053402378692 -0.5067459211466885 1.2287381711983292
Ni 6.215243458757072 7.288071931605829 5.096325934431693 0.17818927615165442 -0.44102672457200814 -0.38832168086880864
Ni 5.592549858389002 4.128714438550775 2.9653043448441174 -0.4500505253371733 -0.6253917905170714 -1.2237340331155184
Ni 9.150062865562315 7.87943550775545 2.9670188766718617 -0.3191350945708182 -1.1978396818472596 0.39873233467917135
Ni 6.314836209188328 6.99247914928164 12.743137886170429 0.24590750543423454 -0.8864088978992346 0.6274751554086613
Ni 3.9495130709591812 0.7699531463185273 4.741171440694839 0.26024243399966795 1.0148817806623682 0.3396635535414731
Ni 1.6635924313099872 6.2673820905679785 6.475777344363127 -0.8880490046058189 -1.4515000917540355 -0.21885410086086823
Ni 3.267316784044647 9.070435510349217 0.959823024250297 -0.31200671105615296 0.18848937252608183 -0.8493289623278019
Ni 2.211680474605236 -0.07715767985903746 3.275523114251866 -0.6114039608784114 0.041526915599193 -0.2217144531277988
Ni 6.458425907505302 1.5656767366009507 4.206794967508352 -0.07606557280601092 0.34254704573685524 -1.0789395303742257
Ni 1.2595719066771494 9.36958852269823 12.913790017189255 -1.4731395244006824 0.5721475864809501 1.7795445729993415
Ni 6.534661675168437 1.861485006531906 9.664088876546382 0.42266236313220756 -0.48875025590021637 0.1807002154989662
Ni 8.843367786976504 0.533675670013179 4.452166020819211 -0.21296113241520095 0.18124348959694594 -1.338381065739153
Ni 3.6502944754255 3.041982330552442 10.361548244338392 -0.9098535020754203 0.6081695131015139 0.7277376371758499
Ni 5.034371373681291 4.39277107807613 12.465143883000527 -0.3999854903599821 1.5368000386741212 -0.5786774171796679
Ni 6.954159831382878 6.38230256815874 2.532400048780939 0.6402694789598522 -1.3809081404680863 0.9980261425576101
Ni 3.889879218043382 5.963844373872604 1.9427341402115763 -0.7685927235189989 0.41693625928170774 1.7829641402038519
Ni 6.643464178532331 8.940459007364003 10.828047995198972 -0.9435619500714587 -1.0567907621913284 -2.212487749232267
Ni 2.8244616450620863 7.934469168718122 5.326585685092451 -0.5382864149571311 1.396497510265911 0.6790741105318756
Ni 2.656896608235838 3.7425606472267243 3.102854768755824 0.6030658733263613 0.2633814938492819 -0.14458084406858973
Ni 7.932848327154189 6.498019412991895 10.716729908251752 0.6263909212055471 1.0485953708647295 -3.480582053630715
Ni 1.7879943635984372 7.472585537155515 11.760019714726129 0.5959567730854058 -0.18843409380811418 0.8285467354751279
Ni 7.239315518318505 4.392405686047267 4.570875332678495 1.4326752457380487 -0.8362626160621469 -0.4567953002601746
Ni 2.3486462712707614 3.584664445625787 12.218456481483122 0.12576036892797696 0.6825576982051019 0.39855261456819746
Ni 8.245876867573635 7.149513400455515 0.6566788066629282 -0.051153382945363514 0.8925165534588694 1.6585042352548531
Ni 4.337615619770504 7.7724787025886375 11.298236331745798 -0.6601471917203856 -0.17493760198357616 0.33873769929309405
P 4.906381104288874 8.375206907738551 9.363989592532874 -0.24822072694844347 -0.12289795977851738 -1.878107041356288
Ni 6.555058045600126 4.665166151080679 8.635073718666272 -0.04420806197578193 0.9465238609132602 1.4717922663441685
P 8.418229476880633 6.301588405885432 4.487626848769095 0.20577618463098754 0.13812763224407823 -1.724584414713378
Ni 2.904519975488717 7.828824027244665 8.218254167094193 0.13538992159794103 -0.9037921263726887 -0.0551578761190663
P 4.72238279519015 3.020227451295492 4.694658909225791 1.2325747713355997 -0.6910274262390099 -0.9104816225777224
P 0.8824292449264554 7.3561566463173955 9.865566041261715 1.0344949269076056 -0.8459816431221238 -1.3592486532167816
P 1.815754788765682 0.325826630456049 6.470292716319623 1.784472092207946 -1.0287132872288218 -0.00470280479230803
Ni 0.2778234868897663 0.3265677204427952 1.7638410135879217 -0.28985151511535245 -0.12687982724440083 -0.6830474933573268
Ni 4.320376611229252 5.588989628364178 8.439615216498167 -0.0078112685143026765 0.11868854968286009 -0.47982184306233494
Ni 7.102818172972036 3.5143499026355163 12.436279786525587 0.23515258091057564 1.163289454676216 1.0954012754746747
Ni 6.914706861292001 -0.03405360018744001 0.8216626767211792 1.5524691126699457 0.7011344327660247 0.806366599833663
Ni 6.1329365619989735 5.266563954484473 6.30267052843245 -2.3257044771672786 0.30778058878994735 1.113880822336101
Ni 4.169488441361389 0.7826388080385576 10.445194911868988 1.1630187175133326 -0.3132670658258153 0.46668324879784795
Ni 4.28029591637084 5.538424992985298 4.271888152096428 -0.3420155987134174 0.3404685659412717 0.8829479359338277
Ni 5.444060159274704 9.20956555210878 12.875929781583169 -1.5053279362077687 0.23795919712143537 0.4963141842904033
Ni 4.890313224045262 0.8534255499584364 2.1240144947571395 0.7933305925853111 -0.2528335431301065 0.9545603580644915
Ni 3.2670731893587384 5.697126930855011 10.852854366348252 1.9895394236973671 -0.5503808842278198 -0.2731905095199037
Ni 8.866668555586338 2.1500791261494023 9.093729720640583 -0.36528845319842895 -0.4933569014342922 -0.44868578377916274
Ni 5.820189092370962 6.233494322147484 10.552343782076614 -1.6889242423076076 -1.288904299165264 -0.9922923253976265
Ni 1.859386344622536 5.414098012907898 8.643890909393539 -0.6359451405528853 0.1474000586849397 0.42276340748644614
Ni 8.993553279865784 7.677448668004985 8.087080302537473 0.7754912504110452 0.3219327119206133 0.1125469555614965
Ni 6.156902531481867 2.5932715500816834 0.8783658981849657 -1.0552702117817438 -0.12072614893817919 -1.2986384957338923
Ni 1.1114475995917155 0.11737891011316572 8.737122090912019 1.8713985189878608 0.6226535656503018 -1.6678082862645984
Ni 7.792106812857074 3.4763772387128555 7.256115119522483 0.27823989901835305 -0.8974391875714672 -1.682124959997587
Ni 1.0890181504353253 5.359232994420085 10.96925983462042 -1.4257170692526606 -1.0242292833155393 -0.26855146808599556
Ni 5.441099546938272 7.629863383015299 1.3520048471479575 -0.646423671486706 0.574036833083863 -0.7098093348322033
Ni 1.7347689247273206 7.252404048172924 0.8295129839259158 -1.0489710090365933 0.7016154861675014 1.1650524601139096
Ni 1.8006144421337993 0.9862118239553465 10.897063054230182 0.5299233877044164 0.9850927223253939 -0.7083916285490703
Ni 8.008690595709318 4.667770740414628 0.5994499828191613 -2.2313627317598987 0.3679073788785148 1.1570797263210784
Ni 9.223872055392743 2.106185237553877 11.705168749777888 -0.2754057720036676 -3.2501531034480537 0.29216730773272265
Ni 8.253952968314156 6.128683024021948 6.553595540582034 0.37730321827111796 -0.7580288319602235 0.9394479279030853
Ni 6.727382547827982 7.421880366380919 8.49255958457785 -1.163461718588022 0.19346420003285392 -0.17274136566320575
P 5.056594704257297 3.139317145625849 8.918552349879679 -0.09849124879937876 0.2442871962219922 0.18550766418993858
Ni 0.6553708905801244 2.529009398133613 2.753171786425541 -0.5381506607102152 -0.141906125449904 -0.18919539745417094
P 1.7504901509948323 5.578664961292189 13.363999841880993 -0.3670707419098323 -1.5463943672307754 -1.1734774509528112
Ni 6.15659335361129 1.524771567421001 6.41786926610673 -0.031128603084004454 1.4505932636690502 1.5146271021215079
P 7.849838753417507 0.34490196816799984 8.49343746234976 0.03546939655120343 -1.0968521489885885 -0.6580905663016731
P 8.863389396352948 4.970156066865126 8.676828658538987 -0.20455928150475094 0.29245681394868345 -0.7903211163350261
P 3.1640420062456123 2.0339687822082397 1.740131755427871 1.8689248606363877 -0.09397382054499943 1.5660573928773418
Ni 1.5671476737427856 1.9621270879178472 0.6049327370573899 -1.4332262331455123 0.49044769820729733 -2.1774117314647405
