# total energy = -340859.85620544717 ev
CRYSTAL
PRIMVEC
9.36419728922366 0.00000000000000 0.00000000000000

0.00000000000000 9.36419728922366 0.00000000000000

0.00000000000000 0.00000000000000 13.70544928034962

PRIMCOORD
 96 1
Ni 3.0077894759008217 3.2231004600490265 3.270380291256972 -1.099235047398468 0.7631340143972728 -0.8808902820738507
Ni 2.488863128857942 2.641256072624649 0.7193697954396773 0.13995182993701058 -0.8594025445137199 1.4152390525394722
Ni 1.826580288259421 8.637657148745193 8.04405694826903 1.6271840849853332 2.8573078236772793 0.4425938119488119
Ni 5.391848510704629 2.6969917738228446 6.864758056838053 -0.8961191832084632 0.8052779947551745 -0.45201176282860217
Ni 6.091915886641645 1.5504207512910082 0.3228157126488379 0.37633134127615187 0.653247636387075 0.3024764029682145
Ni 2.667962762782118 1.5898346569266277 7.51506783501184 -0.2820502739033788 -0.4530322336733166 -0.1663578307343651
Ni 2.3696475354516533 8.199244168453335 5.686445215362748 1.9295859259618706 1.7489859834861945 1.7057441420784238
Ni 8.083530784766154 7.617455966211618 10.960754323943762 -0.8912582555717361 2.102219305292302 1.3009997968772176
Ni 5.126776183114352 0.18869419028299134 9.903763083804765 -0.5294320498902946 -0.5246009470502384 0.047718389121885564
Ni 6.086203726404599 7.039254251462996 9.903132873339269 -2.638483547613082 -0.7848233264452483 0.9648756239475705
Ni 2.409539015139878 8.7188166450968 11.44329608311608 1.3183606567531683 -0.630207723848476 1.2191201884925906
Ni 7.2833320491328495 4.084035378137219 7.498141112315964 0.084217512489184 0.6900771465105986 -0.1882536023661919
Ni 6.834300069318353 8.630006599706395 8.458893689497263 0.056388148981741604 0.753386962312838 -0.6081913674783848
Ni 0.9452688772600596 0.6087664541153746 1.8105853031759802 1.377138646123325 -0.7840617656888754 1.3340958081002379
Ni 2.0397936922550057 1.1369727204941766 3.913768991346824 0.955447388655135 -1.0871176953096438 0.2406727393978565
Ni 4.138506912725577 5.487559969365039 4.712577143709306 0.14665880964354097 -0.35091547230620856 -1.99641558199191
Ni 8.101884611101582 0.05564299564680767 1.382015966886063 -0.5140439974699986 -0.16797325485060102 -0.3499934747125714
Ni 2.371342455128547 2.266772466002161 12.14190358072366 -0.3778881442403105 -0.11154705354207241 -1.3952127300162165
Ni 6.516994250248987 8.042740342155378 2.232425527422715 1.1092991165026895 -1.168060393702298 1.493871357631395
Ni 0.1272201090958415 5.975350361017461 2.712061576231826 -1.0151923699242515 2.4803172515505736 -2.6305712347445405
Ni 5.266096707715622 3.01434441387776 3.9634516755331726 -1.2561541013174369 2.2586822455104585 2.673568821351989
Ni 9.02702982877244 5.6380988021039835 10.758092497251628 -1.1007070039583045 -3.378357563041149 -0.0042541472906636405
Ni 6.29120472953479 8.399553708831462 13.541723695574799 0.7710833511513365 -0.34179345540028233 -0.14850126216891846
Ni 3.9485073533654638 7.491348323732433 13.605632468010525 -1.0233592220057601 0.6582818563768726 -0.8216988593153591
P 1.8106143321870212 0.7682331123789087 10.1605761895441 -0.5950977675192203 1.815497336944867 -1.9007690017301782
P 0.7057748540755072 0.7852132109983121 6.577382084571388 0.6098391874944529 -0.7032877316636016 0.7208241978854683
P 6.782890627184936 0.5957099540850243 6.685394352555377 2.517993683055425 0.1729856204635279 -0.6696417614743821
P 6.205943714849043 4.579092386746933 5.492061338915773 0.14942248843160716 0.2929381244604761 -0.19104787728187742
P 7.724320183629932 6.556904458331432 8.72186000915752 1.3386872841256623 -0.09134075379752656 -0.33770900091826356
P 8.224508772255877 0.47673408412474927 12.030081020935647 -1.2425578506902406 1.184611870303076 -0.8044282451603695
P 2.3956987318114282 5.969066984756711 5.889176337113496 -0.5466697539248199 -0.5475886661946634 1.9279905564502922
P 9.15678950812449 3.900796769090463 6.373417698061263 0.7066263091185314 0.3705479018251554 0.2860501390913912
Ni 8.369326080560667 2.3664075232516235 1.286665029814385 0.6761646501945645 1.22358516624248 -0.16253819987795878
Ni 9.013901224424345 0.8112054129162946 10.042489918309268 -0.5610255084258595 -0.5207676893470774 -0.4904335571399102
Ni 6.704053451716588 6.9410144595829095 6.595445620796408 -1.9924848794789363 0.9323318856835944 1.474692470710099
Ni 5.657932171582777 5.898123827452017 0.7646597347617664 -0.6691997888409571 0.3829799569409211 -0.477304733067436
Ni 6.622332103538386 5.091828999500161 11.503956415574377 -0.9646146569767001 0.5863632158596999 1.2537182381824346
Ni 0.6594080320857781 2.3868776581338915 5.120643570427071 -0.7200320410014761 0.5000140017394937 0.3424912527982553
Ni 4.024900473388126 5.008328453871076 12.029190485790494 0.13043592002677537 2.471366470115189 1.0663892045130408
Ni 4.32429258338623 4.968830270461468 6.797848059228599 1.4725540842108575 0.609775424136053 2.2890863117236124
Ni 5.654776437156737 0.8116708135126571 3.925857233396009 1.3958423931804154 -1.0493404765608703 -0.3846784276892665
Ni 7.310235387429627 4.140932239777045 0.0039957029067994206 -1.2729372343130465 -0.5671840718280877 1.1367572127136423
Ni 0.37080441357800353 7.563527555055634 5.601403322889372 -0.7878186616281465 -0.48655504802111044 -2.7516933335695577
Ni 8.762116692533032 5.999509989561034 6.889304426722266 0.24537760107269357 -0.4809603275421524 -0.055813764535510325
Ni 1.5817627190178836 6.494492084593869 8.11167956127855 2.574688564644308 -1.175894030814104 -3.7584280596447597
Ni 5.939831961379566 4.477022638248894 9.321418648254719 -0.6733017268244726 -0.6313922310748803 -0.04638372947086205
Ni 6.791440139146286 1.7294548358354143 8.703344182212092 -0.016439119392629754 0.5405800960873142 0.48156247990252554
Ni 4.8586417630691345 0.4655560420346474 7.257062666980414 -2.2081045325629067 -1.4786684246387116 0.7705362203986149
Ni 1.117064437438504 6.86864794431751 11.913022938543483 0.62313384772083 0.2807467246006068 1.8907866937064857
Ni 0.4603289472078946 1.0836342537561183 13.385618784073722 1.3303204002182056 0.9079922804969652 -0.5245065875642193
Ni 4.445006448330105 7.480635682238694 7.237532697487982 -0.7864158677433488 -0.18503740942173938 0.26337609453264316
Ni 8.91002418588409 8.321905786396071 13.253977837522292 -1.6312780525490487 -0.47383811467507425 -2.1725209790313422
Ni 2.4731406419104 7.27160807435124 1.7277224593700806 0.7107799262755887 -0.08415786289584215 0.4681122679348906
Ni 2.809858441588613 5.163240366660349 0.41489667208973485 0.3993722822560154 0.26376150289651995 -0.11947042215420715
Ni 9.042246649076047 2.352127122659008 8.102949320312979 0.7004083532332777 -0.16957479500976605 -0.9463585389799896
Ni 5.901860142098872 5.549588411021096 3.293309464300302 -0.34816079237920683 1.122902309108421 -0.5761819044513238
P 3.7193560858888093 5.248398375177888 2.368657739817136 -0.10794622356469152 0.639161590607654 1.5514771810703216
P 1.6323949327911773 4.787970167480629 12.145316830570222 0.3316406832369966 -1.006159313187706 -0.15867177494401705
P 6.380595355146011 2.253690682639614 2.4557419636801834 1.4430018244750376 -1.5222429667955526 -2.169496076162089
P 3.9964052215826635 1.2783720968538468 5.395437807456859 -0.9540273683791571 0.7061462841583194 -0.5699948018040054
P 7.730818936424211 3.6639013106039107 10.425461233192179 1.169250043135025 -1.173613205199727 -0.8110151543492676
P 4.515855963663698 2.0316187481780528 8.850320874370425 -0.2072036611061335 0.5641357719200671 0.9253256295690901
P 2.7138098718322463 0.4639144982812799 13.384988573608226 0.45356728024118015 0.5443994698334045 0.7248150642124161
P 5.154971780612297 3.517332897439569 13.089471368374202 1.0596901952263105 -0.26929940199561364 -1.3529864743571536
Ni 3.0601072451538998 3.4234849140040318 5.691050527501403 -0.5415643143774543 -1.485823547626254 -0.6688367490745836
Ni 7.929180723803476 6.204726369224754 13.127367337658306 0.912590441390609 0.7622001897290938 0.5729487422260068
Ni 7.606115923511513 9.010923409743391 4.71818348851901 0.1097573086315013 -1.3924145984457892 1.3950954877120618
Ni 8.3530136491952 1.2768270043307113 3.3894123463999066 0.3527121591953151 1.2221939423219081 0.36548514259026726
Ni 3.7588355409041982 1.0488556256899053 2.1363507379144404 0.383423729346559 -0.7997310967950163 -0.6075833015807407
Ni 4.861675762932745 0.4029985232418808 12.307547799820602 -1.7960824227533647 -0.21866563899914598 -0.09297906073189793
Ni 2.6370047271367487 3.895534090314692 8.03353159071749 -1.037383304198994 -0.2170748974732584 0.3961272929561565
Ni 3.4553606409661723 7.388304698734963 9.562538296057552 0.27533532377704845 -0.13675517737658383 0.19660865919910656
Ni 0.7130751821423945 3.1457802845124836 10.243342582119768 -0.06324091023751689 -0.432214782707333 0.5704825400737014
Ni 8.975611022441914 8.341626785509547 7.474019876980542 -1.060219328256903 1.224263680366743 1.3940577904761668
Ni 3.827615568676501 3.4743231401137438 10.586252925346766 -0.32584953047651627 -1.7525032526108333 -2.51456511698985
Ni 4.762162440245711 3.5583574449780935 1.4553404395158065 0.21755697931599952 -0.6001551274374696 0.24497573764858455
Ni 2.288965613152652 6.670229971755585 3.950239729830798 -0.9745224030087153 0.5088457410985108 -1.4882336997296435
Ni 0.30818415466460053 4.825511233694265 8.534711847817377 -1.3804983066241774 -2.7463220419553154 0.7085929459265989
Ni 2.105380528812829 5.196829741693604 10.048971815548748 0.21408727559984417 0.6568322684145398 1.0197967014654825
Ni 7.456550967272 3.9121742685790055 3.2906097662735143 2.333527058535491 -0.3149781349796511 0.18980732000655698
Ni 3.9354255700029173 8.714977324281735 4.117733377856949 -0.3587277692617757 -0.971924303264236 -0.7569983338131803
Ni 0.6005830822610225 7.432101048618021 9.727414650991483 0.10357689085240226 1.9495968218661586 0.30156314712532584
Ni 0.7030395720997019 4.032073448374319 0.21129936210631872 -1.5738133826736767 -0.18943322449658986 0.2543499797746329
Ni 7.502060965226173 2.554440601218655 5.671616072819491 0.00755364397754183 -0.8131980209331996 -0.8908119120629369
Ni 8.520670234251062 2.765912264551796 12.355516835935838 -0.3203095744948935 -0.722307210188898 -1.0295658650371045
Ni 7.756654756250459 6.384238027821766 4.815039252066251 0.8708169569982486 -1.3325012099196083 -3.0265334628777425
Ni 5.80113883798466 2.3284731607593705 11.112638791807402 0.8216944884399849 0.29728534568557835 0.6611851460665967
Ni 0.803177486733967 4.757779995998273 4.276894763294699 0.7777317097057896 -2.0158582640975538 2.79812951354491
P 0.0504627218056044 8.324349841841759 3.4970687748937195 0.09207171842628013 0.26806321559566737 -0.42881527010748083
P 3.9949444068335174 5.3205869706982 8.915654877606281 0.28878502152405106 1.2117022987619648 0.8558451661797647
P 7.513091989421649 5.653737011277536 1.8137101357515582 0.5802758720150394 -0.20148552767543362 -0.6832660371260362
P 4.534771641825721 8.115659345050261 1.9240259962245863 -1.5919905678033357 1.2167966825657366 -0.5459159064779309
P 5.904987783933584 7.590028232876685 4.4191032062846665 -0.4265655548413557 0.1329867114730871 0.43955065424711404
P 5.13658986168554 7.409355413838045 11.872947920591903 0.7137629201633128 0.17230453523610328 -0.9227000190207851
P 0.8496866445197666 3.335648745113058 2.5066850687975264 -0.29571877252940687 -0.45010169029008296 -0.29645359381290237
P 0.6135300211851867 7.44274814073199 0.8899199174025033 0.6700209991906719 -1.4545689604873466 1.9481132953420965
