# total energy = -381167.7947366143 ev
CRYSTAL
PRIMVEC
9.23298359623735 0.00000000000000 0.00000000000000

0.00000000000000 9.23298359623735 0.00000000000000

0.00000000000000 0.00000000000000 13.51340477737578

PRIMCOORD
 96 1
Ni 4.248271083357315 1.2815750261439514 5.764048119516556 -0.6169907109375696 0.6445886751604963 -0.20958630240569712
Ni 7.601995338215574 1.2185506815396272 9.108196847303448 0.5688992547469816 -3.7761370468887487 2.1886747059730696
Ni 8.699898625828347 5.360467029254222 7.950422278913245 -0.13427843370131715 2.4682590348344586e-05 0.7484710130684594
Ni 8.012235256097105 -0.02542486635466268 11.517637115451544 0.19703674787546066 -0.054833660010428144 -1.21251682424346
Ni 4.4814131468796985 -0.12968833126007298 12.398711174591293 0.2884726324899548 1.0202985808025653 -1.2994728187097297
Ni 2.533622971414092 7.673827948971748 2.7065188950335055 0.29877298597469837 -0.27586677080048616 0.18840606878365615
Ni 4.556597330605601 4.584111621100896 7.589817033127221 -0.16281305080590025 0.011253204316316105 -1.020845454444971
Ni 6.016368936131834 7.363645872062539 8.454459151731909 0.5200346678357947 1.1727575420676513 0.3157690063120626
Ni 1.9875843338665196 8.870090208613508 6.2118413507308095 1.8179877074668882 0.20986295310585149 1.814347796721456
Ni 3.275188498162628 3.0261195382964914 1.398759128002085 -0.20438496071041573 -1.2727048065872661 -2.06091813255067
Ni 8.515765238127786 7.567833299681148 9.144588651326002 -0.2847882416598321 0.2538306169360532 0.5876767924648008
Ni 1.5085494567633626 6.081202945480144 9.09408884868707 -0.18999681030954374 0.4753638072909813 0.4488552194774915
Ni 5.29232761185312 3.1333329413942668 10.323227915575691 -0.8174480544588052 0.9385015048294159 1.0586617539617962
Ni 1.0104946338815783 1.400034203007924 10.274403899421623 -0.35146363150019466 -0.5525578372744806 0.46143794123850856
Ni 5.403243441289357 9.3565207054102 9.677056649890357 1.9045685779819264 0.425964430922247 0.9581575884974466
Ni 4.056511251378526 0.46514293029804926 3.192839519327883 -0.21857976415355904 1.159130695312836 1.9482284807637225
Ni 2.2452307352998138 8.244823340616227 13.066097066206506 -0.2552766053539604 -0.730375074798697 0.38596217949769657
Ni 8.814396852819005 6.092679543831034 4.953784579871965 -0.2981646629667381 -0.192378680278159 1.7250960642424742
Ni 3.7259796790828625 2.9336235107186828 3.573822882748863 -0.3495021368984497 -0.08347214968272722 1.8280026685007291
Ni 6.175702530453079 6.301621957894301 1.1755563710965424 0.8851655124104368 -1.5518373926232176 0.6669801554818191
Ni 4.278195182516796 4.790450333848836 13.329919410227822 0.01491214122514206 -0.716306769631089 0.07360065620528614
Ni 5.812384634147754 1.9143021447184796 3.932225138698587 -0.1908640434058455 1.6201485182947903 -0.6127280790064739
Ni 6.7466702231473965 5.232008531381387 6.732553914845968 -0.3238553828646229 -0.09095868786775949 -0.2884749464828
Ni 3.8425091624188097 8.06087461258342 4.824136873738798 0.22566161070100488 -0.014721879591206903 0.6131176011354086
P 8.12459143094182 5.430573072116898 10.177688398435643 0.7011884259324117 -0.30220103781964086 0.022918813579702463
Ni 5.335611837974579 7.035810330916077 6.370515710038175 -2.2065973518897612 -0.18572775062054467 -0.6144106089152194
P 8.274839769609585 6.376759976703265 0.6429175623395141 1.096207316315738 -0.23528910648843993 -0.24529892531595818
Ni 3.7099789188720083 9.314695290663996 1.1224750263024141 -1.7326882747674353 -0.6686279754978871 -1.1596215189063255
P 7.435099930499816 2.5927048321118757 1.686580765743005 0.45366961014699936 -0.3217337085359298 0.4215277353071321
P 1.0414158952469288 8.494289318768034 11.412759657150852 -1.1902662403753759 0.6960328498734013 -1.5037040274511007
P 6.07002180259766 1.5181517594865528 11.590501050452122 0.051373469375969594 -0.5491770937277058 -0.2150907771636941
Ni 8.656688263573992 0.6688419330954505 2.249346799294043 -0.19028297409139486 0.7677658567423293 0.5485759698085972
Ni 7.537983064388769 7.81277511597299 6.2104093150073805 0.7890425067329185 0.015272609888354341 2.193416334423113
Ni 8.016528593372378 1.7142049287406136 4.31823586157416 0.44093133664472456 -1.5611080192918663 -0.5974546977871711
Ni 4.778272028760482 2.2589509486139105 8.45227001137069 -0.9259948877219729 -1.2525913236668427 -2.0766113749162107
Ni 2.034977237595496 3.7442425202236995 8.558417004887188 0.3618439462932542 -0.12630955656322765 0.42702218276280013
Ni 0.10028035587196385 5.955422012789739 2.7166400914230837 0.5751920297342288 -0.18551820571289984 -0.8283184215144058
Ni 8.848651221187309 6.527866982826085 11.914174362687413 1.2887253503852385 2.1074849245666156 -0.30135514487957776
Ni 4.719070139278658 7.370884531038481 2.629600757027396 1.4415146984065497 2.8047164227338084 1.2373220562125982
Ni 2.551747317804114 1.6396855198186242 7.804977861502092 -0.8766908992805224 -0.15332105215506497 0.21529080898964215
Ni 0.8351021115541358 4.258815150386049 10.93977700065832 -0.781879413325576 -0.27493834544894585 -1.0574929304646756
Ni 9.067583723276048 2.954711644776151 9.010534965520232 1.8720119842021439 1.140479912980868 -0.5586251265144832
Ni 4.217257492158088 2.536549827147988 12.480912425691834 1.5829366851311835 -0.7334619412541369 1.022207367789504
Ni 4.193833413303536 7.054119336973853 13.595160863795822 -0.24849994875175913 0.43019209585034945 0.07390070394420821
Ni 0.9472486976759499 4.318552552904358 4.525679762433605 0.45192820197586037 1.6163741388540227 0.516208095000853
Ni 2.452972861522681 4.730001991609676 2.6349383447238157 -0.9419892062677002 1.2935333132968432 0.4445630198600408
Ni 1.8569745508643558 8.528876074538296 9.130128876042551 -1.4192448312647559 -0.08249513048143857 0.02698732722212126
Ni 9.066134144884183 9.003331391881161 13.622322454325708 -0.08450650448451252 0.7749361492385234 -3.2683652555807066
Ni 6.95610198533021 3.3533826344729154 13.1022183438158 -1.6787102778890832 -0.3810295180827696 1.2460627785197058
Ni 5.487355919951149 3.6458650822279375 1.6489462021564703 1.0626176532857505 1.6812806097194206 1.2916602646438464
Ni 2.1689570595341645 1.3761207760338252 12.54376319020847 -0.6993007219913956 -0.09816831824232125 0.7371900408380013
Ni 5.896137026457426 0.1824354420555672 7.010429782881676 0.4797817338530189 0.18155253619693248 0.7651955249119917
Ni 9.031815145632164 2.2063598752376685 12.441386023809162 0.9940311624656041 -0.7599008521719557 -0.8549668773398694
Ni 7.90701617741107 3.6443416399689696 5.298335514143486 -0.5894320845930107 1.0473861810479768 1.1239510620879094
Ni 3.912024294344675 7.445182348359166 10.190282187776443 0.10830797777948444 1.5454345744206677 -0.07559197560370207
Ni 0.9471471348586853 2.9133017142823925 1.3011923459477612 -1.024988272968751 -0.025352876942491817 -1.1125618464143614
P 3.1436646498050838 7.015839387848518 7.642587226381185 0.06259222090992446 0.04627188648334612 0.6687788992534547
Ni 6.329404004907839 -0.1638642192695816 1.8714177067777082 0.14404374061819708 -0.24476593563062363 1.7962415740390483
P 1.5595432240135358 0.7043104387792347 1.5165692261339039 0.45377939625198616 0.3837697998320681 -0.9392031588821309
Ni 2.4270835761036182 5.93377989972901 11.527312358743496 -0.16997794398545565 0.7349115292164697 1.0449143224687165
P 2.173924404596738 3.873245764116407 12.890801490204632 -0.3362786962296402 -0.8149435428693964 -0.35843132106727943
P 0.3679703966343795 3.9154497311815057 6.683229470992288 0.6748739564075991 -0.5751269808242482 0.24973047872475054
P 2.0112669362559266 0.8978817820986864 4.655975624000588 2.086444301846232 1.0268723773653412 -1.994457686934591
Ni 3.6630661302791907 5.275985231256922 9.617732885027817 0.07556883567525051 -1.7889635523203966 -0.226967473996622
Ni 7.854166580499973 1.462956984794984 6.821215484422871 -1.346084862141314 0.14968319829216156 -1.2612500277831054
Ni 0.5998032231123895 7.363101126042665 7.001997299153705 -0.8610007422387752 -1.4816740442342546 0.4221625406776535
Ni 6.999487774268933 3.045148717058506 8.338716318580593 -2.647922067318162 3.955124393461666 -1.15722705053222
Ni 0.9452820722143733 2.404259641169266 3.5579172222669015 0.49494070098164444 -1.6444577844641164 -0.6259672034045671
Ni -0.005770614617301876 8.800648940554744 4.909284369838349 -0.18372923213327713 0.4283064487918624 -0.9815358582120708
Ni 6.33764905907304 7.516562542929344 11.176436830851413 -0.4554912367367704 -0.4986202067157606 -1.7779641158860993
Ni 2.8799614112694694 3.0387040946539035 10.833236682049508 -1.0922958970764738 0.725284547649667 -1.5427066339665432
Ni 5.596979131713109 4.601783551304922 4.145844982146054 0.7600569181338458 -1.3887896000986921 -0.19530408145507008
Ni 3.7429314365826487 5.58127382697066 4.766853598204934 -1.5772334640988193 0.47764231891251285 0.2620805156496712
Ni 3.862489338469756 9.01158567902975 7.955814341211653 0.3060438086044987 -0.9080547583037846 -0.09813180857743099
Ni 3.3420722298230037 0.7636046580949349 10.305146964207593 -0.35988990789067693 0.45553571682146066 0.06726751489840672
Ni 1.6332131984638583 6.9878172832669 4.702339973380178 0.5425793859055301 -0.6710160161140895 0.0641312832622702
Ni 5.258350232986447 1.6070561565265524 0.8314800121711476 -0.07660421891830033 0.001057751840553017 0.08687449049605683
Ni 0.6804533330038006 7.8904614381969544 1.6241224030203456 -0.28937663236146294 -1.6929860710818072 1.3177086249914662
Ni 6.067796653601228 5.451421148606286 9.536477091426175 0.32671650646250183 -1.2658587301997102 0.6586646936375882
Ni 6.263000388383622 9.078044693454292 4.718732212086669 -0.6817238894498969 -0.352030045526626 -0.4639383390628591
Ni 6.761249103916548 6.639235228448317 4.44735636435589 -2.4592280349804425 -1.48188487469348 -0.8547809865813085
Ni 1.7866007514834361 5.72656405355924 0.3950571999988252 -0.35265302382260555 0.6553857657760003 0.9837063835008284
Ni 2.6731610493521454 3.3798351318786275 5.946519570207334 0.892605770738566 -1.3984993711872882 -0.47888827550447205
Ni 7.259303926798332 1.1690341916314833 -0.06048619747105011 0.020215298605610346 -1.4709103779598474 0.4048309913777415
Ni 7.6934942035875125 4.3314417977135635 3.0179889731252976 0.15724558402045177 -0.7631854364604986 -0.305058561873094
Ni 7.466067356782105 3.3115295207765483 10.878777449310917 1.7499000106600315 0.3916625723165835 -1.0153162970966256
Ni 0.6861353109805808 1.7997854517610474 6.077356484600835 0.6746088756716704 0.6297454395000767 0.40511638382864423
Ni 2.107040672936362 5.329952019157929 6.817809436851155 -0.06973063172691862 1.5383303592757185 -0.6393875905755311
P 4.690290930059251 5.881742805356029 11.522082796952713 0.7217860475781053 0.4791338158563748 -0.2890272194418442
Ni 6.840874352651927 5.483099514609427 12.446264732231215 -1.127249016112891 0.4758057799244063 -0.5540565333071943
P 9.110951046247994 0.048051215444518645 7.7429783780538 0.543700901104483 -0.4776078661301517 0.5383694615892406
Ni -0.22937685289688634 4.3952786448560035 12.988178996099508 0.45405681828308897 1.3073360235078904 1.448281584816738
P 4.449845576677211 5.4714567225575585 2.323994546685121 -0.6807286154161631 -3.1607512185444535 0.09594071446338315
P 5.837646076696455 3.068674358730322 6.44597503666903 -0.3468397595749382 -0.24674491373386537 -0.4343390281391875
P 7.710787581472643 8.102903152964153 3.395351160461628 1.2319127122715687 1.3693780283412997 -1.0806164038560162
Ni 6.365375708186251 8.10040101446609 13.347203555129562 1.2570280192819578 0.27056901273665657 -0.3916779989355512
