# total energy = -381169.7338445909 ev
CRYSTAL
PRIMVEC
9.19657475112734 0.00000000000000 0.00000000000000

0.00000000000000 9.19657475112734 0.00000000000000

0.00000000000000 0.00000000000000 13.46011675229255

PRIMCOORD
 96 1
Ni 1.339297208132668 3.4910750256843337 12.304861844116543 -0.6483869658606639 0.49978620199940377 -0.037815785296192936
Ni 3.0008883849463035 1.464756883428595 9.823206562190535 2.786846227321607 -1.6283778481831181 2.6663676756178596
Ni 3.386040943324358 2.8046702620820683 8.157531186447201 0.22014222354467244 0.777422405995487 -0.9781689986223668
Ni 5.911493993732211 8.328059596881321 0.9737885338208863 -0.7940209337841163 0.03379560839320631 -0.4009316563233353
Ni 1.852852345786616 1.5560420862571662 2.332853779781482 0.6376304986751083 -1.4840217185308249 0.8562303174333254
Ni 5.757405380656177 5.61394800820777 10.877282114872363 -0.6227306987451404 -1.9018259822397827 -1.108734245138155
Ni 7.818155499477519 7.284055213413433 1.3807792790452766 1.0104692534169697 -1.169413822406399 0.6752627072055853
Ni 2.9741999244779866 4.219029914853745 10.202863247386002 -0.20810431854353195 -1.2477077703222963 1.155823485316474
Ni 7.5891699801113495 6.497122689170515 3.8675359010890578 0.924067331681957 0.2530672564074674 -1.96739862593427
Ni -0.0003108442328839125 7.97772527121624 6.013172245897532 0.39797231658469523 0.7277345518520564 1.6637978795536248
Ni 2.8971878059522505 2.4990037008879082 0.2691092561605254 1.0574739043012822 0.12737347905136773 1.8011076438820979
Ni 3.177407444294641 5.097247641925234 8.173508396085937 0.0035175262349552328 2.326267291649284 -1.086290057202026
Ni 6.536180542929627 2.8564193892547833 10.976254734691102 -1.1962535683070625 -0.03135357461061697 0.5710924057435584
Ni 8.098880949441467 2.954528450686901 9.376842520686681 -1.301206513571385 -2.240373677009258 -1.4659702603457527
Ni 3.5367636099733066 6.443626212759695 10.244616617259265 1.1259714349520478 -0.9328306796968838 0.22608558561230097
Ni 4.436896775120606 0.23098025647009046 12.865435390795412 -0.25443919705432955 -0.549713168736834 -1.6444117617175293
Ni 0.9860567647873697 6.135688097555999 11.683879675303912 1.559477939887611 -1.3974745294671997 2.2033929860198507
Ni 3.0013206239683607 6.365436932641972 0.6664435977006522 -0.4305273677025811 1.1875254444054453 0.3104655918212782
Ni 1.6544362415123433 3.9195894348922007 2.018398051919655 -0.730447322797529 0.5642697263947701 -1.783314581564735
Ni 7.078640515611804 5.026130527934367 8.655514683417154 2.786220163701834 -1.053865361014417 -0.5254285851578564
Ni 8.95291168442761 1.8745378694889907 11.663245320116879 -0.32200136037501964 -1.213080152946098 -0.7610503923953666
Ni 0.7234163794378071 5.906095604243962 5.279030820767736 1.3384761965561205 0.8961520933289275 -1.623044608895663
Ni 2.0469276666904386 1.1707791689798628 7.861717835640966 0.18828651248665637 -3.09094319661238 -1.168445802066175
Ni 9.226647737439139 8.45852220894319 3.854883253290191 0.27000002760706404 -1.0845116251453646 -1.228342221311491
P 5.996323200954732 1.2937373758928186 9.454776136021144 -0.1512960513052362 -0.3131971318198284 -0.6524385102222183
Ni 5.28718450410723 9.161002585536021 5.105584337105982 -0.15110244723719138 -1.1752517692444144 0.1733579162012821
P 7.491704678924849 3.1844796104214974 4.583438678803014 -3.5436093051955293 -1.5554104546864567 1.6532800107414367
Ni 8.080432620117055 0.39411002236707654 9.581476429276124 0.9872380508031707 1.002880385326118 0.7289740806861122
P 6.06694369989898 5.80351700739227 2.0502044063406317 0.45788956176561785 -0.6304589206273336 -0.08418177415524211
P 3.332130621041356 0.34895759839695384 3.7295293386060444 0.928668063678762 -0.3003755545751279 -0.6291522860007681
P 1.2137823533871164 0.4504151327637767 10.164043584917769 -1.3472809393319443 -0.36985781773666626 0.4985284183329028
Ni 7.7105739658598855 5.305356936183519 5.788980901046226 -0.34484124108767056 -0.7700101726918158 1.4096985823372172
Ni 5.553140254721723 4.4821439238125835 6.585335316312503 0.5350303699136786 0.9086944487703125 0.10966629157959179
Ni 4.650036595869646 9.02246538067912 10.52011749300128 -1.317650518060021 0.7482203305102341 0.02259845412580624
Ni 4.522047862465935 0.9376735840417405 1.4968051077704252 3.431646504272277 4.561915023937782 2.2337700556498112
Ni 3.3808356819097933 4.519638359832338 12.636196045960968 0.42701395523268393 1.0588908392534666 -1.211061322743856
Ni 7.636284033515618 3.105251117335849 13.24834858317621 0.11216180430793586 -0.48445934183434636 0.4256690111690153
Ni 1.4718290495554507 0.7995842523842905 4.8077652133059 -0.7886031052026548 -0.07589305178388865 0.010483416029827108
Ni 7.849111170716786 6.436636815807276 10.445562699298815 0.6056128081179312 -0.8583633046159282 -0.5304887732895831
Ni 8.614017897984647 2.041704012125999 3.1761567101031556 1.181938951456603 -0.5402335113811729 -0.2703075315451538
Ni 5.521798327335085 6.2163512563318815 4.812584218573095 -0.9352089501210732 1.0838572793908172 0.3597901490880191
Ni 0.42053178216220904 1.851196962297885 0.6195355475749811 -0.14479527407224096 0.22565852537721134 -0.45862464015942955
Ni 8.008239506858512 7.02702933706315 7.965185741289104 -0.8944070856133629 -0.161131035117787 -0.6954558943240087
Ni 0.894077220551025 4.566577678312796 7.059629355901223 -0.10545636726330226 -0.9543685537686596 1.298791476371989
Ni 8.184868925106098 6.207807638215042 12.773328014167436 0.3713135763465863 -0.2634216030585979 1.0739587893301827
Ni 5.89300887810805 2.103624551179472 6.095589191513975 -1.0466241060709716 -0.21979409617663437 -0.4716128248889813
Ni 3.7996569011336474 3.0063327573092407 2.7828256376332767 -0.18025181510763794 -1.8362255706311537 0.061960500863196516
Ni 7.785516855024707 2.9838011487126255 6.771326847846357 0.3583765565699441 1.9136620556427624 0.37277807670725477
Ni 5.256918575988267 7.409441316109861 7.09490833701856 -0.01479027093529711 -0.23993431856993516 -0.0811347597988022
Ni 8.316435126160457 4.247392151960668 11.333889301541488 0.9539021556552023 1.1748002835292928 -0.20289114977370862
Ni 2.4408813472835793 8.103286108836478 11.151976450992366 -0.8741889587942753 1.0966937690338532 0.8037006229657255
Ni 3.377855991630078 3.8785451209466117 6.159699435060041 -0.6114952350406372 -0.4055889525896886 -0.9209804652265171
Ni 8.280301783231435 4.715028790952208 1.590124592975148 -0.7413122905364911 -0.14547301686555592 -0.8954308988921869
Ni 2.100856382123316 0.9156597426141009 12.445156514443982 -1.1718388869081238 -0.6826895957972758 -0.936748012473419
Ni 6.18459548307306 4.908736248858535 13.14262015940846 -0.5971155692801975 0.5686840534123818 0.6762332986489709
Ni 1.18748014906617 2.705126534959717 9.852509608913554 -0.9704333205410062 0.871843084269918 -0.27378057769541886
P 5.826591213910192 1.9342604271324264 12.956452973293304 -0.007739277625786672 -0.12549940195710643 0.5918126690100454
Ni -0.17804753010293262 8.117669552038562 11.204685700588547 0.723453150867883 1.8289529482291405 0.8340779497060022
P 5.2553275685240965 5.88189021900874 8.666727147580826 -1.9560222657765283 1.818177197769875 0.35704858178713994
Ni 4.598774887168612 7.27415050220586 2.7285814796800465 0.00803675426154745 0.1932777950536607 0.1668118875526482
P 0.10735069958670479 4.554842848692681 9.183851475967977 0.7106837670173567 1.2446630699587016 -0.10699105874027379
P 4.33687482610151 6.539491309907089 12.350357300331831 -0.30924226093713836 0.12468256248276594 -0.007553386867225701
P 2.3829521217529352 5.278429364766831 3.487637345972736 0.4400777303951776 0.21436469763094693 1.3313375286288103
Ni 7.334434050920477 1.3668409500701626 1.3811287488928976 -1.9796401623057842 -0.9464233307796538 -0.7099142358411838
Ni 3.515326393794241 1.7408564561990334 5.589192667791294 0.7354386053645334 -1.4254869555197256 -1.0176169202053442
Ni 5.250526956406778 4.062007594372682 4.116454076974534 1.1818384213229969 -0.2792593414218029 0.8540003996615422
Ni 6.334665192901452 7.974386914513966 9.66776973122868 0.27901328684926785 -1.0980479690689025 -1.6805653288199507
Ni 2.881443269659432 8.374456317440474 5.866080387033867 0.5272538112920532 0.3481245398246327 1.3438189489252728
Ni 3.0949417568310307 8.751810180271619 1.384426640665447 -3.3748225533046976 -2.9980541244911265 -0.08102934456918948
Ni -0.2659014908223624 4.296777759374472 3.887497066990671 1.9020800072321178 1.411187251067602 -1.0267852169681735
Ni 4.420885538154603 0.5559035259256592 7.363410619233217 0.9169224931070595 0.23725728595840428 1.7037397100538851
Ni 7.196430247409944 0.10815815886620798 7.534300455062376 -1.770171616424874 -0.2248578838527869 -1.5153629518462677
Ni 6.248134619315514 3.126099752718921 2.021063219336512 -0.5960521610126895 3.36863005134074 -1.2115755433761133
Ni 0.559285106530139 6.178075111442448 2.6322197674860335 0.7688734879842114 1.0006358122663155 -0.5064222192586827
Ni 8.331287594684348 0.9571611263340782 5.339816502473934 -1.3486410529042645 0.3817946783835683 0.34358294320053734
Ni 8.244563893024722 9.131582742311297 13.27501313254969 -0.2728794060373881 -0.36266721352549797 -0.718220184603718
Ni 2.337042819665465 7.4608869563096425 3.7455598883794154 0.2716930990387708 0.2493486699052996 -0.40952633997088184
Ni 5.2450549943190286 3.7529291038767494 8.760732697275879 0.12331190738748442 -1.8504867085358583 1.772420817470367
Ni 4.2351055278443095 2.6585274897519424 11.557933501193794 -0.2757978652357637 -0.6345372044617653 0.3480103828442716
Ni 6.2918919228676335 7.41936442046731 12.158295109681804 -0.05962208253800699 1.0798085632427403 0.7903673961919291
Ni 6.773360210565015 0.4596025111262332 11.523959514060074 -0.643338347693163 0.3278202810496419 0.7625254342789964
Ni 0.9355307820813278 7.881289986422728 0.2042320182646804 0.5377002034363579 -0.5572704122588015 0.372304736615262
Ni 1.9316761895750187 3.0991170018526075 4.169230461567757 -0.661979359833118 0.9287128008737684 1.3278829944213066
Ni 0.8539212957443886 6.490721873014089 9.604466946962116 1.5325682599809605 -0.5190964722922414 -2.504666112708583
Ni 6.91364476466002 8.722381140471958 3.1971681248626194 -0.4268907993912583 0.45988242382593053 0.20408105631675177
Ni 3.2379301039576305 6.002218205489601 5.740188472715883 0.022908272056741192 0.9640544135978558 -0.8846872872224377
Ni 4.2707606488765855 4.490080567983554 1.2241570095739907 1.322967045176928 0.6323527952159367 0.8273678846756782
Ni -0.10469196977230422 1.41469992604436 7.631496296603211 -0.1353374710934508 -0.06233433926284749 -0.20341025550197228
P 1.7312368388145194 6.839915823386934 7.178549346759169 0.11281512162121861 -0.07348392812176377 0.15429987112856652
Ni 0.5674157984322888 8.386724548406956 8.390902552401014 1.0958823288761514 1.3328840471803238 -0.18977389566546027
P 1.0938406230536257 5.333995070538564 0.3294360287773479 -0.9436020592807749 0.19834595360518745 -0.2158767634000992
Ni 5.855100596216113 1.7107192801291935 3.599100753871443 -0.15916542675098394 -0.8021435628912508 1.3400988197612083
P 1.491564899371098 2.4464268819708277 6.281028928551584 -0.4527360425891364 1.209291118217311 -0.2546430855350195
P 7.086742698131648 7.5211705050242585 5.764725854306343 -0.49543332434734677 0.5578108581433039 0.31286803061518376
P 8.834064346511669 0.023883505112411853 1.995758843396273 1.075784786795328 -0.028926196116046958 -1.4760011622191938
Ni 3.1519145385681857 8.053891304847737 8.664506174733445 -0.6371124213881092 0.2749514580750684 -0.9670656896203538
