# total energy = -340866.7271326633 ev
CRYSTAL
PRIMVEC
9.27845324364312 0.00000000000000 0.00000000000000
0.00000000000000 9.27845324364312 0.00000000000000
0.00000000000000 0.00000000000000 13.57995420249615
PRIMCOORD
 96 1
Ni 8.062288998743558 4.81840267436642 3.064466096353804 1.0241097270185395 -0.3839703458786484 -0.9791118221516106
Ni 0.5526088836953532 7.593300316473156 8.359358154346767 -1.48475191182863 0.7399719744585127 1.8500619622936136
Ni 0.17307469405813972 1.2857430591591128 11.542675665781378 1.4599631349197242 -0.9061554843985427 2.385211117173344
Ni 5.2223679584381335 8.380799731244219 3.477391582429009 0.7149566833610977 -1.5250696376110702 -2.050285592537488
Ni 0.7766120780920759 4.797962242541119 8.409345819557302 -0.38211966582315476 -0.06789769228323791 -0.043795657028711674
Ni 3.156520411500588 5.630109572856145 5.099340311689342 -0.8968915425981134 1.1734118878221984 0.4917103669698048
Ni 5.533270359528559 5.368707718196943 0.3711455403347827 -0.2428376082596592 -0.9773894401438651 0.2282764226160327
Ni 4.756051470614252 6.030734613869706 2.630749452932191 2.2050716592738544 0.5960968982076961 0.9320588345278656
Ni 4.198917485420397 3.3398626415813686 6.45630384776531 0.1822243654529765 -0.8968964276941199 0.9020003245795885
Ni 6.523875109141135 0.43625337245522033 1.7541629722643357 -0.6359060597848339 -1.1983816703936587 0.933189091477567
Ni 3.9987070278959487 4.168688285744122 12.084284943517178 0.35504852063797565 1.005337845727675 0.8187408051282997
Ni 2.50209256878512 0.19086612756926813 8.30253969208231 -0.147932534149642 0.16069420469068454 -0.5925271785785666
Ni 5.810909506831555 4.755244245208532 10.588032344070983 0.1520306154784156 -1.4506022625301147 -0.04398257622853716
Ni 1.0306227171398235 1.76543907612148 9.383028526699164 -0.604672812802165 -1.0144673188327689 1.1538216243950967
Ni 3.472126988231244 6.629454625137552 0.7785670481263886 -0.5510861378249605 0.5061298848292445 -1.802307320617154
Ni 2.956783155076045 4.870027986520745 9.793373675011948 -0.24727353254382578 -0.8035553556371129 2.0939748058953227
Ni 1.597202167425897 4.185426614846639 6.197008201923332 -0.6425089098133322 0.43674995157352525 -1.1466515890092188
Ni 4.3707265984976145 8.223752636793446 7.206460272991529 0.44499419386018846 -1.5581134554399165 1.1654095863430123
Ni 8.337701317341121 1.4521985048903483 0.6304421140220556 0.782017224455021 1.0358810086218546 0.2016611340213495
Ni 2.320800876803927 8.328970293125229 12.50113521518571 -0.10396409898849192 0.1575787989901544 -0.4489950874894654
Ni 5.40576585923655 6.922570231943318 10.252715549761348 -1.1366523117046619 1.0574487074903014 -0.0024209507366667986
Ni 7.817328562692815 8.690885628475986 -0.039670025542023236 -0.10313697510150624 -1.5683708715018667 1.4388458933251347
Ni 7.679645599526382 2.303561511242687 2.9244570250354864 0.32993707028232855 -0.24004487600587046 0.13041123743642702
Ni 1.738448056521025 7.136438572194432 6.555858864268234 1.5948838301907307 -1.1612909361889483 -0.9374021011176501
P 7.820251275368698 5.256011628796074 11.510545311097838 -1.0086753947413403 1.6729620625513961 0.14859099366924733
P 3.1261613134831627 7.7267523050992635 2.8630345944225426 -0.38414440956266743 0.23981219116977412 0.013101313268648405
P 1.531751960391999 8.915665429383727 10.379076944651233 -0.44256887224814745 -0.23061329827932542 -0.8499586254920006
P 2.8929102850418293 5.190134612926967 7.6381532858270775 -2.0832473921754895 -0.4363540016866872 -1.6999226503006402
P 0.5241064041110844 6.298501487245276 0.7346038824093463 -0.5293430897209142 -1.6404350364579683 -0.06079527691050175
P 8.69391968258714 2.9465768568428032 8.673299248774816 -1.5399856354909542 -0.39586401199244076 -2.88050765883251
P 5.669403821054127 7.612061348316442 0.9742106511141079 0.011907807181179493 0.5601451627034353 0.01288534060310039
P 5.02706580251858 7.058722250374766 5.329683472979495 -1.066571752837492 1.93530405939257 -0.6727407121146801
Ni 1.2566551091943734 4.094340042341425 1.1957615503989707 -0.14106023250984093 0.7910687931343279 0.5119572901442989
Ni 5.690799933532177 0.5909483790858793 9.030478861745348 -0.12732000010561298 -0.2781727932258435 -0.8607469743567563
Ni 4.710893240158626 5.6247651839631025 8.282291324232851 2.2285262907523684 1.4201920256693736 0.48262331706687206
Ni 6.669945793764704 8.844601758321547 6.240817345321581 -1.208051846493571 0.12662091715605936 0.4246043173499268
Ni 9.042353425817078 3.4318956162863925 12.938409217464256 0.6658105606537501 -0.3725322792450359 -0.20774307854937127
Ni 5.6407519583775345 1.130978464131409 4.323272878784803 0.4027597106710096 0.5849025721537733 0.5324834351221087
Ni 8.830062422565648 7.806324317506792 5.661319505008105 -1.7015403884097213 -0.22870168307890934 1.0868790969362765
Ni 2.546313675493875 2.897558789964424 8.27988820492157 1.2227449297293715 0.9040497509094496 -0.6957919375071888
Ni 8.74049751634248 3.650755764218855 10.550252339392696 0.9760925757093125 0.8691477968259419 0.9469303523230594
Ni 3.7761911695053976 0.1703041480104615 1.0109301286214303 0.2735481499696386 -1.8851114976985792 1.0413484594943292
Ni 6.720346350131041 6.4174698108331185 6.471377622410515 1.1955933090152444 0.8444037571120426 2.1677191867673247
Ni 5.7745101359506394 3.7612528602731072 2.6347280535525677 0.10092016995584556 1.0685404465280888 0.01048110203698195
Ni 5.126976183769078 8.78021857337567 12.172554577710018 -0.8474273744297147 1.9131486063414536 0.4239643697730827
Ni 2.6322043143530753 5.496935937818217 2.7976335631892226 -2.8121235138311573 -0.3508067146424862 0.33916578796944813
Ni 5.300195621693072 5.026295690924618 5.423901523351727 1.0333541284349428 -2.406540474778739 -1.4284411530520431
Ni 2.8703079736816686 7.023816710417078 8.954186782451865 -0.624263333339583 0.7632635979966017 -0.41040540014172544
Ni 8.196854401722383 8.357956180107637 10.325151504013254 0.3692782910841124 -0.6935761608027926 -1.0414171079487353
Ni 3.177035070949404 2.4992440837327514 10.693969080505562 -0.027514146259868744 -1.2746452181430887 -0.3959321462262149
Ni 0.36469052062490415 6.141946150800286 10.302051867575544 0.46583324209272675 -0.2650861352452144 0.339655326011357
Ni 7.704567524121371 1.5644585070030694 10.244241538691876 -1.343731274307473 0.36968786781770524 -1.3086280028464368
Ni 0.6701186344811364 2.4129730283030404 3.943740544838178 0.461390890050657 0.9318564887090726 0.6045815386399395
Ni 7.968771471568246 5.367445848597197 0.13947184889313177 -0.39554982318613163 -0.7121351547519026 0.5492601403598154
Ni 6.272234186974088 6.9861369130305375 12.437852454758435 2.151410165194656 -1.8690243623287295 0.0964096836800017
Ni 7.652311277167173 6.904143224405848 1.9402905939174977 0.1666563358113904 1.3847470545982021 -0.7414537012103617
P 7.0811297142232 3.196937352504226 0.9795559678524449 0.8417871454248019 0.7473708380257451 0.7290558417666412
P 2.7481571407356418 1.4592779644830423 4.202954540294291 0.5339381652907643 0.7502183347768693 -2.9385919645697522
P 0.8744078999177054 4.962821794366793 4.101947445906366 -0.023659548400468928 -0.368103811160037 0.13189784928428253
P 6.26923724667469 3.0838515680799063 4.791225157861885 0.2434960677792645 0.7946349132190315 0.3647053270014493
P 6.447374264656518 7.742238043054972 8.586075296228238 0.5642512144520089 0.7039731877664005 -1.1924995005812689
P 3.861692113341147 4.323768348171763 1.3876269673498027 -0.45266662280378167 -0.5022683449913092 0.32553148501546514
P 1.0058863616036209 0.7441115131362581 13.722950661438267 0.6673982168558442 -0.3224649302749995 0.24890232639650034
P 7.202798067616383 0.231375853102299 11.807701684158676 -1.4266470372660978 0.6598715694614958 -0.3634372589223031
Ni 7.873982796340247 1.3456818651470603 5.135897416270226 1.2975365209189655 -0.9712087652544499 -0.7561933214133816
Ni 8.15784778556552 0.5704652663770567 8.169333582459094 0.7259841448198529 -0.8166286438813032 -0.8769732064076315
Ni 6.598557376849647 2.0316100555914884 6.983152034719962 -0.17243874682112237 -0.050803970025744764 -0.0832705751948824
Ni 2.043653487506714 1.5567109987987449 2.056982912999328 -0.4464980320992246 0.5252882029252502 -0.8355817879450383
Ni 3.80120587862978 9.032351253548502 5.040919460602265 -0.03770059987456733 0.18563441957578997 1.423466325545271
Ni 4.3157332079263195 1.9705578352508235 2.603643380515289 -0.1731216318207599 -1.4555709193892998 -0.8318811991649996
Ni 3.826304093830615 8.751371863187352 10.219987662708517 -0.7494665442125092 0.7260628205765883 0.5706512044410817
Ni 8.311795876734564 3.8338474760702748 5.177873137367668 -0.1195663243021231 0.567106681622933 0.49616814563084227
Ni 2.992106225416001 2.7326714027799324 13.723765309606339 -0.5496059537350083 0.3584457192449827 0.1644935238321167
Ni 0.43574676892473396 0.22160285862132295 2.866538138252426 -2.837149346451533 0.05046047064339697 -0.39610081059359525
Ni 1.5646719114206735 8.931049104357106 4.722904197488565 -0.5128846870545748 -0.17204459670649724 0.8792339774173503
Ni 2.2971501002616237 1.9283408743769592 6.106633286758562 -0.006413102615195406 -1.7181006067612477 1.416026324327458
Ni 1.6955723254884698 5.438797151700497 12.511809147447094 -0.8762946922833682 -0.10313826065308689 0.24750853137276727
Ni 5.479436775574678 1.8466069824345708 11.109352428764392 -0.33992991982898235 0.03266380878160826 0.7603847337869098
Ni 7.474239208355921 5.822257054776332 9.086699791640513 0.6681410085591397 0.6224867010551345 -0.21108551265904293
Ni 0.04569266934492987 2.350900178139051 6.744076921368622 0.3307084012307143 -0.7412608684732652 0.6673853613400377
Ni 3.731895835173128 3.5571918447788455 4.051076471976007 -0.6822612500106057 0.6216870879719746 0.6622524109888466
Ni 6.5283751588167 3.5099830762236324 12.583089934308054 0.33128818499358426 0.5540110247812394 -1.1400646798203204
Ni 8.962911311750698 7.107230002341483 12.274920037608256 0.4203527411624245 -0.27225977017551817 0.7155122987542516
Ni 0.2946808818166286 7.151005743309151 3.7191147662492274 0.28137124555848314 -1.368415150207398 -2.2598017038268825
Ni 6.714760721461575 6.45865686343072 3.955772842609876 0.6835372885095519 0.8180424935096943 1.335199325577062
Ni 5.3556250995525145 1.895782783012918 0.41377817590032784 -0.214944738504133 0.3982520526086431 -1.222612003695933
Ni 1.4189909218205548 8.020758643387204 1.2981808253242588 1.075731050739257 1.381993403112465 0.43453083243501933
Ni 6.30787272471398 4.258967632843617 7.581850705546047 0.7789028471957552 -1.1233170280483364 0.3213439292966788
P 1.499750576204316 3.4844673306405274 11.549519452669413 0.060752853708340535 -0.42578213970811185 -0.1858370225048993
P 7.57467846142396 8.852256481996479 3.5842793602898695 0.46493515575848965 -0.21623106141572437 0.6564825983846049
P 3.5051118884304944 6.348169045829406 11.981864740746596 1.678777383681593 0.8255051204353268 -0.7836892128408051
P 8.71963027568197 5.906690976524061 7.049177505836097 0.6554423300455485 0.02575036949122662 0.0936200367500065
P 5.20786573649399 3.045178976228859 9.225419158000268 -0.30285898311861387 -0.1880502281061342 0.2397988214333354
P 3.5840900798499074 1.0072966864503963 12.663279891681343 0.7899801880558395 -0.0962091376334214 -2.1291402980528624
P 4.701095193854714 1.0021471450690789 6.985392781104805 -0.8995166389257861 0.8290915522350044 -0.43570145570435287
P 0.7652431897055384 -0.1676764901380487 6.788442771943231 0.2211020163547805 2.2759574876511386 0.6022603467059305
