# total energy = -340870.55022025766 ev
CRYSTAL
PRIMVEC
9.25031174389365 0.00000000000000 0.00000000000000
0.00000000000000 9.25031174389365 0.00000000000000
0.00000000000000 0.00000000000000 13.53876627302930
PRIMCOORD
 96 1
Ni 8.24866955956207 -0.26393174704036126 2.886221243437346 -0.7716176263882518 1.6596851429368318 0.03426689160267002
Ni 5.64894342376752 2.455624778191743 2.4228573986156476 0.24171737861228693 -2.462380978787127 -0.3497199093362106
Ni 0.8274450178617083 1.0670419695852318 8.764848059746022 1.231643260660266 1.0316721127468298 1.2595685263156242
Ni 7.6486110818154796 6.634249638071049 11.001317225284128 -0.06977074093623468 -0.0811239611655248 0.8373404225073577
Ni 6.9583528134677275 2.065622381356986 12.667289134573352 -0.4388698261300054 0.6537004076537775 -0.67781529842411
Ni 3.1597492639644935 2.361983871591846 3.2366452560995933 -0.12096911818692072 -0.7673287692049108 -0.12071894984932757
Ni 7.008859516029758 8.956262912269024 11.853731609853837 0.11161647332742712 -0.17086548879673155 0.45179938970747996
Ni 5.045730589688762 4.288657319032301 8.418418331729614 0.8072829410003451 -0.24811274061566949 -0.862783802281127
Ni 0.2272755363732259 3.0876060820448457 12.459049814903864 0.3922094459589891 -0.08735091591184312 -1.478475591901615
Ni 3.7740347212972356 0.4540737566563051 8.070837864922233 -0.43902254965778575 -1.5652289834387754 0.524390116591013
Ni 2.4466149744746337 0.2246567730956964 4.624260482089257 1.8503131590724715 0.33736910108034157 0.14307134940259877
Ni 5.2561751836972235 6.1707072622311365 9.9384295707393 0.17755678477397807 -0.6852648127236198 0.10012955573375014
Ni 7.154653680696455 7.500254580773383 1.3971467472936778 0.690965719763139 -1.1272413028034072 -0.9338287819440949
Ni 0.974094836372176 2.267353181626723 0.8346130844945503 1.575961282254615 -2.510267775166077 2.3027923484557955
Ni 4.971644842285959 8.52928701907155 2.2269376442340914 -1.3669516782879942 -0.13305356015528053 3.1569071622080145
Ni 3.5661432133523494 4.33283680830634 10.141321285143018 -1.2975462911109783 -0.5736573382572572 -0.30163230980036443
Ni 2.84993782033674 0.47223951901735195 1.6182615759917547 0.7761018874118505 1.2830187869187646 0.08945510673903949
Ni 0.592559249950427 6.490536793564874 1.7904339298573322 -0.3315987742554676 -1.19075012199033 -1.680385351598661
Ni 7.795219273922737 8.921305983884057 9.661859122653059 0.10097184912938739 -0.6592956423533677 -0.22868599934962552
Ni 7.012846400426138 4.5468057711199545 1.9160337387798592 -0.09629192715521481 0.12486562502784945 0.056520560794547814
Ni 7.784766421560999 1.1658723011187 7.225070754429643 0.7033134426952146 1.9872961361891455 1.1212472900035013
Ni 0.11350687627429558 5.588353881316733 7.446917282793041 -0.03421829775292171 0.05752123414492028 1.837839709195809
Ni 6.585204484777296 5.650293969293904 3.980235272240594 1.056754252526438 0.03529430442591986 0.1711609085499633
Ni 6.683470547289466 6.002018575798683 6.582453442040675 0.1535056573620453 -0.19486236593196118 1.6853676353046005
P 8.684433248992864 3.687979070393468 1.0362439813965825 1.2239343220517824 0.5180505475262304 -0.7092912575452043
P 8.373123254849533 6.899446827769007 3.1906536307391247 -0.7771400988683778 -0.9627755468854322 1.4949165110664577
P 6.543402325642164 0.4150429909438083 1.4630801948855066 -1.1814856659692683 1.9292735369277743 1.3064320236363824
P 2.2732733811944335 8.819145540093754 9.516290665594882 0.38464886000291176 0.014668400645452157 1.4281925273763467
P 1.1801547825758016 1.0320757908884413 2.9351914692053196 -0.8582841146385606 1.8610416012335693 -0.4537488001243669
P 4.818709436890711 6.5996534718472395 3.1098549320452475 0.09959528049683493 -1.1070200906605256 0.5754707373169121
P 7.0748697412097306 3.3885649772565065 4.09551728335402 2.0031665275624984 0.7779931908972924 -0.12248066973544068
P 7.603293804187021 8.571181681324926 6.285019840665349 -0.8858013462222228 -0.6295564634177222 -0.4347334353641287
Ni 3.888257571706751 8.10669577367891 6.220183480055912 -0.49115475157665084 -0.501542265458562 -0.0633992901922521
Ni 4.746621756842011 8.374057536343813 10.212169423407229 -0.9282384323405111 1.1711125502650606 0.059378084848000966
Ni 2.901545310005892 6.023275792371494 1.865249526863092 1.256100622371682 1.7626092306965837 0.3408421472306066
Ni 2.981208995438897 6.7879713199713825 4.3194488320026725 -0.6612825908764095 -0.26343728678788175 -0.42419062685127595
Ni 5.3054423444747645 5.974110385024022 0.7752057318949397 -1.3245374749878416 0.729615313814537 2.1773821637783857
Ni 0.9383701321057726 2.496187395542385 4.540726466188861 0.5631502680783462 -0.35854033584131806 0.2084717291852797
Ni 3.2639540266680234 1.9537306095272562 12.545738187136429 -0.05507842903138256 1.0909383546073148 -0.17810700085049327
Ni 5.394865108882667 3.5396780712223186 0.45853795714283185 -0.10984035526361083 -5.913537270957558e-05 -0.36305287899969085
Ni 1.9027706416858226 6.518028720307431 12.953242173943233 -0.35669094133740503 0.7571497717893798 -0.21167763771708706
Ni 2.6953651097485474 2.9678607954760747 8.232882977402294 -0.14746047960922992 -0.05086953315635756 -0.05694479281615999
Ni 3.060770927441832 5.2855356734283365 7.069456458730006 -0.8745954502040744 -1.1896774577514415 -0.45581982372078267
Ni 1.3803407807708394 3.016350930060354 10.19145520013852 -0.0692817171149581 0.7410400107117109 1.0033089882231045
Ni 4.7056891270183865 5.4124037001020096 5.316158830723502 0.7722233782930507 0.8512884000470178 0.4687113349714702
Ni -0.12663029365978148 3.195760727897458 8.085757692864046 1.0079153766468643 0.6480164698951227 1.6125907605521907
Ni 1.2704378259833875 5.117707265995568 5.468957331503747 0.8783420617307003 0.022920613351915364 -0.8503849143961419
Ni 1.1268174845954593 8.667255419934678 0.5238803098090722 -0.9646503953106418 -0.39669730652701357 -0.6660177915685497
Ni 8.220520860679969 0.5670311644082225 0.452316197409641 2.4094201103193793 -0.14212955431461974 -1.2297609560358886
Ni 8.013767141089502 2.1637496891917882 2.4082890825231673 0.9188407931756949 -0.08447513702594484 0.3202010739414873
Ni 5.977764258194719 1.033019322694545 9.366389362478085 -0.46364600463342087 0.998703628240609 -0.1893085259932675
Ni 4.4363755485585035 4.396682460519369 2.8540671595352185 -0.24933015796253835 1.2221646317458694 -0.8176781681917401
Ni 3.22015380017879 8.955134374226429 12.155564659532919 -1.4671953910021054 0.3307752499129078 -0.5421183871087115
Ni 2.6055353316203638 6.4831457944170605 10.620457836656753 -0.27135114231831975 0.6154719603001981 -1.2260089451926242
Ni 5.146632991070929 2.952440525664554 4.618519738570943 -1.239916813522968 -1.9546958336556206 1.7337246864517497
Ni 8.720379960743056 3.6009983883072456 5.968335415351958 0.8989864774539291 0.3557918265619034 -1.6381686090212948
P 4.715383453810513 6.373455596801573 7.712236576607085 0.7340630651732455 0.7758979989311605 0.16516998107385103
P 1.755043161847795 4.868226356087515 8.851794515678494 -0.31708669668222167 0.5937543661174484 -0.259998693419978
P 1.2123921192843503 1.8741131756533735 6.790490179881207 -1.8611824976868077 0.21820875396738548 -0.5686812251989045
P 3.2609661759486945 3.9564231195418436 5.038519971621526 -2.274080839453716 -0.561820236413013 -0.4649598383488379
P 5.248071910538918 0.9953520529449867 11.643799483120457 -0.4602194954503751 0.08049866887670007 -0.044967822959941915
P 1.6531324764767525 4.717298268358194 11.66077658041205 0.6109000246587996 -0.4089668679229859 0.4733802012020492
P 4.754845284054033 2.2947063536919106 7.716947760419327 0.8244949340032574 0.23229274286427734 -0.08082648452976403
P 0.588865600438885 0.8368544350496382 12.382853146342697 0.9709961350230116 -0.0582542556562029 1.2005144004659452
Ni 8.921259732324934 4.7377599581140935 3.6952035639284393 -1.4962396007532555 -0.08489371262060218 -0.08744938916292036
Ni 5.625678889528782 0.5959855654502395 6.450409865901169 -0.8133466306959218 1.6745013820140582 -1.4409225733485054
Ni 3.2140115931272906 1.8390452435265132 6.244701431546876 1.0749736037479423 0.24724653596063223 -2.506603696050928
Ni 4.276178648380985 4.403305683785745 12.21467507712296 -1.0676315615605743 0.779988109840134 0.6434594466520596
Ni 5.9785320340761565 7.674678460537057 5.152150802074272 -0.011716002885347564 1.280204457398421 -1.2175955243179482
Ni 0.045266400913424404 0.15322586518653872 5.208648006573879 0.4135586010587265 0.1542726174350569 0.6596681952014382
Ni 1.8494148430818311 4.585148313632704 0.5227425214546528 -0.676607651269254 -2.859652926870688 -0.24031381339654095
Ni 4.420770272510492 7.075915026445905 12.190589115194202 0.6528640277954111 -3.059658013345853 -0.8737125333784889
Ni 8.791385354308284 1.453529247926661 10.752284955499563 -1.1480602964312874 0.9850988929729808 -0.47515709059681394
Ni 5.261577365802759 8.495070115632547 13.635839334037893 0.7540503069284498 1.50476666438766 -1.771519645812336
Ni 7.131379896145893 1.1791187476514522 4.5587867749951085 -0.6217233405265487 0.25123611673599955 0.2675101713056748
Ni 5.913964857540813 8.193926214184394 7.915521429263346 0.7530421773789095 -1.3508681424625704 1.1113102333954474
Ni 1.1073363278929618 8.286540336171766 3.213656381153228 0.7530192945607742 -2.997006399952903 -0.1570946602648843
Ni 3.57145289233964 1.4690975227273753 10.2017581974487 -0.17311777516601798 0.18064365122941792 0.05186917806546551
Ni 8.692268263108256 6.719352506856888 5.557839877701096 -0.07798592975717536 1.0643222946816833 -1.6668652056250388
Ni 2.38686721039988 7.376457657625461 7.958439176004517 -0.7146512363055368 -0.1952896832773669 0.01700630475000942
Ni 1.7894635721469372 4.351476186632804 3.1706433562002627 1.2467677750065302 0.32147222734442704 -0.4650734811085668
Ni 8.243840896789655 4.084123674279725 10.666368059273164 1.2112837231673075 -1.240559332202973 0.31419343429482666
Ni 8.127055710004738 4.8932114483256175 12.848533269245264 -0.8587530838551791 1.2080467042872485 0.6816706676144583
Ni -0.0031182801160550455 8.606369867505505 7.8263548984929825 0.3941871385106502 -3.1578330164563937 -1.910348160778181
Ni 7.323148110580592 5.118706299672619 8.973020777170374 -0.9485863998692439 -0.6903005753753144 -1.6686814328981712
Ni 0.7366273064306634 8.047355023324435 11.487088100438427 -0.7839915745725724 0.8748538460717836 -0.6716788465090691
Ni 5.952649661591072 3.391330820492046 10.608016167252735 -0.6280348845668733 -0.15836529944719177 0.29197524632657457
Ni 6.596684121751559 3.6987186824217675 6.3588475043682475 -1.5194697749257895 -0.7573102086266442 1.168368154750704
P 3.337271998189389 2.8012256782686715 0.9232504974285493 0.2793853254767059 0.7238354739079663 1.6697073030595244
P 7.215548483437453 2.7689790912482986 8.890068605883743 -0.20908108063450445 0.3189962550001087 0.30433659610540487
P 4.924255494808801 0.3629924113382606 4.267676686783044 -1.0964245745328665 0.7949316185238439 0.5641702247024284
P 6.076816597211977 5.5556725296406055 12.502428227173898 0.39798748609334683 -0.5040107816037126 -2.352580475622516
P 8.077622043614356 7.014104442834277 8.869814123112713 0.39553696767032526 0.21605571218012468 -0.4367070141507317
P 3.1885732356097836 7.831119734113807 0.5658406492764032 0.7172902165902807 -0.3454508496472115 0.03223392033304126
P 1.5043042095316037 7.6635040838530015 5.67818550950728 0.8217898763672685 -0.10359437435389901 0.7720068914068704
P 8.632446496538904 7.081659470088949 13.174952722722809 0.8093814754005868 0.581922663589843 -0.2613554645581886
