# total energy = -340897.65592694527 ev
CRYSTAL
PRIMVEC
8.99169847843480 0.00000000000000 0.00000000000000

0.00000000000000 8.99169847843480 0.00000000000000

0.00000000000000 0.00000000000000 13.16025961800691

PRIMCOORD
 96 1
Ni 6.380257622440404 1.9244393203017947 11.397258629823376 -0.15657889697073032 0.29727300439040416 -0.034346852910986006
Ni 4.5511572833424 0.23864957408543885 5.951858928422001 0.14420546300704198 -0.04258569588101053 -0.034752315879520795
Ni 2.7119502749175 1.405438471949182 4.74118065008539 0.20767134477117136 0.5014769594382654 -0.0470172492898029
Ni 3.5467935314342487 4.378363809628052 4.984803532715941 -0.26161026088147205 0.18958183425931224 -0.4201113145755797
Ni 5.0834118955631995 4.490760043245648 2.7348728123864077 0.28718450980615057 0.4156329670892519 -0.5266791697355059
Ni 7.2307374429780324 6.2180653614808685 2.7225946478260212 0.20353366845371398 -0.9346571913826611 -0.862911843218559
Ni 4.999240604131654 4.565319208778217 11.249521423676931 0.3636036092968383 -0.13410334157603354 0.15620454435044712
Ni 5.625152749901324 7.970979037583522 12.280101372283921 -0.22129176376808343 -0.12335175948648432 -0.2097104866883872
Ni 1.8220868141202669 6.531012442667015 0.4728347697715868 0.4835692259199092 0.42745078565978645 -0.40800501823034896
Ni 2.754112350072133 1.6490955230347522 0.4562792541446493 0.7302120668582714 -0.5366964447621919 -0.7029408898471442
Ni 0.5986295336062696 8.991662722612947 4.485055709597088 0.21082583123975304 0.32557287977636185 0.28149902938559906
Ni 8.551006544941144 2.3866485997321085 1.2535435043287557 -0.19810247013581367 0.015194962572883509 0.4501785662746053
Ni 7.095286493920795 0.4971069612137739 4.872796639651595 -1.2887060671115287 0.8486489055416416 -0.6205779140681957
Ni 0.8007107682917562 7.494284131564572 2.5500763200915695 -0.9218906357456123 -0.4757839255475354 -0.1311774261784902
Ni 7.599828690780839 3.748099681692708 3.713285622707059 0.0011443980170883516 0.07563542724712781 -0.3568372371072822
Ni 7.763918200163841 3.945854110968851 12.40938851188957 -0.08805642661929995 -0.5888155340549343 0.3093412484088479
Ni 7.672508591287323 8.569169776293748 6.98597890880301 1.3018940265567127 0.25511668273732835 0.2952983971625366
Ni 6.806751874676391 0.6745833116055654 0.33450377962413186 -0.18606610779656987 -0.03201511945401583 1.0515171724972148
Ni 1.8970236309977906 6.380851074553905 9.446645373806586 0.45433706852766914 -0.25540258940886335 -2.198773484969968
Ni 0.12415557716360372 4.840698972840017 1.3937240868966216 -0.3887379424706208 0.08822894764142224 -0.23685876496840497
Ni 6.369233799847191 1.8285698288753296 6.959368875701577 -0.39242130485947896 0.2295097808025015 0.32077828660119595
Ni 3.368784872480044 4.430515662026616 0.4062503418066538 0.47987532200808963 -0.1397404852571529 0.28823377700627134
Ni 6.087568838401494 5.505967783773225 4.752775445545382 -1.001418713178927 1.0151774575259163 0.4875230683613345
Ni 5.239049208178157 2.695900092756908 9.270797420047444 0.1894525077702995 0.09107515884096573 -0.20886870751338218
P 0.35163836064666715 5.6906392914562804 12.334782589523815 -0.3781485969905487 -0.4785296066134726 0.2176073729379607
P 4.205714203092734 6.273481200503688 12.483862256284588 -1.2520403362593793 -0.889928481016719 -0.3897602130875481
P 2.330396532731174 8.518771305139618 1.3328188158239185 1.0366284283108405 0.10032058869863368 -0.5619151101196646
P 6.161273792558569 7.605709261723713 5.83085044579969 0.20514883545963378 -0.724848488553513 -0.47680208239940464
P 4.722889736611397 1.142745994738136 12.741500499662319 0.2056669127466329 -0.5283208191039869 -0.5154557902158606
P 3.9232040219702333 6.016147775711528 8.199789894963011 -0.05304237243796026 -0.3788024285244638 0.6106012624714581
P 4.812465038955277 1.0995768493302895 3.8775127050800084 -0.287003504143596 -0.7966043782405765 0.5860325719931585
P 0.1831465155853319 5.622644065966979 3.535911777680327 0.20396767066733906 -0.01633730370744283 0.6214479753779749
Ni 1.4926489575377475 1.2598898452637395 2.4731811112394926 -0.46734145120713705 0.0015169508651586778 0.8216973166534622
Ni 1.7777127810880398 6.441428148624445 4.912869943200679 0.7559680927764529 0.30673723512709755 -1.1757487634854913
Ni 6.136528637765319 5.540999441867157 9.155487876054481 -1.0197013135381987 0.5944678472447051 -0.4381347477361938
Ni 8.433287225699418 2.3438391222718384 10.078074825892076 0.847939795289759 -0.3109353323688452 -0.13811271984574278
Ni 2.253292716469503 5.110980443744923 6.91528257702741 -0.05049235232259691 0.3060975446605696 1.2340125322233908
Ni 0.5284583170341318 0.089249802851323 9.049705036822944 -0.026587263570225176 0.047854143368801456 0.0014081932014362846
Ni 1.439049441650188 1.1542373856631991 11.254746499785346 -0.4078044721837687 0.22270047119015193 0.7034291423374724
Ni 4.235045124217582 6.684356872116173 1.4549197898369928 -0.8885994777926502 0.6475606133046268 0.9632709984646118
Ni 5.582307305646296 7.790254885625116 7.993857515728851 -1.6377207228505988 -0.10730010534026038 -0.13688681785844167
Ni 5.319300118981121 2.8740166520953854 5.024890323813058 -0.5085593202063435 -0.6455734076712688 -0.8687073668544136
Ni 0.8252185422396058 7.27799781128956 6.977819841412241 -0.6017736368774991 0.20253248088270925 0.22000621218744043
Ni 5.167223519047169 4.332739930477997 7.176736897328925 0.29074625901547996 0.4447298844552083 -0.19567432031029527
Ni 8.032769990977132 7.311105245863958 9.087370363463004 0.8036011212733839 -1.0796316713452438 -0.32999800542725105
Ni 4.531546388500802 0.444731215517843 10.415634883900738 0.05277189238539299 -0.5859706084069715 -0.6183418256488254
Ni 8.141003068101531 7.232293006851299 4.8859703774014465 0.08401362400849402 -1.019361927920909 -0.48001570424069595
Ni 7.416793672259257 6.0056005131488535 6.881763322653037 -0.7879826980098364 -0.1748123892596215 0.8054404884749676
Ni 2.2903834735633097 5.246215592033615 2.610784672962974 0.48702350301709674 0.5857561784033203 0.2132660652501295
Ni 2.552185772604104 5.187940392827564 11.43276504960811 -0.9909622937322933 -0.09525011615426177 0.18235189216977626
Ni 1.0506620084599114 3.4867919260798304 3.763663412954204 0.2870852652241249 -0.7789486128320262 -0.3911390957129457
Ni 3.608018007810425 2.6760644054480744 2.8070572702951035 -0.134628103731252 0.30638165155989167 -0.1212784218972234
Ni 1.046831544818224 3.2980921373839203 8.123920638931395 -0.3037799522709865 0.1359563356243723 -0.1818456419573191
Ni 3.4295327888256826 2.7224256038906605 7.173473809874539 0.39105039265388136 -0.28424111090711046 -0.9666982789786062
Ni 4.10756082019916 6.714793772179818 6.149802183370622 -0.07081846547445868 0.038958897761700646 -0.8870989819877239
Ni 0.8051598608032751 7.5527481564431005 11.123196149619575 -1.0065277522707183 -0.9812844043228972 1.6841458470823576
P 0.17247876426021863 5.597467309636638 8.1931432312918 0.510725731730043 -0.9326807843825807 -0.4192535945609747
P 8.371280471537263 1.5055790202531156 7.839329778732165 0.36281608039853647 1.1304937483024338 0.2376007853407521
P 1.73656676788531 3.2420738545489107 10.385103571000853 -0.09209948634042203 -0.8683309573516015 0.047555895402092284
P 3.9519774577763385 6.161381692942842 3.783667245028529 0.19872159177705132 -0.17771825005250683 0.04206864703527593
P 6.877750327527954 3.8902764213696224 10.292915281017832 0.22038236457993657 0.036089803744021716 0.414787331259505
P 6.214109014057529 7.60925199100734 10.088247134619403 -0.4345639996658 0.41016731598899037 1.2249846176931676
P 2.3563465751488044 8.417416877512613 5.723028289305396 0.32292927150592776 -0.45555037210947996 -0.38799797898080274
P 6.944666549174526 4.008328433462856 1.535815405435987 0.18593343887344752 0.3879671257428673 -0.02597225569404559
Ni 5.353001005669022 3.1102105932687465 0.39276639045201794 -0.2651840942756594 -0.3935644173249867 -0.5392670337028455
Ni 1.2812721047471511 0.9706718569189406 6.773217334414245 0.0757333862775728 0.6159622696730552 0.8112187857196416
Ni 6.83227930725562 0.5852085241424595 9.08150058255856 -0.775909054674754 0.48808896816713354 0.6803290659848993
Ni 2.5155805672395255 1.5850116864753432 9.05054755899014 0.6868781799573267 -0.636558091546536 0.6945338967303717
Ni 6.1639173519732555 2.0563115732806483 2.5153072195993675 1.312195665593037 0.07730021654406041 0.09619191124224079
Ni 4.08083749169424 6.898584093391312 10.384431891108754 0.7408718605649628 0.24216629322424746 -1.0939889685081805
Ni 8.054574860298946 7.218283940293203 0.36160296113426876 0.5172535055462318 -0.21465317540564324 -0.1934040362188798
Ni 7.666196418807358 3.7895514126508774 8.086203160438938 -0.2721399567682023 -0.1557905967414801 -0.11324501006978561
Ni 3.0118054428118683 8.310901214837891 12.178307250591004 0.5205198350023293 0.19236865297583 1.5247865591530125
Ni 0.15360518871115184 4.761185381329585 10.319064939146367 0.06238884664986674 -0.21374146222465124 -0.49470184549796087
Ni 8.583655402882384 2.2911387762532196 5.705064673663697 0.1159032736282391 0.6973078599310829 -0.24296822030025253
Ni 3.6869021804125994 2.5286185303391666 11.340853703944722 -0.4263616663606657 0.514800673130365 0.33786532399046976
Ni 1.2131240203801301 3.265056636399037 12.577168214414703 -0.5285702161106316 0.5680819010520087 -0.08369763542997198
Ni 2.8740076603966953 8.34568110536852 7.892379002659933 1.007251003589988 -0.41989868434414135 0.6065651447288715
Ni 5.5693412761361705 7.848386217652137 3.678094811546324 -0.9293386073832253 0.11230964273970981 -0.03682745324099464
Ni 2.9668109825700726 8.170828532654298 3.3602751288403887 0.5764940363751039 -0.18100900498863665 1.4011393799132967
Ni 3.2868974725156077 4.090332725510255 9.237607261845103 0.7363917133064221 1.0862484053308132 -0.5035397555045651
Ni 7.394071649671123 6.099878473907294 11.270314726896189 -0.5826898807731706 0.44412876053609956 0.32573588771678746
Ni 0.5077306532153091 9.108410938396217 0.39144550991454397 -0.1095901869260177 -0.23035567374256455 -0.20350950008399793
Ni 4.474206325958448 0.39713455767533223 1.865927639420212 0.15549569120888057 -0.5607187758187182 -1.5875939813975368
Ni 6.08293811357645 5.6076099457582895 0.23019827648726457 0.31657710403565475 0.04516091280735448 0.38483603631305335
Ni 7.866063897275512 8.75162033440052 11.183904502490979 -0.5217359667976176 0.5074992543729453 0.4668004911020025
Ni 0.10983629700072195 4.785786668943804 5.667768905839772 -0.08354928277756578 -0.14443583385029318 0.15589652619172506
Ni 7.696939036626443 8.72215453779533 2.6366187224675115 0.14093142024146052 0.3306749768896176 -0.828062853860174
P 8.448851856130783 1.6366150452538542 3.450870089815647 0.0029665388274916654 0.11889629481829202 0.13096299617483897
P 1.8831674233174134 3.329724933373257 1.6056440382880581 -0.626184975842328 -0.28845052100276775 -0.25239645559268786
P 4.513751816794463 0.9800951571454399 8.11094471855271 0.70871507332676 0.0370951050800845 -0.09167576853944212
P 8.478281685941214 1.5523808119314826 12.309830625660709 -0.3134118189337957 1.056010175271562 -0.2638165245041715
P 6.180632919836864 7.6276040480324205 1.3526374189052421 0.5291363730267468 0.925873017432128 0.44484352721493714
P 1.8183282840680945 3.1822071246748345 5.807714805071845 -0.5883907878126899 -0.2027656799394379 0.42584410329429884
P 6.968566484290972 3.9069740058358526 5.87770079265098 0.5054680828755294 0.0681915693745729 1.252417774203456
P 2.3524981281097377 8.505112914830407 10.122845392836506 1.306315038442544 0.4060268114580556 -0.9771549555355559
