# total energy = -381170.7035517793 ev
CRYSTAL
PRIMVEC
9.22069674389157 0.00000000000000 0.00000000000000
0.00000000000000 9.22069674389157 0.00000000000000
0.00000000000000 0.00000000000000 13.49542172699308
PRIMCOORD
 96 1
Ni 5.800371624159269 4.625378211660278 4.429899436293578 0.7537263479301277 0.7670379774373693 -0.8501815401360842
Ni 1.377406151973039 4.284977742310633 2.894133346600828 -1.3927593833797174 -1.5121968954134601 -0.010376715248633742
Ni 7.038489927986584 5.422728759823487 11.794027497810841 -0.4370829094329117 1.14329835626627 0.45417226081503076
Ni 2.773631746423599 8.884252160901896 3.8045213407592224 -1.0526302030557355 -0.8830098995200147 -0.18648931137691754
Ni 7.302063550338334 2.9086043083961344 5.6178875770059795 0.643798318048717 0.9081786854761584 0.6717192128287013
Ni 4.764629177018198 5.910494407848161 10.85946929073411 -0.14721879591206904 -0.7734899037103002 -0.19281679625684212
Ni 2.488426369024193 1.823245290960336 9.459710325211828 1.5702752876134312 -0.2974910339384812 -1.3410177320310517
Ni 3.194067865310176 6.359616114950106 13.236256071420929 1.747010090706746 1.2521958880006372 -0.04866815462966457
Ni 0.7078452428573342 8.781312300138035 4.9606741031777055 -0.7152657299610843 -0.09263170469480822 0.0846743975209445
Ni 2.4760982972003593 8.601287412861645 1.4435646525983257 -1.4642561058681234 -1.2980234878577128 0.13152915309095414
Ni 1.112523190654209 7.465352872648189 12.918115286581319 2.389118936868182 1.1675235473622216 -0.2942406453219836
Ni 5.345855809340838 7.503028640391035 12.542469625205179 0.6398725006317496 0.7690041000248046 0.48206538768087304
Ni 3.5197705437195133 0.552955975470078 13.190061301764814 0.41214346587875467 -0.37917729536537925 -0.5731366898670969
Ni 8.29273523078165 3.4232667294276324 11.524510214204307 -0.232142076219026 0.21472979427984956 0.4090172615449472
Ni 6.890368652161552 7.81326821001311 10.738954781581148 -0.6065656589495038 -0.39808621645474024 -0.933523077778218
Ni 6.760956170450625 1.2542084200072616 1.63958560494576 0.26045583556205465 1.334353689747315 3.3318326800067326
Ni 2.6395535920553352 8.76407881753613 8.815479592690927 0.264197561992674 -0.5768815016215098 -1.028153815180926
Ni 3.4639115615887834 2.613034867623513 7.307838472838909 0.05429038591244844 -0.5286483776467347 1.8003697372748089
Ni 5.885045284262685 2.162898883856929 4.148871034613093 -2.329944226280239 -0.7390859723091335 -2.022988704494748
Ni 2.8646031425447243 4.332372124640107 0.6553130881866189 0.898854065641123 -2.1899160345793383 0.28408401650395587
Ni 5.241403754276971 4.232346004112844 7.879666448759129 -0.9885655113653427 0.5819517170555655 -0.1783718244761057
Ni 4.499027001337169 3.026214298009449 10.218706462336579 0.010797347725820115 1.7949639928782055 -0.5014185953965042
Ni 4.435265881919211 0.5791805596691549 2.178970558642974 0.4115582827992461 0.8481670808092168 0.011770253162050697
Ni 0.616204424137547 2.124116632479932 4.9699722539833555 0.05133901659360836 -0.42690905422370345 -1.3514841787800143
P 3.0989471555609835 6.704451739533307 2.9689795878935916 0.48729269751808335 0.877044168854883 -1.2723224835471827
Ni 8.022559589412797 0.8946206023717408 4.134943171868215 -0.38994378985326394 -0.30350433001209665 -0.9454979907519071
P 0.621270275042569 1.0239860585282157 2.686533965091697 0.36168710900041584 -0.7900403518698136 0.9917559932781822
Ni 1.8770757197617889 4.0387482509242005 5.231230559330646 -0.6288406682976202 -0.11175994088382687 -0.3941987084748759
P 5.438090440944286 1.4218867940659148 6.105692874027543 -0.02033691178513917 0.5020505725535483 2.2199845718299445
P 5.26086864554108 4.809331115837904 12.821109866375288 -1.4585855378459074 0.22986999235539768 0.09252680368582775
P 0.9418665314802991 -0.025201086837487202 7.127027060112577 -0.434386079327039 -0.11232378380709686 1.069936812654983
Ni 8.155946191509717 5.909249613759741 9.80818904716047 0.3927838304052203 1.4444429277969384 1.143783266322488
Ni 3.6538948015725334 5.839725558747245 5.603704300955552 0.437049485091815 0.345055928201638 0.4109967538688212
Ni 5.094803893448897 8.096481916871044 9.028194616868616 1.6786454860894187 -0.5374628906145712 0.841301464037635
Ni 2.246973198658513 6.46221480992677 9.834626629459121 -1.103043622511281 0.1470339335947726 1.036517356654273
Ni 4.833452459062399 0.06091930061758094 4.625191953581862 0.5374603195114098 0.19195367692559845 -0.32330439545715933
Ni 6.902779710257947 4.051491254110841 9.761725033153379 -1.2406858304785084 -0.3388503136115584 -0.6692913201134989
Ni 5.135983526033221 1.0007591229079933 11.28367114225558 -0.3694430987967508 -1.39965482494797 1.7003134579811556
Ni 5.052775956745056 5.118620953674 1.5254011042498388 -0.05852165038497663 -1.2367846956518893 -0.2834093590344345
Ni 1.6228334427247117 6.326790433803622 4.424461069231724 -0.2530631426424093 -0.12609075568420222 -0.3667285280790652
Ni 3.180015523156457 2.125960771870184 4.127952961509465 -0.3255764793207877 -0.30152997989454516 -1.1284134687346372
Ni 8.796554112198466 2.4287776804464953 1.3461369244719281 1.6290057115751042 0.4911046150650058 1.9579446796102216
Ni 7.125726941842449 3.470642670363203 2.7527560885259477 -2.0482724187622017 -1.356460291838367 -2.460095782297376
Ni 3.934047237042649 6.2272622309117285 8.49702807036406 0.6659589133061563 -0.465819615245972 -1.93531202981237
Ni 0.8637220468880703 3.3831935804774584 13.220871338557751 0.13011478924193076 0.4352761952414762 -0.7777183399693509
Ni 4.709849016430765 1.0856356383443364 9.000447695602887 0.3311881690806103 -0.10529155955066384 -1.513428453827716
Ni 8.259651370120531 4.554554038377654 4.080178686465599 2.552181898901359 2.3387404844156303 3.234166241101495
Ni 8.751391138531199 2.3661968102382978 8.855776804577017 -1.7699700419370288 1.2296426852904694 1.1813020892035526
Ni 2.241219483760927 5.0875472049482555 7.165988193010428 -0.5666364268547338 -0.5099176340064507 2.058466585686384
Ni 6.867067950965719 6.159121280441921 2.516383522180411 0.6936468661397279 -0.9075613636071338 0.37199311891211423
Ni 0.38414253361672485 6.938851076731274 8.419982692848421 2.4186470282342865 0.8727226586613938 -0.9068514820243028
Ni 7.729000260575551 5.025455031678475 7.57272696657591 0.6193648675967011 -1.0528798571726965 0.1416191903371045
Ni 7.135676073852858 4.07849867548108 0.305631065285836 0.9308360178643583 0.9930639134563284 0.7086376831216054
Ni 0.41701708445705016 0.3827953897921458 9.293109850626777 1.3041308863070316 -0.167665236691879 -1.5949691908156853
Ni 2.0588340980650153 7.38739187992529 6.515953953828405 0.4045625682077032 0.5871664284872855 0.6404674539032711
Ni 2.6699726712975402 0.7231267039146565 6.1928201615896885 0.6756612281955847 -0.3659299434371698 -0.7630285991676601
P 6.237727721951408 6.0852911599531865 8.6876373956708 -1.6646540569063328 0.7847297382901776 0.7226339974006974
Ni 8.706182061379174 8.987247345847464 1.104243004791978 -0.2917086229287492 0.2628773005193537 1.8362229995279924
P 8.630120532228233 4.894050879426076 1.986310550334274 0.8304033290678925 -0.07510886531969646 -1.1314347720594644
Ni 7.5511145749918525 1.8530281421129042 13.15711851776705 0.048877699537309374 -1.1532192149244074 -2.4886710228319076
P 7.412472175632716 7.26681282589367 4.435620878751834 0.09070440576510831 -0.22713613836400237 -0.10315574415458365
P 6.6469330319513515 2.0633706809650345 10.445699735743293 1.1039995586666471 0.28376031461594997 -0.9644645045520811
P 2.82386610341406 4.321141315753473 9.375526284116523 0.06746780383467091 -0.04401857167279515 -0.0919984419861835
Ni 5.3718397333494865 2.5352582888396396 -0.01962348725167036 -1.9022756681826918 -0.0006926551916504201 0.013028293938867886
Ni 4.767561358648699 7.41169763708881 1.333287883270348 -0.5589056338693793 0.7862328051982652 1.0040576934636707
Ni 7.338273227265931 0.22273515555462328 9.139288339946475 -1.1918459261576702 1.314137876921072 -0.6199035137089904
Ni 6.0118206466455515 6.041778691040193 6.346424985891635 -0.21268113928093693 1.2339287142603328 -0.3657761914681249
Ni 1.4720934889655224 5.968787653974024 1.3627406334720609 0.5523004698480359 1.268975421451821 0.5835370592648145
Ni 7.629951533925121 7.567850139958389 7.794551117271749 -1.4187758620481372 -0.41938806325630995 0.9403763532546257
Ni 8.95625658339428 6.568446459502231 5.959227635374957 -0.6095507097197567 -0.45515750754643547 -0.39010474091116043
Ni 8.64364729465573 6.598469048775532 0.5658972236411707 -2.1378887336694534 -1.7722909767607218 1.7643838060985033
Ni 0.9801508652219283 2.5933579003295253 10.681586371359497 -0.3952127515616871 0.6368139163110839 2.1706535868053005
Ni 9.236833170924154 7.465611052162823 2.8938641022498515 -0.7227779791777293 0.023601441469023866 0.7157318709642254
Ni 0.2897438044388159 7.9050325860720445 10.670546430899753 0.5349586361354787 -1.2830110736092806 0.2796709750379248
Ni 3.1676597892417693 2.780777786560825 12.141668980476307 -0.6526344282831082 -0.24013949260220577 0.3722366023814879
Ni 6.921553049250711 8.676814141589412 6.037042019016331 -1.0642896416715348 0.26881063528465315 -1.3922379636586086
Ni 8.312762584559787 1.148594557127536 6.774107650512207 0.4885211706085458 -1.1980901072951688 0.2207027240338328
Ni 3.5925495047558047 4.511161438525027 3.4030328320377885 0.33146276289823556 0.49957460020922995 -0.4391493050436372
Ni 6.560286142700367 8.38702607780523 2.744186372779447 -0.04000945051340206 0.9941849144346491 0.47075253377121506
Ni 8.312200122045759 0.8628921841624569 11.213791168340766 0.04935618183562467 0.1373017939086732 -0.6031579188195354
Ni 6.60643573094142 2.4659370891600707 7.904943145311617 -0.7337558183454719 -1.4650240943823996 -0.2037686672826555
Ni 4.168059304968663 3.6427008754737047 5.550424347762089 1.281770259223644 -0.7112090433932075 0.345055928201638
Ni 2.1086811857835235 5.05814240237069 11.74486366373642 -1.0683838663455663 -0.8315348715691744 -0.5733920004110125
Ni 1.0375865865313234 2.4679379803984944 7.23258836501968 1.392406113805357 0.617641200037375 0.11596035211841965
Ni 4.933580007256125 6.9807591443747485 4.2757007991079705 1.3153594080329991 0.5343819376964022 -1.6023240885188597
Ni 2.2975671628300733 1.8676890502654067 1.4270596050555713 -0.10811540215270413 0.532511974367199 0.17895237956992407
Ni 4.478391081560251 8.28628996361272 6.852219862665106 -0.13995671503301702 -0.13105864121243882 -0.5227772635779384
Ni 0.5483603801095702 4.543747381550778 8.858827011128493 1.0245115904426485 -0.8644079681481114 0.3169969651818928
P -0.10749580712747779 5.930660072080566 12.018941504055046 0.999283412003479 -0.5223067516994231 -1.0300278922751873
Ni 8.175826014136632 8.142447091173073 12.536154369863262 -2.0138054953335836 0.8518509574187071 0.19779008110171742
P -0.20560955510704912 4.068567984864574 6.248569417426699 1.929249368558058 -0.17747373814186854 -0.8683296718000207
Ni 3.700772824872737 8.20524003741115 10.905839253632298 -1.0853688309393374 0.35457543765629906 0.7959466900519195
P 5.858775518648547 0.08069861764772758 13.824305097417804 -1.5824052381077458 -1.8091850215735938 -2.021696468045886
P 2.0551919227692674 0.5309351070110802 11.396438421830094 0.38887318249690445 -0.012450567058526943 -0.5569078867130601
P 4.348729641031641 2.864234314666674 1.915419065963906 -0.7959091519457648 0.04950530581897926 1.0957763994259062
Ni 0.6405037268132011 0.8491893064231902 13.057387459542227 1.6374864953526058 0.7760080421464636 -0.7866994604220386
