# total energy = -340866.43809796986 ev
CRYSTAL
PRIMVEC
9.32486540629795 0.00000000000000 0.00000000000000
0.00000000000000 9.32486540629795 0.00000000000000
0.00000000000000 0.00000000000000 13.64788309395642
PRIMCOORD
 96 1
Ni 3.7272046834370283 7.8444405155036 5.075361098189204 -0.6298783655335152 1.1410609822953188 0.49981551257544243
Ni 4.7139805987614745 7.991260522560577 1.3533503648271679 -0.13066371976686528 0.14306029365900524 -0.0300515679697418
Ni 1.0332603697657947 5.631435464072484 9.94971632847625 2.636373957469247 2.5995516464345747 0.6745050031039546
Ni 4.846766683263942 6.903542938363995 11.50688494063577 -0.5236007879204982 -0.6040205239301468 1.7790501498614264
Ni 8.091428227597481 4.434644928301087 1.1345610459590922 0.24584939850278947 3.5163175593591123 -0.8537672006048135
Ni 1.8129496724054943 1.352646337483071 3.4983342524934176 0.4171038952078236 0.27006996161305097 -0.08281574704565091
Ni -0.02580470025587629 6.695598438054654 1.8105419921373385 0.6269925593452879 -0.6402586803265747 -0.43303727860862834
Ni 7.936141242680375 1.438686871310618 6.449484465856692 -0.26243841320972217 -1.0051527263000624 -0.879615272016169
Ni 3.7360353310510614 5.94525448709538 9.057840501676388 -0.5970332939790363 -0.8168024504550062 0.13004202702246637
Ni 5.293884658390966 2.108342761230576 10.536274612115642 1.1141153069444103 -1.4503569792885278 0.1408206056952091
Ni 9.149250293050038 7.641773889058613 4.934951936152975 1.181067090374611 0.05977737716894867 -1.8461196898164143
Ni 7.830434567545545 8.364049994908868 13.309183751684612 0.1677868498714078 -0.2500498097373823 -0.10721191650182826
Ni 4.448333830832662 2.1928726668495977 0.5183357027800534 -1.1362725597677399 0.17639721724823815 1.4120794238645682
Ni 6.130026696675183 2.8497814656519385 7.8256555739846245 0.9725873907695315 -1.6877749591945124 3.7631568325789964
Ni 3.648167123588509 0.13438063650035528 13.067029117371463 -0.21324343954231018 -0.1946314808680777 -0.29935456950978123
Ni 7.7227696706589235 2.472143063251592 1.8362133468167832 -1.4496694663032001 -2.720788159350269 -1.803746367056526
Ni 6.025056685913647 0.6259278657158941 13.654980535914273 0.29215676620976133 -0.4192836764679617 -0.6012187928152936
Ni -0.0238660607216022 5.3004120642302714 4.11786619297334 -0.4605761074588455 -0.4401129545084872 -1.3457539611644564
Ni 7.768051217452743 5.320973392624088 9.013566972841467 0.9944854763942033 1.8073839638091131 -1.5561033669884232
Ni 7.786411877592164 0.5449376790348736 8.629775091707751 -0.000287449333431763 -3.6299410358142388 -2.508708658209073
Ni 9.175005571518845 9.19256429322658 1.354152303258854 -0.6142905383975872 0.680844315058421 0.6804709908794023
Ni 0.08593050041482715 3.6511417556781356 9.593424408143534 -0.40775047901738165 -2.665019389120081 -2.1201324381272975
Ni 3.0734010648411005 3.251878990218715 2.3042675099301086 -0.6677645990563275 -0.23264241289421225 0.7246535989338875
Ni 6.019443116891844 2.958556021531242 5.791124717984928 -0.6929434123148002 0.6022734593320531 -3.211749563969191
P 3.396815374447778 0.2777047514871092 1.9049170907351316 0.3558681883257936 -0.1987565587800448 0.8856164839049264
P 8.018759550875027 1.500548028936276 13.506586491563473 1.2528047252292294 -0.3906207613156305 0.5243440938444259
P 7.069478919664657 7.662027496891432 8.890080576686914 -0.7087004180387407 0.028311702460499626 -0.3823366669299673
P 4.382668128089237 0.293683840981732 6.074986678151601 1.2092309544033368 0.69071992230092 0.784176951110501
P 7.442958432058815 2.040942633506992 9.847125090899867 -1.3504269411600935 2.8793552903956217 0.5068695912087464
P 8.964683230510898 4.787460538781098 11.234527999504149 -1.4960683652827136 0.5726463804942395 2.4784591152959123
P 0.3565856535954851 7.3408138555391504 12.642661949054071 -1.356158444327232 1.8619808252183867 0.10809149089330417
P 5.3217753310557745 -0.03724537771908397 11.601765446942835 0.7042395540539098 -0.8662907869931209 -0.4426107812296764
Ni 9.179136486928579 7.873748567722087 9.81980230254308 0.38673479599766303 0.2862298592023651 0.24004230490270917
Ni 3.8872100502894043 3.8303470205635586 10.171685426474617 -1.640296711107891 0.38946453622400024 0.6419370964702622
Ni 6.418472760714145 6.315246499798253 4.511716806505427 -0.5454366528486672 2.148676311203261 -0.3262483085768317
Ni 2.2012557209203645 7.737670805703512 11.607647572090599 0.09269701071510486 -0.8644323936281436 -0.02772857626351999
Ni 2.668673928207632 3.77932135663115 13.567919861802697 0.7436843903130934 -0.1424321731567031 -0.6176224309842976
Ni 1.5373532730044812 8.425137188699294 3.121243219697025 -0.38939845887275515 0.12168748441018398 0.3301892955024507
Ni 5.882563416441582 5.2651733975635 7.384924199228088 -0.24044262566492142 0.4712055621482336 -1.2378121084751392
Ni 0.818706404800881 2.3516191768615364 7.115091499183182 0.629917960522199 -0.7507988898706877 0.8307185463154662
Ni 2.0181992865897507 3.436819047377243 4.67010057925001 0.734022184632981 -1.1213673605211334 -0.28001575997185324
Ni 3.618141056727698 5.899749143529927 6.674114880464399 0.013098227944854861 0.7512472902620159 0.1193711775721815
Ni 4.287740997454748 5.147260473509167 1.622665534837671 0.9278946758478471 -0.41911089833552334 1.562557093033567
Ni 7.807234302219553 3.04201356761952 11.85534304147477 0.3594134824748907 0.2321485039769292 -0.19898384429950247
Ni 0.9816938636352719 5.424190328674496 13.319596828971404 0.22039907675048495 0.5824646521362421 -0.9476461474431613
Ni 0.3459077501289279 3.1126773982627576 2.5868603559043097 1.4211847285999457 0.16947992130311457 1.704879222974967
Ni 1.7729459994760288 1.2318427051284737 1.0995946653644748 0.15247978720069225 1.4442457241844675 0.3721340153653527
Ni 0.2815475285533639 3.214430330432064 0.06323191285191238 0.4545751526804042 -2.3292587701774403 -0.815366232229112
Ni 7.266177632199421 1.8676493333388842 3.928775638187561 -1.0085347553984179 1.9467950907513054 2.318092983368608
Ni 4.80108416725428 4.232500494323244 4.017595914416104 -1.4897156835918086 -0.03591265473620912 0.632813279792123
Ni 2.7068219529056368 6.808699731518869 2.1523803709687326 -0.06278093988196284 -1.4952903494661085 -0.08606047923519372
Ni 1.2914192707103744 0.27359528326799143 5.623391835105361 0.45667085886716835 -0.010401654949298214 -0.615191967165934
Ni 2.338172720832565 4.115678579530623 7.944965362888569 -0.26457422860580243 -0.19622453638681045 1.1034393152878028
Ni 2.3223484241049883 0.7476052379664101 10.890805997844842 0.793430351387969 -0.9958299062372399 -1.2546145247444587
Ni 5.436620374365633 7.715869270200229 6.965824647423014 2.190399916194292 -0.17259866943775434 0.41157165253568473
Ni 0.9059610361145388 0.6280212980172145 12.795081537834623 -1.6989597721667387 -0.154414799439876 -1.170402154461597
P 2.860598309614218 5.427929599733871 11.437990969461532 0.3755047316097984 0.0833129983970436 -0.0673968413874194
P 0.0769571823588774 2.32618094381921 5.125189449393375 0.652571950476289 -0.40611371474490704 -1.611344289739599
P 8.022815867360883 8.409499389281411 6.5206313245320375 -1.343891454034421 2.298834135138996 0.883828281656252
P 4.5040872015658255 6.762122028422674 3.544682563898689 0.8351806958518779 -1.5307749155259636 -2.5733659891781424
P 1.9879587478227911 2.2352635053431524 9.124210231763909 -0.5855515185916819 0.17273519501561863 0.9936038451201984
P 7.894356520443328 7.842594192137626 2.968045937135045 -0.4046132189399806 0.7695908257662101 0.2945643472099895
P 3.5399986839657123 2.195567552974683 12.047204946282609 0.805131184764665 0.5996550478725995 0.4364748435352676
P 7.444040116455043 4.625897919392774 5.105904695084417 0.2335484696482494 -1.6485118999288317 1.5043573447643832
Ni 3.088041103652117 1.569402835675477 7.40157467903761 1.0438470575464667 0.2562492536798748 -0.6732783297857049
Ni 8.939394195316329 0.4032342256693647 3.794438828554984 -0.09995137828467301 -0.09609909441811837 -0.049304502662082826
Ni 6.700148972411198 5.275691845830269 10.921745901523154 -1.1097665430574113 -0.7210597109350421 2.4438309836990815
Ni 4.088086302561326 1.5876422725635966 4.304719712529333 0.5613008735744333 0.31242811486428773 -0.4607969652204
Ni 6.599738820871692 0.39831535912617283 2.313084170245915 -0.20963901002050347 -1.618619997465406 -0.28831450964553573
Ni 6.330902948947104 9.019550739023014 4.816037521545582 0.08401850910450046 0.0681486319517794 0.6029558301110584
Ni 8.468917432150072 3.875740465743194 7.157264135824395 -1.0179709611106533 0.6296012006127286 -0.9061513706334845
Ni 1.2757628215615229 5.094696206771779 5.988281281414992 -1.3425084576439654 0.5660090776833799 2.4523565046715894
Ni 7.654847350468196 0.680966951752928 11.494656312039103 -0.8050157422327232 -0.8631265303325264 0.31369438317122106
Ni 4.657555837713411 7.865822432060072 9.54743137411323 1.2842200063157172 2.2095356085824784 -0.6803156962484606
Ni 6.850148758598467 4.42223353234092 3.054696317165293 0.7601142537343425 -0.18184795595016423 -0.5622930622843735
Ni 1.890112934291584 8.07304891772709 0.3775805882343409 -0.5029640855067531 0.087674617799849 0.7447843082454915
Ni 3.272375044554138 8.240868521855665 7.474536156536284 -1.4128985773317537 0.32674273171474694 0.5043601945233314
Ni 7.912027140536879 5.993809061674337 12.90182140806516 -0.3778336368532912 -0.48868160744580996 -0.2071995473410754
Ni 3.477326263042883 6.3236948279274126 13.433174623061888 -1.4747521203034406 0.39859529488067486 -0.8697977717051149
Ni 0.09126245849899225 1.2923517572588468 9.962177146223485 2.378540647131704 -0.7020482028295457 0.34169961013489536
Ni 8.097666562606761 6.297529255377277 6.456458532752717 -0.6669058506004579 -1.4241258135061408 1.1841590990363735
Ni 7.058466253527198 7.632616871152614 11.067695898630408 -0.3179881254505685 0.4785699729331048 -0.3491524668685148
Ni 0.9745789912704276 9.041893116724413 7.832711699696914 -0.555265723123947 0.18227244508209253 1.0971879350614524
Ni 5.589650741835437 3.5338256230148253 12.613523609387405 -0.27780615391504415 1.0162303242704627 -0.13126278680344491
Ni 6.702181793086869 6.674524242059178 1.360313241884611 0.6106277448340193 -0.3646852723967913 0.7036289170531043
Ni 1.4865234312472513 2.792965060253516 11.462406264760185 -0.061365547591674965 1.454385897942263 0.3863105639760508
Ni 5.376484316854649 0.5480736312973862 8.458029719210108 -0.5076501781285129 0.1480186661055451 -0.9621721089734784
Ni 2.74520309924076 5.7552044036512235 4.379960187152473 -0.05652570300087039 0.006798768089388291 -1.1874457402074452
P 0.4034486975755133 5.713680777647748 7.958490147787613 -0.46146442360106976 -1.0928016330682986 -0.799187051366088
P 3.7135717300983617 3.8756845165502862 6.2852325552625725 0.8295566647968811 -1.639686331217402 -1.498696032713548
P 1.7588374779976417 7.202283653898093 6.010391469965822 0.7060071874772937 1.3270268170685984 -0.35292736052991475
P 1.3516206022797514 4.73979182642319 1.6395612586094421 0.46216504921252016 0.22972215392362372 0.9855226107739607
P 5.533151381863495 2.6699234601825848 2.4612730675560495 -0.4946151993214256 -0.1794789414973554 0.6609048958220166
P 5.42374273513123 5.574376612171459 13.573133394095207 2.2735229100677166 -0.20280681759001845 -1.5365784095816182
P 5.747651262608597 4.346478325143023 9.237010332072968 -0.9091335931902602 0.5265475292536481 1.0570650988986376
P 2.376274121203146 8.099484911376281 9.520517947351221 -0.6091388189933187 0.3389649848125517 -1.1021810174006694
