# total energy = -340885.89693517034 ev
CRYSTAL
PRIMVEC
9.11377431572057 0.00000000000000 0.00000000000000

0.00000000000000 9.11377431572057 0.00000000000000

0.00000000000000 0.00000000000000 13.33892994548710

PRIMCOORD
 96 1
Ni 6.601379957944756 2.0176437543794155 11.558595887964323 0.17643089869965098 0.4309017203228643 0.2637486473807135
Ni 4.869744660815797 0.7083662653145176 6.1044140613716955 -0.7403170165027573 -0.7677139204584714 0.9221451749585796
Ni 2.6689231617968776 2.036791793659359 4.844059311409482 0.9243085011584854 -0.29901004168616896 2.0594178938560597
Ni 3.5668668638891075 4.6209021741429765 5.130819655019097 -0.34496131160530263 0.29203720991276155 -0.4223165497570146
Ni 4.000008089409633 2.998942033936838 2.872405483643324 -0.34757303819653684 -0.21255258412287265 -0.15427750253106332
Ni 5.538704789891083 4.85870788044073 3.0759169695667326 -2.009343088686856 -0.2964805903960958 -0.8183559109850551
Ni 5.908596423501656 3.357951821331202 0.01949345131645526 -0.6326520716239104 0.09578413428086086 -0.13667393051668722
Ni 5.635547752950906 8.24270686800805 12.928931106280046 -1.0037815569841486 0.17755112834702325 -0.7310466469444249
Ni 2.3962846110783964 5.795293984506765 11.731428587679188 -0.5399771723959926 -1.5371669350952364 -0.16245412480458474
Ni 0.7026938523455328 7.7483028533205625 11.351842632611177 0.4090995368461083 -0.11192166327267175 -0.2115601383026163
Ni 0.5076946313852222 0.6654622625947343 5.065699005296591 0.9312952168889639 -0.7675102890880976 -0.6758350347692877
Ni 8.652288987608225 2.793508453066195 1.633618479971443 0.6027735388969232 0.19479757413229679 -1.7729486649493786
Ni 1.8965854936676125 1.4680467240425514 2.701146732706967 -0.5104873904669918 -0.8764990949846905 -0.7473135024252485
Ni 1.8970320685960833 6.833307279979985 0.5064387533210735 0.7310754432998312 0.464801972614735 0.9718751951938553
Ni 7.754901225733071 4.593506169347397 4.123156138511199 1.1565621632547114 -2.740714980181183 -0.6838525057571255
Ni 8.142345988164763 4.170362753960188 12.770931073832248 -0.6037186764190119 -0.29728894523000415 -0.024081209318919817
Ni 8.30654885523128 0.4308883005752607 7.013475656428039 -0.21358153960801926 -1.253269837791106 0.1588306691193845
Ni 6.6306898552909255 1.2147567156331238 0.9593450206247573 -0.4014718450975215 -0.6567366233769399 -2.300726467065702
Ni 1.9605733012756505 6.16372741426927 9.533025884293252 -0.15583970481186066 1.8533480892440535 -1.4749830053673243
Ni 0.25851311231772645 5.3544060510433775 1.455997403370484 -0.5334008047300555 -1.1018848263164895 0.8094850908579865
Ni 6.707938204142332 2.175749506606198 7.1274971721955085 -1.1532634378987816 0.13277125302817136 -0.2361414271864062
Ni 4.035460670465788 4.625358809653634 0.5554981990345144 -2.38921869567084 -0.7449889680571299 0.70894287306685
Ni 6.300434025025653 6.053715047706582 4.776083316276978 -1.4676844148233819 2.397694080131703 2.489949375323699
Ni 5.8645039846456966 3.2833464669544186 9.150545394586826 -0.7137369520213837 0.015176964850754508 0.8510040360373796
P 0.22627222523694093 6.042933453004928 12.703716078832954 -0.15864683524335257 0.06509339006522338 -0.4940930082693684
P 4.0222456980926715 6.539096426084148 12.84889758807883 0.0667707777676463 0.2538010492496984 0.2842295409428847
P 2.187287544554037 8.554880970557276 1.943348268320346 0.5469957698056708 0.07789516981558198 -1.3597816429021161
P 6.624191734392971 8.299513021664351 6.0693059809746455 0.38466865749725365 -0.6413891943865921 -0.3731058923603187
P 4.7399098356934335 1.4814166305745258 12.926196062687513 0.09206709044058982 -0.6302588888013856 0.15833238932672733
P 4.0074904979050325 6.71882005035854 8.226544501107025 0.28628050993464244 -2.870864479315791 1.3861051112879934
P 4.96233149139407 1.2426357504533758 4.017125579831142 -0.7002489448372778 0.815110407464564 -2.0943105919681866
P 0.4040555270159977 5.690339762542065 4.175538466243425 0.9298443433750502 0.36050363021527587 -1.6602780393258245
Ni 0.48659715583589197 7.623845154887951 2.877180189868342 1.2109523079698177 0.029445816064942832 -0.16721760763149912
Ni 1.9122702988083948 7.047171101847273 4.860225323820127 1.6614111244890035 -1.1039568783541698 0.4231315894591423
Ni 5.943256106215425 6.001319960690686 9.21697387088557 0.32158072789783326 0.29326748277543685 0.9536527586485577
Ni 8.927843946022842 2.5815402962013967 10.645079480152129 -0.16806812855725248 0.8840005455680582 -0.5685308156639692
Ni 2.406975068039545 5.772099429548432 7.0346979906818605 1.219906431839312 0.8469326941814833 0.6465391140186478
Ni 0.8621858096053855 0.49992696176204443 9.488580742381542 -1.064984096635398 -0.28886241172920574 -0.26623798946147054
Ni 1.5651995554200882 1.3057577495266235 11.665441218044487 0.7184950355316594 0.7407021677563179 -0.15504189150091363
Ni 4.179759055006177 7.008027442300695 1.685747444785067 0.06592951281327356 0.9342722972394168 0.45448053608406896
Ni 6.0133228011150965 8.330363146825043 8.323812166037596 0.11497613382827941 0.5508796782411093 -0.7973492268264011
Ni 6.99785647046042 1.0425246136281814 4.827785756465042 1.0197599346902761 0.09487473509271402 0.2056088058151878
Ni 0.7340534374756421 7.872724096656973 7.664975617177522 0.9259259821572505 -0.8031326662773975 -0.6389731287459318
Ni 5.085403896171017 5.194705388357771 7.148038707527763 -0.5896403439490748 -1.3542578848704094 -0.5427819888346394
Ni 8.223795786853417 7.881154337653616 9.40266519440818 -0.6214626306659943 -0.5576113405379881 0.7321699619155906
Ni 4.8378829067355085 0.7755648555205206 10.42716094020981 0.2326994913843928 -0.7865238540761228 0.7061794513890999
Ni 8.83079136615986 7.450710789252016 5.307707072808997 -2.4007007281685104 0.8715314665667699 0.4504349052597855
Ni 7.1991159428159675 6.3632643833292875 7.030389909688224 0.1331242654922159 0.9673652231386438 0.1479549027471452
Ni 2.5889862496005946 5.425858039598714 2.8045370310446147 -0.7811021688399193 0.3411504224996447 0.34997136322538436
Ni 3.7484314705216857 4.563303122144287 9.493169527615931 -0.36371185273992845 -0.06443493054561807 -0.12893259600837148
Ni 1.1236280889029187 3.453728472827124 3.624560699137921 -0.32004269398675206 2.473746283201275 1.068966992542546
Ni 0.7841126642024148 9.043288121919582 0.1574313329470514 -0.39086861566037845 0.5873806013806206 1.2424915162286794
Ni 1.2612278495162441 4.097753316100448 8.507595976651453 -0.5873759733949304 -1.1543983228341732 0.5156375672093635
Ni 5.294674375916889 3.054135049586215 5.18881697894379 -0.015288036507322056 0.01711686218594471 -0.4695166044815849
Ni 4.322699487213051 7.303751182688904 6.081111052502162 -0.020138422621087896 0.7012871562938052 -0.6134829548946273
Ni 8.07933335438012 7.46920263680033 0.7871530192256367 0.403022477414093 0.3148575502413868 -1.9520298567876835
P -0.2953145319333449 6.037127978934808 8.445916688010389 1.4533278889913939 0.0729761352474098 0.5046044493236536
P 8.645061764786238 2.0963503070788905 8.305150802291946 1.4855980618790092 0.8480058726410041 -0.29788724093563534
P 1.9514504134511745 3.4499280290480967 10.669302980200756 -0.4278868447559406 0.8188989279727187 -0.6419409531250042
P 4.1420735993076665 6.419551051864715 3.954525800010984 0.5508364837079996 0.2879548123132718 0.4967972945744089
P 6.953517959705099 4.174281676801871 10.87560236960619 0.8504939291701805 -0.33143576631504207 -0.6252375243273942
P 6.230841246376603 8.092110865598817 10.576077274061548 2.192100958045799 0.3089267865792486 0.17801984045332567
P 2.581795481874809 8.880552572475183 5.752400006938438 -0.9207842900553109 1.519946714562208 2.0771037411715967
P 6.927461679694933 4.390433055955814 1.633445318264485 2.578179608516702 -1.0289739970893763 0.11855742342163453
Ni 2.7129335766863822 1.8953460203967547 0.426763406440038 0.6963614368574136 -0.2984091748773764 0.24138159253942304
Ni 1.738662016921838 1.0526500165982042 7.381857137678456 0.11172805920462693 0.7149068039597688 -1.3606061956859405
Ni 7.27303776413897 1.0450855841363509 9.457407989619465 -1.047772874963434 -0.5990881196255359 0.4192227413230393
Ni 3.027003344238098 1.8743205436624228 9.361300508125513 -1.5462817529123112 0.5000286570275131 1.0090448622656172
Ni 6.562746669745002 2.531751748563922 2.8037095003608363 -0.3929242126378265 0.087074779432321 1.2487902047531978
Ni 4.237585951356127 7.423651994096303 10.826955777857233 -0.7256308752454922 -0.8478474926862689 -1.0523124147050005
Ni 7.253315557093849 6.4809140925462305 11.856787638365386 0.7108812277401435 0.22105033718123862 -1.0096670692306482
Ni 7.7660655989448415 4.156765003076953 7.966955963451348 1.0700365714576412 0.11991110923605157 1.2324184482633935
Ni 3.0497513242679606 8.710061201313872 12.62481631412361 1.014929603181168 0.11218777244986486 0.5719069312250536
Ni 8.994356269042848 5.078522996762945 10.47240718286055 0.11132465311862118 0.39439642630797883 0.3208875584855506
Ni 8.873589649100659 2.8001888494451572 5.903596607057592 0.426504105475801 0.4959542298478233 0.18004869795789638
Ni 3.762056562727072 3.166927117234282 11.752650921933009 0.5505492914848842 -0.5952193806987491 -0.0699751436375569
Ni 1.3435434567396878 3.579644375107804 12.929504362667817 -0.3293513729821876 0.7176697114168865 -0.31908907182423113
Ni 3.6873600706097838 8.693000216291475 8.308392571721681 -2.306113956629861 1.7682211775667227 0.16656840408327442
Ni 5.727633325956406 8.225171966735031 3.800474765859236 0.1618545435473729 -0.1672384335671055 0.3350995883198745
Ni 3.390551791109574 8.577483130202332 3.8240438969310415 -0.00587857026796407 0.588740972063257 -0.5207016119958322
Ni 3.890105088135551 2.956991331982729 7.339345938620246 -0.4649577814663089 1.604054183836089 -1.3613441022932296
Ni 5.197302813962142 5.133533736931314 11.404838317336997 -1.1716200860290982 0.19726326206396994 0.7413215465078716
Ni 7.739371354751146 0.014139109061830236 2.5875918421708795 1.5380863615857125 0.766975242520234 1.4038547219619306
Ni 4.260953668021418 0.5783810629203229 1.8095854065822499 0.538786237411685 -0.13483430620478712 -0.01786453898524665
Ni 5.996434977799658 5.7833458267266575 0.41922084703590584 0.7488839322361619 1.929079418639097 0.03026522664244465
Ni 7.791985172344252 9.022736561435872 12.144348171336627 -0.07837416633452954 -0.8438576548005854 -1.160334742923266
Ni 0.2884445690541341 5.302311718571144 6.3200113230633725 -0.7735348980156227 -0.8364035125153853 0.11796092748821621
Ni 7.541611571630961 6.637552527150896 2.758597230188635 -1.3442120705986333 -1.4372710926388472 1.0636386383510974
P 8.762510970974072 1.9787917356024511 3.573125292529535 -1.4470312573494046 -1.24605583654117 1.073395203517229
P 2.126270827286438 3.673762319726549 1.7251235055699308 0.06647073002872422 -1.0757235945400894 -1.3532165880900888
P 4.825232988353518 1.4387459404704332 8.274818339497319 2.440629446042648 -1.0641687998229543 0.8658770964944701
P 8.694084755403477 1.7268232244303352 12.657389853957236 0.03743114826326457 1.080785839554345 1.4118500814625812
P 6.110101967756566 8.156490565491023 1.6435297092512806 0.4632461980918409 -0.09683622969445903 0.08746224467872679
P 2.042925363595296 3.712459404344656 6.508717483041864 -0.8733700624374056 -0.9915878431314342 -1.5558213169716302
P 6.787364744991791 4.277540736793193 6.086887362495321 0.8360939516947665 -0.0913014159191589 -0.22727652059660855
P 2.5744862350863675 8.81900725631266 10.492562294173068 -0.10127626774368363 0.17459513104249288 -0.4498571783794446
