# total energy = -340877.10189957265 ev
CRYSTAL
PRIMVEC
9.16798735810397 0.00000000000000 0.00000000000000

0.00000000000000 9.16798735810397 0.00000000000000

0.00000000000000 0.00000000000000 13.41827621294724

PRIMCOORD
 96 1
Ni 4.963319068812137 5.190611807401821 12.935593538870927 0.043153909679654705 -0.12116837868192035 -0.1578248535626895
Ni 8.734561434338442 7.53873502428901 2.6382881780769196 -1.0001804698964516 0.18102006073223018 0.2206639003760974
Ni 6.587134625182246 6.86800508095159 3.4914894873962834 0.19936668156021792 -0.5149850212270292 0.954503279574311
Ni 8.126311323749032 2.42432752646921 8.323316699834486 0.861128011845259 0.3597693231524126 0.20390647841210047
Ni 7.959784004301508 2.1720520227675175 -0.38480517622633326 -2.283645086103383 -0.2999526081050963 0.9511796145177167
Ni 8.895083722171886 7.95096440061793 6.832760587769905 -1.3217241739087622 -0.4338865139828012 0.1989355075600703
Ni 8.59430956619771 4.148138319197729 10.363578906644166 -1.0586324433857577 -0.31048538931562014 0.05458991943073824
Ni 3.468790467895065 8.03339377350676 4.51700770007812 -0.8153253516888475 1.8660498530814378 -0.7318241485403977
Ni 6.404746687883795 7.2652172942517135 13.225267095946897 0.45907046944759644 0.6135909412274013 -0.13907842619312175
Ni 8.419191842746534 7.859312032608851 11.552115850073209 -1.9172780551287951 -0.03291757666362718 -0.3322065830427956
Ni 2.4233832237879116 5.4920643944285805 5.226391711035814 -0.23843125166184742 1.2600094705077847 0.15881421405915228
Ni 4.487693061015499 4.271200211343959 1.7849796033073497 1.1493602461896335 1.148937299719602 0.908331923224571
Ni 1.886982628861917 3.396629240666951 6.140578471190067 0.8468828147801544 -1.8831348335881828 -1.4694386785103273
Ni 5.759522084928616 1.6201758654528737 8.44671047311725 -0.7120500512372641 -0.7911528682077019 -0.7908934438987282
Ni 2.0202576587456798 3.9977099852682536 9.928061926035976 -0.4346858699556449 -0.23478465604819562 0.8443129971704492
Ni 7.013794413359348 5.520411810841911 5.721016538700934 -1.0485418919189748 0.5180790867713206 0.8564578600630991
Ni 0.9627670075127918 5.7746217598421845 11.489492996724923 -0.804913155216588 -0.5802380767985684 -0.8464030469302584
Ni 2.343878438814947 0.706214637783668 6.050260045318161 0.9871730018931902 -0.8624868398659986 -1.1174081187630691
Ni 5.620086167648424 2.2560766254286366 2.902534322661822 0.9496256397670355 -0.47310535027410777 0.9335899264604115
Ni 3.768363617546426 8.61535009681498 0.6363041514124337 0.4735892318890618 -0.6057429059378923 -0.1394126696040889
Ni 8.453562626748338 8.640837101222825 0.4982645185823554 -0.10215198548041762 0.8054006363759678 -0.16994117721024926
Ni 4.692661750780325 1.024238361669126 10.620028594916684 -0.7095388547796361 1.3994913027869125 0.3386744501553264
Ni 8.78789161586378 3.979639882502835 6.35881323842905 -0.26945212552339404 -0.7925523196583898 -0.5314570507401234
Ni 3.687657826250645 3.6017171142653392 8.530319765958343 0.5474732236627217 -0.9734386830262332 0.2057396749660973
P 0.29347093737299285 1.7927173845016742 5.8787215040687215 -0.1986082061276386 0.335194462026526 -0.8159812401052914
P 8.367246027287953 5.202044287436563 3.1467465816236935 -1.9131524629961958 0.9410201574862116 -1.0263453012172776
P 6.82121167429776 0.23568053007628115 12.406095521505604 0.5981596942739957 -0.3908084518464044 -0.8600394067667705
P 7.227261827255856 9.26507618148392 7.616213684091423 0.019464022261882607 -0.3407387888835229 0.30131092190520364
P 5.566719314174297 6.658507405511411 9.795851299465793 -1.8676825035888542 1.4116765319991944 -0.8172837609667989
P 3.0734118520343547 0.0032702210331937917 12.036877757111725 0.37641593057015815 -0.11224459382972928 -1.15147240743663
P 7.3898377442214445 0.1459204346246772 3.0681695969550717 0.07700299701861578 0.4086850750165091 -0.02144557146828565
P 3.5934934297495706 1.2881938810598812 8.016937236488024 -0.8637176269493061 -1.2307063506682934 0.34296742110372547
Ni 0.9019456636487299 4.184709420126829 3.856117757399312 -0.41420497639347376 0.10594847640837238 0.18971784561654423
Ni 1.7300908639585098 2.0584239894470695 4.002040942420148 0.35268027751611514 -1.0748748733865487 -0.15277906360866592
Ni 2.874136482318907 6.204783719128566 9.320307803553929 0.8006240409229308 0.14750933056929433 -1.0349510406084177
Ni 0.23781850469063717 1.027410485239311 11.79033041181076 1.2742333274166506 -1.4183218052298543 -0.6582471464841955
Ni 6.052356763990132 4.479139328960635 3.7659863584662268 0.7320812588565263 0.2560114266374559 -1.517403122204748
Ni 9.390494246339795 1.2737267972629096 2.155136169590209 -1.0906946140276248 -1.3415183258165542 1.4451859766105497
Ni 3.7989755267974328 3.5237708871158757 4.421765148282669 0.23475174592773118 -0.47685144758010134 -0.70087706533958
Ni 4.7724965832923845 0.2543300496325548 6.044504382955844 0.2775089343895995 0.27820570334630795 0.441986003161484
Ni 1.318420734848611 1.7630497779319656 7.795710038227918 -0.8359414852773023 0.8474402299455212 1.5028082551097086
Ni 0.7768732319101829 3.5662186678382963 12.283934842500848 -0.5922248168467994 0.3258204770107937 0.05965036467278114
Ni 3.956160667291146 8.408767841303469 9.046936761311786 1.1592983312389518 -0.15032880229596046 -0.584807955557438
Ni 3.4393612289924804 7.347224939729478 6.71446513216743 -0.13044311911562698 -0.6640244152876047 1.3882902918647704
Ni 7.942419836550263 3.3328750576985477 2.015089664362693 -0.681807964523271 0.3888397581558078 -0.3643158048725145
Ni 5.659856896109299 6.591489419100853 7.728779147695731 0.6920319562441243 0.2888148463207219 -0.5065870269713211
Ni 4.188743334493538 6.206828180273513 3.4937163914864513 0.806712927429488 -1.0160842856109018 -1.041969895128412
Ni 6.250541143229128 3.401442433945411 11.933020047747192 9.513081696757811e-05 -0.7268624336597481 0.7786259393852848
Ni 7.802993087257269 7.127330766807826 9.302595252289198 0.5792726275615057 -1.6170056017904344 -1.2578350885642853
Ni 6.6629172073532015 5.550556152745867 11.062456404274021 1.476987951612495 0.36282019416359446 1.3077556275438122
Ni 6.717109179675065 5.610615636873853 1.4183517952966413 0.9988730639389377 -1.165351222301251 0.08920365284986573
Ni 7.920416667277303 2.1841812698292373 4.137592383524942 0.7823833495451881 -0.48682012875703906 -0.9295458382980248
Ni 0.42986308290375835 9.084356817855335 4.496598843778729 -1.135041001353484 0.6030198505797745 6.170647587086146e-06
Ni 5.967351186698926 0.736928311692562 0.9960202138752735 1.2750843625630364 0.9278411969020924 -1.7580740618303916
Ni 4.367482412887556 2.657707808557747 6.543958906276378 -0.036397821902743765 -1.8194699484393697 -0.9628218267423353
Ni 5.2719501898141985 8.636693171009751 2.627822003892748 -1.080855516450016 -0.2594106821269919 1.9189752403255596
P 3.8408273883520434 1.075854129588613 3.871789514713978 -0.2948967908487437 -0.16648227212737135 1.198048455423956
P 0.4590429525545831 2.670708014403188 0.7348985193271315 1.8003990478508476 1.1906033119998203 0.3243102110138544
P 0.9046208823128339 7.7506255443876215 10.127953384491068 0.6773707546875237 -0.8383117852816917 -0.548295719564017
P 5.1930596599834375 6.893675445103376 5.441848578154085 0.5678294187215704 0.21848848999133336 -0.2155700307929578
P 0.7062623113170927 2.355952677953484 10.110684563806673 -1.4404484619255644 -0.8457327603361112 -0.7955633385705718
P 6.070903602089798 3.3287953033958524 5.466874432805918 -0.6448653258606507 1.65379448848401 -0.9830787772191585
P 4.848416685271296 6.815390002427622 1.3294947465839484 1.9642125148968046 -0.0015179793064231922 0.7487281233845879
P 5.988859284663246 3.31651936853898 9.666432324997118 1.3269903074037082 -0.4138187966986486 0.9367654959749158
Ni 7.553183772111587 1.9105076840095907 10.56818087692111 -0.9476577174073872 -0.5756543140826279 0.32465011085177636
Ni 4.2681931115433205 1.955705860891131 12.91758669521717 2.589892783188572 -0.25653516035140983 2.0463672313196883
Ni 0.2876932718414012 5.223671569234444 0.9605905273522081 0.11672268420574092 0.13156000632888953 0.5306916333290086
Ni 2.1827418958392975 0.7291006842237062 9.72759288438747 0.5745109445068042 -0.16103796118334848 2.0281463374362874
Ni 2.554283744987634 2.1688890671845296 11.721441239213279 -1.84377561506427 -0.6664273683021426 -2.013312614857565
Ni 1.6713515699869015 8.482689322073421 7.999519894411036 0.4793937543859808 -1.4057933337455402 0.05681675187872795
Ni 2.0937665800917626 9.113043449794958 2.6507401382879756 0.9861802989626176 -0.19374033651237602 0.3487778571379155
Ni 0.6358329168705045 5.60968967016695 9.000281791264632 -0.33044203494320507 1.408630031863387 -1.3091319390660485
Ni 1.2194706490306673 7.674980482024622 12.632622733164334 0.3447096006058128 1.755413484279093 2.03380122172922
Ni 6.567139245105442 8.96167998117138 9.810584254891479 -0.26726977316009454 -0.27019980232269597 -0.2632776212815659
Ni 5.135823915912148 8.012399082825475 11.3939818229046 -0.5938304707710225 0.03730619264962607 0.8243540375500189
Ni 1.7954769486479913 0.6656215408712145 0.30164144756301897 -0.6436677060081237 1.1212683730494237 0.2022964536125032
Ni 3.1074617564842617 6.039943309325302 0.5923124816460276 -2.928855968228911 0.5706594319711977 0.2952873414189431
Ni 7.131025465648244 1.7915438821404497 6.196452769162592 0.38151108570487846 -2.0833360952345537 1.6527081973983664
Ni 2.524616138417925 3.696248230254297 0.7289695820067882 -1.513896137492754 -0.6945572937691393 -0.9109696179577342
Ni -0.34037160947702844 0.17596392866946567 9.195746028702258 0.7430007339825075 0.6005346222640754 0.10075561935352326
Ni 1.651677069461996 6.613364236553054 3.151443341464751 1.006153142540119 -0.7584065270146164 0.8123323304987946
Ni 4.294074339400641 4.876278198363183 6.721750931592939 -0.21884664466170053 2.2390179343123116 -1.1281977531794054
Ni 6.868711015965764 8.531664709680152 5.228860649987984 0.687594489298061 -0.04435255797344619 0.2532127808463962
Ni 3.590834713462421 1.8161415917901804 1.8649125332824177 -0.7543174445469073 -0.42004446589338623 -0.4191296673886008
Ni 3.009538485232389 6.863989502559274 11.594544378022515 2.1384520623720915 0.016131358344223832 -0.36848407731759125
Ni 9.007107357732849 6.33155864608961 4.876389131008267 0.5016289116350975 0.2826629677867132 0.19097511506241305
Ni 4.596425389172713 4.479506048448518 10.623906653501042 -1.2124116661241635 1.714508775644931 -0.3980340230605661
Ni 6.314414510031094 3.941931951161298 7.677467756951187 0.71158211046191 0.9701942079470066 -0.7212499725689772
P 1.5140655816340205 7.634054587176915 5.607819400778748 0.8091547041017613 -0.5854828701372755 0.48410555803935335
P 2.090768648278322 4.9265462721647 7.396905345551664 0.9722852861480804 1.7699260760729711 2.1999464222321463
P 8.167466418276666 5.357194134772528 12.62885194003018 -0.04989611349949471 0.44449231452310545 -0.22966199010964963
P 8.09177551597768 5.451184339516859 7.726578830768434 -1.3405037685091106 0.8920509266763604 0.03732367615112282
P 2.9105700634400513 4.269348277930151 11.857757290450309 -0.09389000258194154 1.7279489603102371 2.1746403393671905
P 5.832627614838027 3.07367772366307 0.8196886489192055 1.4429763705537408 -1.1786209428269638 -1.5498859253238018
P 1.277338984218554 7.601489896652933 1.3584793381074758 0.24089231160783028 0.619776758323139 -2.1249895091092825
P 2.738431935827921 4.677067004558114 2.834838821997399 -1.417133441348708 -0.384657344643344 0.16627889786731365
