# total energy = -340872.278726137 ev
CRYSTAL
PRIMVEC
9.22478896739579 0.00000000000000 0.00000000000000
0.00000000000000 9.22478896739579 0.00000000000000
0.00000000000000 0.00000000000000 13.50141110974088
PRIMCOORD
 96 1
Ni 6.306038139771686 0.06860014398309551 3.1212424389467492 2.1471663023166374 -0.33071045811324334 -0.2175448951311415
Ni 8.636976293733433 6.60454308956648 5.827465307162392 -0.5318789687688905 1.2345948870894223 2.247256263061704
Ni 4.241631816658264 2.4883315052210198 0.7594750398842811 0.5966473713945273 0.6747921953270701 1.049106249062877
Ni 6.198809191521904 1.3388766620806156 6.750692345417832 -0.11336225237394025 -1.6442225285248588 -0.09626441635138905
Ni 1.2860555198164856 6.046858465819013 1.5202323254504893 0.13832946384223918 0.5630829051755206 1.6025151214837434
Ni 7.719755515647077 0.6334035374625271 4.86220920738589 0.8320444642157413 0.8004458634738536 0.9163110847753059
Ni 5.750918007388073 0.28403217820936044 9.503602793639237 0.142433972928916 0.4819296334339571 -1.3380486221003989
Ni 3.5201887371872833 2.054960139096923 9.677784338542674 2.200352399421314 0.33453703094818515 -1.3181732233327106
Ni 2.54726868264427 7.630256612006387 3.5674648587362596 0.8713396622709381 -1.3129153173678807 -0.1721106740577423
Ni 5.173353963176198 7.526496184450164 10.560047778415631 -1.0610479948057854 0.405109956070741 -0.9361278623909167
Ni 1.9312464927636628 5.841736055867004 6.434178762383772 -0.7590863266904604 -0.24332380386745833 0.0760894840654109
Ni 8.49434260499994 3.9095117354610087 9.139415500646912 -1.176474328797606 -0.3211289850723953 -1.0618697193761326
Ni 4.43407936641626 5.324197714189655 11.11451018333794 -0.08309856839339237 -0.7605546837058708 0.09159889255491965
Ni 2.666083965976788 4.835496063172046 8.678760898343914 1.5218040794859211 2.2064474565754577 -1.2578127199667823
Ni 2.514124015484818 8.426734125842795 9.917205436767867 0.6288003019779881 -1.4727199203647605 -1.584087253795859
Ni 8.338157701109965 3.7437330509292788 0.9429210404593681 0.9275342071846348 0.32402610411453225 -0.418418243143873
Ni 3.914299400992808 6.21046010012819 1.4623375491931228 -0.6758221792534812 0.23588817352501956 -0.49482937221476075
Ni 0.8176594745187162 4.039516687945883 3.1254286482306233 0.45722544581905766 -0.26646424653966366 -0.882226484386771
Ni 6.824222216684538 1.6830535426036162 0.897985247899635 0.44710969754129454 -0.7498151858011796 0.44265757530721184
Ni 8.318361303747267 7.728445266959129 3.028933664552714 0.4463782186919087 -1.2193469597914164 0.5543408973168324
Ni 3.5986640178790323 -0.029802526076270645 7.642703619910158 1.3887065534665826 -0.6584767459964982 0.10274231076624887
Ni 6.352411154469866 5.898062617981007 5.420641039048725 -0.6054392586545444 -0.2708006691314885 -0.09577976340548666
Ni 8.873721280646922 1.7959188369804298 10.198088271985789 0.7144591748993889 -0.6704745417883228 0.6097121749982854
Ni 1.6051501988347407 0.8888333346547443 8.400226694425404 -1.0312046861921078 1.7548046470505003 0.026790380719966766
P 2.9278004569260787 8.239415558812508 0.9128869721772243 -1.6742015913854524 -1.3400635956478986 -0.023134014914302097
P 3.7111326463254652 7.0723321437428766 8.608081486902499 0.19961402168433365 -0.11959794887100694 -0.41273970470185695
P 2.8818148833691994 8.504729717502457 5.698945545719174 0.14776207001004873 -0.30014749772472177 -0.8661917995214113
P 5.286754295319571 1.9136179208344357 2.8167589033501073 -1.0004501786180706 1.972799485234867 -0.14461529685095093
P 2.485647091599144 3.02114609761255 4.638504382313926 0.2662652431549802 -0.018527369380226155 -1.0523242417795424
P 7.341243970173484 1.7943229484698298 8.781628366317328 -1.7181407159705635 0.6142128910821163 -0.3308035320476819
P 0.3383154495424507 4.734613769808348 7.461460498967043 0.07362559590595062 0.49820523066552913 0.22586549918169488
P 4.713156910411499 6.291970336426803 3.472306546995841 0.03764300716375452 -1.0841164465894748 1.427940816376857
Ni 1.203263037835946 9.057571326983654 2.2585973580072753 0.9342185611833459 -0.8802323367748777 0.14520433658520154
Ni 2.364193518590143 8.36285246147341 12.319606186763805 -0.46752168553874324 -1.852467486411313 -0.5950990530708009
Ni 7.4783151110925745 4.935317505791702 2.9350446837895126 0.9599069670883856 1.8359813158308316 1.0407406507070012
Ni 3.652075546644194 4.058888745010967 2.5838329791151624 -0.010709930218336394 -0.6361747400651883 -0.7547697015929775
Ni 6.442795637862103 3.4267877477663395 7.482103731967161 -0.3054815083431255 1.708075104204445 0.3788911315835281
Ni 1.260124637716508 6.515431627067092 10.823433033709241 0.36129630131990037 0.0666260246596659 3.874855838317901
Ni 2.7685160239056916 5.920755599114392 12.7217045954325 1.5685284801256534 0.202503941637619 0.25849588362220643
Ni 0.46266099392759635 1.4969895468880194 0.7992698574905039 -1.003096357991666 2.2440506116402124 1.4659985424805269
Ni 3.1480422961779317 0.7078568101160018 3.9608412293311277 -0.909325654596408 0.684927226878543 0.36473720868064924
Ni 6.7321864960472295 5.938550217247034 12.752163926491168 0.20867767454849867 -0.2814674048167152 1.2934836910058305
Ni 7.480252316799083 2.5972024659267947 3.127197040296993 0.15453307018529516 -0.2775307887664704 0.8922625284665342
Ni 8.169657703800047 4.452676541198741 11.274447731425091 0.056971275178721234 0.01405930630654353 1.1691109464539995
Ni 4.1842720781674565 6.747333599714309 6.344920625738034 -0.604988544270371 1.172179300966678 -0.26503882694704683
Ni 7.095264969392304 8.509314437674528 12.090365565765765 -0.6130432962540475 0.06011959099971582 0.8433316070937863
Ni 0.7016522169817275 5.263028137809381 12.95982961079215 -2.3927382787883245 -0.5738895088727214 -0.8426947448407357
Ni 6.110500285672354 3.2338420593980985 12.759899834612492 -0.07863564752603232 0.7325931654959383 -1.5336560937285006
Ni 2.0027201585447454 1.160220171995144 10.975594084603125 -0.8770739936515539 -1.2673319723111272 0.07139259281037381
Ni 9.165602831883275 0.5913228171226245 12.320618146125728 0.5937301977477323 -0.0844198583079772 -1.4846498390331269
Ni 4.79102335502406 7.404406100994739 12.937160614110368 -0.7141660691390022 0.3811495886004016 0.14172306290482045
Ni 4.356969354508145 4.416118702080204 6.1512830781888965 -0.4902373819687041 -0.5607118338401827 0.45052875052517255
Ni 4.947051437499697 9.140419157698664 5.067565926980495 1.2626386806005159 -1.2578672273538016 1.030007066339581
Ni 3.4693416997859754 2.832785129416379 12.038222445498915 1.2367188754109604 0.9373319100013471 -0.609495431001789
Ni 1.9142175321245456 3.2003284006755024 6.766205673211334 0.780749927706823 0.15754408909747708 0.18510245833171993
Ni 8.287430585966682 8.753918944882994 0.7997089574506459 -0.8116250200191248 -0.359493958003839 1.3555920303008009
P 0.3527393297457679 6.024091686372999 4.1684395726718355 1.9323154090778916 0.4279655205126759 -3.0921804114535907
P 3.957766607131226 3.0754155317620224 7.8283478877226775 0.650404510511325 0.06706465485898128 0.14925485250549134
P 8.118266403843101 6.181300541850699 1.168705132989651 0.4670966821861826 -0.4768835863696174 0.16598142123155285
P 6.867892368182686 8.073729122171564 5.637311962448246 0.1239711382380381 -0.3200223822717779 -0.9650499447419056
P 2.3534466393135607 4.641424950536214 10.816588240212912 -0.35779291615233216 -0.6613563815371385 1.2747295503267788
P 4.141865722773079 9.482529685468057 11.030571982553836 -0.29497803770864034 0.514212918947695 -0.2727904458680076
P 0.40340279384441086 0.6783623919949568 6.511001883351542 1.5080468778008287 -0.8791956679802472 -1.871524503042764
P 6.505819396847179 5.8652131440720705 10.619359482275472 1.6852231393069363 0.019139806153244458 -1.1323056047001918
Ni 1.4016698013387252 3.224100682131085 9.432895707830587 0.11642726445250916 -1.457739130685212 0.815186512118138
Ni 2.470564561455614 1.9506646737741402 2.1898348577363964 -1.0867626259630705 1.261361356549989 0.006864331220001081
Ni 6.079726389306106 7.737623932092348 7.488774176949905 -0.6364932997468716 0.004845501017759397 1.542890210732259
Ni 5.0876648974249745 0.8712379719662005 12.83724969103665 -0.6234320956875392 0.19448672776009732 -1.06431586692378
Ni 8.079457716189381 9.175205837314108 7.724535801347614 -0.6128175533964866 -0.34355157574196965 0.6056146078901441
Ni 0.738008033219444 1.5879367424140518 4.277854795933249 0.21970847844136357 1.8004720671806282 0.0022913671373379894
Ni 2.518136798734014 1.0292373918679372 13.460164643316796 0.9861463604008887 0.4431334865023659 0.4040234078747816
Ni 5.489090818969839 3.840381166105893 4.12418180210938 0.30777647502488925 -0.19133326973278017 -0.30831537824749483
Ni 7.5151958178288645 5.741287327590002 7.910922664680963 0.32541655670415565 0.3743042835437941 0.11346046851470136
Ni 5.210336142592351 5.505944508616461 8.393111614609072 -0.9062233615220006 0.6357811041711954 -0.2206232769461491
Ni 6.025715249250835 3.9520472379024874 9.876215086497059 0.3181449627434069 -1.4792119558470072 -0.07938898075228909
Ni 1.185274699132653 2.688813846266487 12.262508432282829 -0.9210851091251814 2.977729554001162 0.7759185677564508
Ni 4.426865581356785 0.0060957406231465765 1.9991271031986264 -1.1495610493465298 0.07733981153274423 -1.0431909120197065
Ni 6.543548784178699 1.8988305839414212 10.998047221220467 0.5264398000311902 -0.9321735057288592 -0.15198253584929955
Ni 8.90550067902274 2.466810072300619 7.044441916442602 -2.0039746252860904 1.097195134150304 0.8936632654688028
Ni 0.6622881970254759 8.570640835469138 4.849963299884032 0.4987680451475346 -1.1755870410966465 -0.35598491640931595
Ni 7.577121826913584 7.750999876256335 10.030913876866467 0.7775992978929834 -0.4961203231120423 -2.0252947269201056
Ni 6.151301527767054 7.042213207401209 1.8913455900830358 0.4720910500769805 -0.39977491701107276 0.011953058596818123
Ni 0.4915493434061766 6.508402337789189 8.943740197190309 -1.5416833349083514 -0.6507171566557374 -3.3738547900747893
Ni 2.8417147252444748 5.276883771005456 4.3108251145791145 -0.339907294121163 0.2052930743469819 0.3158847059543205
Ni 6.004055444494255 4.05315092620407 1.3424438880173148 -1.0459867295972891 1.0253340863439437 2.0491077701793032
Ni 9.138297456210584 4.276944309251189 5.327630258205807 -0.5126656290652332 -1.1616706881258703 0.6034937048923994
Ni 3.9292620088783163 1.8245525822804403 6.002173587522218 -0.22419839589191715 0.9809892416799814 0.10167530295431522
Ni 1.308324160652254 8.02246696926172 7.204757680881978 -0.08278875046245743 0.07543590964181202 0.10270554399104248
P 8.269755890092062 2.579915211193476 12.49089852772782 -1.4768763657352955 0.06933802427419027 -0.24226039559995055
P 4.7416246095080945 4.878050015191682 -0.2603798190118002 -0.7718749938146965 0.2635894960950299 0.8187068665665705
P 7.20274298694721 3.143097809231796 5.431104717300593 -0.4749020371632144 -0.4310511014165351 -0.847623806711237
P 0.34048327497592445 8.665296396204772 9.410969306669635 -0.2020678825414649 -0.2629904290584503 0.8233330524846724
P 1.4956519524716207 3.773925785583575 0.9040477792820987 0.04257129770330733 -0.3882558606278797 0.7397940541197517
P -0.10756288561442753 7.7489058491354905 12.661245327811278 1.301023193915985 -2.3635194911325232 -1.635065544615939
P 8.554783423043004 0.758478762663791 2.716524190179728 -0.22674430224222242 0.10192649973317286 0.11430044791749347
P 6.100657435725475 8.744657256648068 0.5618865151727747 0.6392850035593959 -0.02880715403967942 0.7050396813577019
