# total energy = -381164.0657526521 ev
CRYSTAL
PRIMVEC
9.33664470302605 0.00000000000000 0.00000000000000

0.00000000000000 9.33664470302605 0.00000000000000

0.00000000000000 0.00000000000000 13.66512328538584

PRIMCOORD
 96 1
Ni 2.084508574364516 5.433348192243775 2.2150619399074527 -0.08220716692737455 -1.7068456026727186 -0.0957838771705447
Ni 3.63589475119335 9.028077678100264 0.4510150126640787 -1.1288359009840367 -0.8319925279318832 -2.456431188961595
Ni 2.310539399617429 0.7733757332643583 5.634840448578943 -1.085617970835666 0.0199720722465527 0.30828221101671427
Ni 5.456493733811043 7.104196734685027 5.736086087224078 0.7940222193356972 -0.07558631917674724 1.4943902062493424
Ni 4.042916428919629 3.353732019565927 8.742466923681075 -0.5019574986191097 -1.2199113169353184 -0.3529759543796631
Ni 1.2369373287271839 2.858114922746547 4.7243747649990615 -0.20458344987446703 0.17696748792941133 -0.49541995461090804
Ni 4.110775160711036 3.4385834442385064 11.236734679921737 -1.491819874419005 -0.12737373616168388 -0.17402897412637772
Ni 3.897479518474562 4.349251733002741 6.432022757836935 0.6637050842749731 -0.8767006694725353 -0.34171349409196633
Ni 8.439962444811778 7.936689299551429 8.955192096942252 -1.0788477419913678 0.1286675152724429 -0.2834695228484086
Ni 4.938506036912933 0.20293196690784668 2.1025161604963385 -0.7624634706928094 1.4118881337893683 0.6036400006622765
Ni 7.362551022989929 6.5515420769804384 1.1536469910050067 0.16874330024740616 1.2319643914451104 0.9075971019410756
Ni 2.017891616283656 0.816671620862475 1.5495701994852142 -0.43842965326879335 -1.6641472924732437 -0.3928419373366654
Ni 5.100683550839287 0.5297966847860809 9.52070984969211 -0.29218247724137425 0.27422152188757937 1.3188663927449933
Ni 5.583892247197634 2.4592441356165673 2.6729253812684215 -0.217697875769238 0.3053786642166741 0.035201487601797435
Ni 1.2085259196956413 7.108043432194393 9.061315198642948 1.1459710180024265 0.8891280966026107 -0.5357325381870258
Ni 7.5830545547342405 5.574163463690941 10.163189562562577 -2.342740863824275 1.9233404592727912 1.0652039259556882
Ni 7.208739142481998 5.759598558917845 12.785061238367515 2.6703845100867363 -0.09085918617541773 -1.7598095564642595
Ni 7.684739949332509 2.8443433721972453 5.071755825370201 1.7313435878140826 -0.4784653290344405 0.602117393370163
Ni 7.28187307838212 5.856802364184815 7.854247662808867 0.25559130838090177 0.34181428133588876 -0.1490206250074982
Ni 4.7300467764964855 5.57864505302224 8.332732017080472 0.13281239067875192 -0.2197583578426925 -1.9360504506402914
Ni 7.891966772682849 6.811390228395772 5.000232460636013 -1.9081398402729526 0.36044089529814055 -1.4815681147840096
Ni 9.04750723518033 6.201436583761646 2.644242275883669 -0.045165540793044794 -0.44873514895985944 0.7783899121150788
Ni 2.4153805800364863 3.0097793750332302 1.4541198160441149 -1.5982085236885895 0.19514878682412842 1.5149708586141717
Ni 5.377216285869267 3.00519508261309 4.859905495693071 -0.9187423199246176 -0.2019205583303232 1.0106168347384272
P 5.113568120166769 2.146447873580833 0.6783735087563886 0.8422936527475752 -1.5028702186958955 -1.5236689006088018
Ni 6.763026410195512 4.9323158416490775 5.925894466706772 -0.6439770097184264 -0.7839272969935402 -1.1359468009972051
P 4.194207415428704 2.0492160583805425 6.456142111419315 -0.980632372561195 -0.10114848391656774 0.7910225132774247
Ni 4.42038762699266 0.30710744457831735 5.066179981310511 1.9511587670366397 0.2731097768806393 -0.5421739229369953
P 9.012756244573888 4.86807039125603 4.618429059542727 0.6187660576704377 -0.3268951981322112 0.5972364111287779
P 7.4258534722945155 1.0092912639861158 6.076402108747314 0.5266951105751058 0.20259007359352205 -0.010895306756265107
P 3.6804305451731256 7.180813238961346 7.075158836811547 1.4077414586108465 -0.6692422120431184 1.0442736035609241
Ni 4.863355385813727 5.249210890594061 4.114869279298065 -2.133866499883938 -0.9481657673920574 1.9533143799270618
Ni 9.136326733739995 7.746753941704347 11.12917653597058 0.01267168193039753 0.8344862408880145 -0.9524129727041856
Ni 1.792206246875031 2.64602370764286 6.981935243069437 1.2068603972886311 0.3501143165611519 1.5815225783924762
Ni 9.183859590585078 6.892394955558987 6.816559928422313 0.5171210937334255 -0.6237133743733839 1.6037819040113088
Ni 7.557173376345993 9.106570847909063 12.434578544713341 -0.6883961592637499 -0.6594162270916322 1.1909177579164458
Ni 4.692606832291265 8.048607656456161 11.555624036119148 0.2240670125203754 1.093062085818537 0.11786219712682282
Ni 5.7706904925128075 8.002307236677188 3.493789155484548 0.6501093478684093 -0.5402350540430696 1.0385084189423726
Ni 7.076074761631131 0.012789335554192241 1.363579573914119 1.4914084979131992 1.4296991938288603 -0.6729805960396281
Ni 0.13368580975262534 3.508963070028769 2.6993947682564015 0.5375845037941 1.215881884060951 -0.1429672197245667
Ni 9.467730928145059 5.460601857364733 11.654368387718751 0.11191317863223951 0.34877811424823163 -2.216411509766705
Ni 5.11816174923135 5.95059829423111 12.699613202115207 -3.632456860257557 -0.16714047453666053 1.58808789031482
Ni 7.211848245080587 4.293073143406031 3.4130281147412225 -0.603828976744631 1.2204998424489368 -1.1660981277696045
Ni 7.32290763069682 8.493797536653997 6.994274552361611 0.315491841391276 -1.321129220637241 -0.9105721254089997
Ni 1.3801427811510418 7.484039440445871 1.6753581417058705 0.1002254578816661 1.1321089153083534 -1.5235048642271118
Ni 2.4835380844499793 0.8583018510924593 10.763758012205408 1.7635592533146789 -0.5890083667920308 -0.0024497470920732
Ni 3.0600852152770526 0.08431830227504358 8.25939174133822 -1.3432548488916867 0.47466395301047926 -0.0071288977352974
Ni 9.163169586505584 4.018099627997565 7.015441658971999 -0.6126308913069771 0.08971273127580033 -1.7423173132167669
Ni 6.087090699302461 2.9563644321908202 10.064404129727436 -0.13992097669907516 -0.47101607184524685 0.11280046633319928
Ni 2.221887960657686 5.293205159196305 4.973763073648033 -0.3620195526391701 -0.5443717019192625 -0.5224641032128938
Ni 2.413980083370455 5.102980365371577 12.179901960653435 1.8857668718943912 -0.054513557666848046 2.310349077757131
Ni 9.191552985603806 1.1544107285202156 2.4377353078196675 -0.9659115214112527 -0.16917061759281188 1.3589935997831821
Ni 3.8365112302800264 7.035329645294079 2.4017546811404515 0.48854071099257157 0.49702689408671175 -0.7382758177030124
Ni 1.9606486492207618 5.264401611098274 7.419601655177355 0.21918063096235155 0.6505379507653957 0.5632325433795075
Ni 3.4539515609870834 7.526399796271079 4.7264792446558825 -0.9498881493998028 -0.33140542729773886 -0.4910670769588511
Ni 6.614760496485063 0.7953541942765999 4.0799679687161365 0.8588674979458563 -0.030871492767875867 -0.3265894939663343
P 1.8557701222239438 5.380857577200946 10.078834847374216 0.4109571588801374 -0.38841681168577624 -0.08638006735814156
Ni 2.3218554126789566 7.244806599954509 11.501879509727997 -0.29421750539353203 1.4118606229855426 -0.48427345107578534
P 0.43492517330027414 2.954179657391812 0.39657677359102184 -0.8824337153015704 -0.03548790849396468 0.11367001342234617
Ni 9.349902475309676 0.75264744894266 7.212656798489109 -0.04570932911165676 0.3000271700967736 -1.5346896771993375
P 1.7687712693301174 9.028964659322083 12.610025297718112 -0.4001263868132206 0.13529839032539925 0.3250069799705628
P 1.8849938193217841 2.2603549357513293 9.20143769107265 0.1270088966230974 -0.3423403290426878 -0.3912026019610295
P 7.939042133950361 8.339892289701664 2.9283124839702253 1.242970255637311 -0.5570680664400084 1.5880914898592455
Ni 0.12548450127634964 5.217111507008638 0.07494057659930212 0.16087032525723263 -1.2212937991051418 3.312167083257005
Ni 7.662453379053741 2.24944039840073 12.852253333745892 0.6451324634791082 -1.5711312078558233 0.1956396104176179
Ni 6.07658697430723 4.474661541123569 1.0706955734760093 0.7574192234006827 1.1164606672481354 1.2978252558039778
Ni 0.1937194998386968 1.3028633751194685 11.386627970758113 -0.8631537840260359 -0.651700089394297 0.14324926974135976
Ni 1.4100200433596963 3.4024319569660344 11.095328398881506 -0.48517128029970635 -0.863037827273462 -1.3824466885998
Ni 4.027380252571128 3.8856779999021436 0.3551780921431547 -0.7917041127254816 1.5113687430852099 -2.2302751551226754
Ni 5.918844366489974 3.717039528023168 12.579456190156437 0.39936071229178965 -0.7368236586375181 -1.1315887811388252
Ni 0.14003379430752044 0.2799639518617546 0.38007892286518036 -0.4784450173194664 1.1147012613548675 -1.325728152861833
Ni 8.02934615897602 3.645847614166608 11.12884881975073 0.8510999381852956 -0.9281206758157242 0.14754378335165558
Ni 0.7121114734410678 7.165585171879372 4.648998167104401 1.703463573574363 0.5883038845258384 -1.174350597586384
Ni 3.7940668446548558 7.407917778324883 9.492792349151456 -1.2710431026141271 0.41885507357097534 -0.6443030255992774
Ni 7.6535555569022256 2.8091722325909947 1.4431875390690792 0.18322118214860705 -0.7949267334278374 -0.022985919372212026
Ni 1.91402144688638 7.972168548424207 6.492846328042648 -1.4933571369991379 0.581626729615979 1.0730902706823005
Ni 5.312513339898648 5.759215756495797 10.508862017001158 -0.3937955594991863 -0.636712357736213 -0.10309275212713212
Ni -0.10338466388638537 5.135808007223336 8.977821322071975 2.228907842461503 -0.9077284853126173 -0.38650493937504404
Ni 7.295915391620189 0.7778713275623167 10.466254240098285 0.5165613645752136 0.305290475378242 -0.1112320934048149
Ni 8.971478939503744 2.445883397422634 9.12066357902711 0.49575908311788164 0.6434172805602145 0.3131932751650864
Ni 0.86527819181818 0.1374092635553789 9.128398055281375 -0.22817434982052962 0.1075603009801825 1.5357942231174257
Ni 3.041383916463323 1.3243283206874987 3.424178869196159 0.632885013570323 1.2384299445647964 0.9166486706203827
Ni 5.7409346066818765 8.010028641629237 0.12736956978882694 -0.4418335367440197 -0.4577671772551407 -0.4788823619672011
Ni 2.0028782920238073 1.8875800698317207 12.922218412523009 0.5145060247080817 0.4052066295496054 0.6860400003267475
Ni 5.2676507633634655 1.1902354332372806 11.807526703115867 0.11124906268567937 0.5343443995902474 1.2212151233484065
Ni 6.7974692915354264 3.489580196170904 7.904603920932667 -0.13813663110514274 1.1531371967335624 -0.30120242135179737
Ni 7.107688639705664 1.3207150392891396 8.261974257190381 -0.6608902405339973 -1.1328704760647266 -0.9915965848821826
Ni 6.050584419541261 7.526213063382275 8.761475398096886 -0.07353637862625399 0.8125177070367231 1.3906533927803082
P 2.993057444840824 3.7878206295243593 3.437789829461089 0.08031303522845523 -0.2516161257832376 1.026703712997961
Ni 9.313872364414927 0.23448328946463 4.720999568033927 -0.36691339039636167 -0.0973422227966001 0.10201957366761139
P 2.150145184779154 8.588256368455546 3.268751749200073 0.14893295038969837 0.8670919427381776 1.1899047432708991
Ni 9.194176582691503 7.5333649330234715 13.341163918863874 -0.015233786230618924 -1.065505773466823 0.4519685682954926
P 5.97250206208783 6.0598837174037055 2.7200698337047906 1.029055501059589 -0.08204235921473613 -2.3117009637993347
P 6.718023783993726 7.491835538553442 11.051353737232587 0.8163280819217489 0.07761183424720827 -0.032289713271641166
P 3.3782873944436655 6.100964952940605 0.4628408065120418 -0.3612901306723133 -0.11697748052902436 -0.4916327196543339
Ni 5.0960152286191835 9.215828261148339 7.401768664296564 0.49099097230527705 0.2211318411514514 -1.8224745395936484
