# total energy = -381166.85471500485 ev
CRYSTAL
PRIMVEC
9.27812316175335 0.00000000000000 0.00000000000000

0.00000000000000 9.27812316175335 0.00000000000000

0.00000000000000 0.00000000000000 13.57947109428950

PRIMCOORD
 96 1
Ni 7.421951200255528 1.3123255885343328 7.20647606562093 -0.6451553462972437 -0.2077533629620164 0.857917218217445
Ni 7.160261733653357 6.24965104798994 4.890062699559438 1.053192760427425 -0.4872307339318964 -1.2340868371047522
Ni 4.420005140741293 6.04052214966649 0.55839457039479 0.0584062078530349 1.2987405685293956 2.4410418509897185
Ni 8.21377407379671 0.19868637059217117 12.708579444275523 1.3350723130808944 0.8361134920787924 -1.041479842865871
Ni 3.1350129033365475 5.032843738436971 5.355091515569628 0.543448932994677 0.2722595130652021 0.7801817139081789
Ni 3.4118257108556316 8.433711985720286 9.226001548861545 0.07568839197225029 0.5992446998080584 -0.41590473269339984
Ni 8.09543161159105 3.9522763908618876 4.065177233774439 -0.00735309793096153 -0.6269395946201655 -1.0944749070056634
Ni 5.000082685199167 1.3510060844132352 1.418919163253438 -0.2917335626294137 -0.5958395307812513 -0.04913480985343796
Ni 0.10330819127206281 0.03495625720157202 2.243980913380413 1.559301562210747 -0.6415023229256888 0.19719924159525393
Ni 5.655220246845892 8.644705786819381 6.943441271145782 -0.5916740865496519 0.548087717318269 1.042402097569824
Ni 9.122677584779936 6.947588592243856 6.488216647986453 -0.23112263381557618 1.1921310614982565 -0.7340679502692519
Ni 2.435136231320892 5.450257225867039 11.182083225237218 -0.8648154879991751 -1.7018075260281789 -2.6422820954235653
Ni 3.503215224985445 4.464122616851675 12.847429342326983 0.16598707765850768 -1.1266005838956146 -0.4586161555189972
Ni 6.8355830882260795 3.6666586443672506 7.319566182248026 -2.3519194449997496 0.5718899619441892 1.2821968052381014
Ni 0.405425224363354 1.7368925089993332 0.4927935998714555 0.5881416479163613 -0.9558497662998763 -0.4588393272733969
Ni 2.4341991408714394 3.090208846104784 10.986756463078184 -4.2800740378317315 1.002622246568725 2.700745895987413
Ni 2.598189969525698 0.0020977836695178454 1.7266568834167941 -0.23575961836695525 1.2398520217233033 2.0156376634463156
Ni 8.400570529428744 7.805221194081767 0.6834970732090793 0.7432154210964748 1.6937813132895927 0.07503815998276109
Ni 5.119074616033163 2.192735982980232 8.254485550857645 0.24407096644612805 -0.7362986393719835 -2.0417137917080774
Ni 7.563405467506607 1.069155255962934 3.4259377363369965 -1.0855218115774339 -0.5753046440526931 1.9512549262948717
Ni 2.9320817913520525 7.6090352777086805 3.458039115010879 -0.4762071291278831 1.3269080321025473 0.8184335583005259
Ni 5.376811602125759 5.386201062866812 2.8750185498543273 0.11979412404221305 -1.6719408203757335 -0.06062584121217301
Ni 4.313148995133876 0.6117920253917343 5.475283107741389 -1.3036477760230258 0.5112648920629645 -0.8924587036377404
Ni 6.7307681297362825 3.1255956082257086 2.425144620380141 0.1410309219338023 0.2158659647668218 -0.9013493212591508
P 0.5349793707187077 8.068905457185249 4.074941530695273 -0.18348703421548399 -0.6923857400391171 -0.43263412963293885
Ni 2.1541297120874248 0.8209571083959065 12.065780858754811 -1.0539813177669912 -0.7982822801636317 2.1327074465788303
P 5.614981026258988 0.2238820421222139 8.936473073412012 0.400299164945659 -0.8159251900563755 0.7829752174929161
Ni 0.04317203534999331 2.341241623910363 2.798770005075625 0.17853997462285381 -0.1732059640044501 0.02888171603135671
P 6.324377052741363 1.3014516280713742 12.527958507486614 0.08244267997694835 -1.174876388182867 1.084159384012268
P 1.4263630015464683 8.701218835607675 0.07538104025371378 -1.0314103744450107 -0.4003269328598009 -0.3353878089842547
P 8.053652222542668 4.204706290448672 12.196375082727824 0.25265767967387454 0.4154020820253684 -2.10124717118702
Ni 7.358600174623206 0.8490596159439057 1.188649133265399 -0.19852618793679358 0.835413123577658 -0.8285395363862763
Ni 1.896643235322899 6.426195177417563 13.061441316923176 -0.4842883634741208 1.0374506671018198 2.2206096070084533
Ni 6.350244460395569 4.873723924495215 -0.12612124074844705 0.44443600736387323 -0.1371398144095122 1.2458987421380154
Ni 2.4464926541934697 7.609842474432467 11.125090497476283 -0.4390161218998827 2.2366116388636637 0.36611917662984045
Ni 4.454399143673194 6.530546229744265 11.911681437310074 0.760182902188749 1.6281726741508475 0.6365547491124263
Ni 7.616160876373827 7.91832151664445 3.069965836771949 0.30717020889945806 2.2691157821389565 0.8863099104275252
Ni 5.620538622092872 4.571711734196783 11.359186825497533 1.105467144351109 -1.0928034328405116 -0.9180064701998576
Ni 1.165406506681988 3.7872742467720806 12.988274964692081 -0.1637029096100213 0.6698320231083174 -0.1547639552491786
Ni 8.055591350304407 0.8461898924189969 9.635789346782648 -0.4255435413347446 0.13508961674870282 -0.6277050120312803
Ni 2.018251596916753 8.113523951951773 5.7319902221519134 0.46942224499556573 -0.4898442602953434 0.8481452264323458
Ni 1.0353272185500104 6.591113818398013 1.9061097044870257 0.5024668341553605 2.6320074529704347 0.8803549783956708
Ni 3.6870334030504055 6.924281946609939 7.532858174479095 -0.8672323249707838 -0.8294754179369843 -0.28765373613308526
Ni 7.683167482571341 5.849448479210715 2.654772604238456 1.393118309381033 -3.0412262890032267 -1.5053688167480332
Ni 4.490787943106404 2.3840137721477683 12.188118480837051 -0.0011852785573527973 0.061834773918609635 0.6767763156366345
Ni 5.660629392707586 7.260920092921818 9.203744258968548 1.5883905091569033 2.0080523948998903 -0.7797016889479669
Ni 2.567247428447228 1.1789804010141625 7.634351564841128 0.06928634510064842 -1.1058373832063344 -0.057821281883842356
Ni 9.310689474559279 2.1046865932247063 11.31929089547132 -0.8532522086416078 1.537485751887236 1.27755133604629
Ni 7.406911362447972 8.49110645621846 5.54850420089973 0.6196075797351265 0.7090719424455466 -0.6575640043742418
Ni 6.001053013310325 1.8656914161211675 10.431830982971022 -1.4317054256256119 -1.4351658733703863 0.7984190628518121
Ni 7.252272882041718 6.656264799943145 12.241065019043468 -0.29439851105608655 0.3492270288601921 -0.5437245552535668
Ni 7.565650773335989 5.7339080102301505 9.783180685109023 -0.24764762805379284 0.15042367600261192 0.8481912491789327
Ni 0.03984118909896763 5.949123357413414 11.46924856269194 0.9988553233271249 -2.436260370440675 0.9240902145000923
Ni 4.843171064593745 2.6866475967047476 3.6837303911691652 -1.5979370151947578 -1.258517973563923 -1.289563787126134
Ni 1.217363996948684 0.7825178437218135 4.581373971761736 0.058698285172156965 0.9780687255990769 -0.08436380825906116
Ni 8.880379395795156 5.711158051991947 0.42453351922125765 -0.006799282310020548 -0.8372342359467968 -1.1998870512945916
P 2.6442651296443427 4.075981608312933 1.235234590163449 0.5554115046731919 0.11009772269005555 -0.04817167460922026
Ni 4.684329594349846 9.168836248007938 11.491545748514962 -1.5256913303554693 -0.5834352435796275 0.7815271721924799
P 7.963728651888237 5.707131346496278 7.764320443306289 0.036610195023865984 0.09031874029091543 0.16707953939173806
Ni 2.90306909991206 2.0718049243844976 0.41772337674701565 -0.30737692559362545 0.22988593319499764 0.3623903057150275
P 5.375976571032187 0.3241015461603869 3.312059907044966 0.6745186299507093 2.1936988986605384 1.4308870434893746
P 4.687038806342325 4.611607664222996 7.9372284762275696 0.7938273297160716 0.5896933086741973 -0.43051862595183277
P 6.595140523893682 6.770116650490042 1.0368293467061136 -1.0308516737280633 -0.9238004511738155 0.26138708912707237
Ni 5.2164206852971216 7.662959730106901 2.6878259183590103 -0.6870792402245394 -0.12011808304053508 -1.130096512864015
Ni 0.6012270264333973 5.8746849744831104 4.310599366861504 -0.0773755498666861 0.40520303000517954 -0.19874036083012872
Ni 8.117764054282466 8.022635456478103 8.491053570915868 -0.5163070824725624 -0.6111635627328312 0.2039149630525327
Ni 5.829277839239324 4.09607802329823 5.047245241364108 0.45493844955709395 1.7625526664270355 1.0373863895227877
Ni 3.6678276878982516 8.257585371839449 13.693267593874353 -0.4937034861404336 -0.3357688464727572 -1.3983829002140822
Ni 1.1313650724340405 6.832391413823982 9.217024964605645 0.2717146963053256 -0.04512851690752228 -0.5442063799859918
Ni 4.783113772719402 3.7232830306346876 1.099501213715663 -0.11503681186288575 -1.1092626068377993 1.0636697486993487
Ni 2.4273704421506737 2.324039983382782 3.126836093305826 -0.10910759086264435 0.46716353086837603 -1.5598237532628039
Ni 0.9761699046320723 0.5912085089351871 10.042792779912853 2.006243623825925 -0.6642912957957463 -2.122580128336841
Ni 6.798544820164534 8.745985780346391 11.058768616775497 0.5507626930472709 -1.0318374346801005 -1.6083756940295786
Ni 1.0412930518074184 5.141156549396508 7.144689331570567 1.6821144184746255 -0.37483881589102547 0.8900794047722865
Ni 0.8591792649856709 4.374904183565149 2.168573894381566 -1.3447023799714906 -0.2529101620043128 0.5547167925990123
Ni 9.161627146233434 7.979789083254603 10.842922357210425 -1.0143547045143047 1.8058472154496126 0.15098520493303674
Ni 4.385741031535059 5.719564031667238 9.843147979187727 -1.7575143326721796 -0.9508284018258851 -1.3729726876710935
Ni 3.361974354569389 1.2567774645652776 10.335729110036484 1.213961784220103 -0.9908903028437773 -3.3291484483063507
Ni 1.0922299485153042 3.676595514380756 5.172651138809061 0.5938374127495579 -1.6042609005302564 -0.6419440384487977
Ni 5.901526585079816 8.384213198117996 -0.21613388138619288 0.9052535414095635 0.5570639526749502 0.4087359828591025
Ni 0.016113316668959054 0.08787124978889699 6.842708686891226 -0.2367451222086761 1.1381849462991043 -1.257520899757976
Ni 0.5508625899307714 4.498284666702028 9.606633772244422 0.18632244678175008 -0.2765979925395559 0.3525712627420767
Ni 5.684539116353527 6.3661842761595295 6.482541219987142 -0.5678394460238995 -1.088723092123551 1.9579066272834345
Ni 4.073606408757884 3.361556839022603 9.80223238341503 2.197093269054067 2.0476656384161376 -1.365143678544978
Ni 2.976579670516173 3.4849187659129583 7.303365651220403 -0.3020935657074991 0.41152434423751705 -0.7093120834808107
Ni 8.29052270941923 3.617243359874318 0.5924888899453306 -0.4888788110582806 -2.5193036601161 1.6945588148855657
Ni -0.15948537199827534 2.9162904255602817 7.988491035061949 -0.19619856824488147 -0.9060438985213428 -0.8428772931651871
Ni 7.553681994328125 3.137100481070477 9.8047996401216 1.3525113344929482 2.624677237857609 -0.18917945661457095
P 8.714811286186373 1.8798405540955803 5.384355644150019 -0.42800588683230806 0.5753097862590155 -0.041824392234953774
Ni 2.8639618103631093 5.467792878832048 3.077325244143296 0.4323896177223005 -1.9060310214600655 -1.1431196645965602
P 3.088455280808283 2.67694267977279 5.095289219238929 0.6715155814583275 -0.2035480666314172 1.137168589219448
Ni 6.26470944204402 1.776779160902284 5.3009230485296195 0.8550982607114112 -0.11460075276673166 0.020048434010442893
P 1.7017098655901703 2.6847826939291037 8.94972687249165 0.4445195682166151 -0.061133376976210844 0.786890236276606
P 4.710280505113409 6.520145453567664 4.59563259159064 -0.7640572975424906 -0.27799050201170833 -0.4534816625059094
P 1.4850007405617391 8.537766138102608 7.913790081243333 2.0086409204135087 -1.6560508886183543 1.0817849702428208
Ni 8.458809309143753 4.467870978649486 6.1032793754100485 -0.1376576345861952 0.6832243852548234 0.0729059441311067
