# total energy = -340871.1562236268 ev
CRYSTAL
PRIMVEC
9.18290832382761 0.00000000000000 0.00000000000000

0.00000000000000 9.18290832382761 0.00000000000000

0.00000000000000 0.00000000000000 13.44011455452101

PRIMCOORD
 96 1
Ni 5.709105985598418 8.891819393223422 4.1947534785220695 0.3636208356880189 2.0099555254598735 -0.5957816809601224
Ni 5.98610841768987 8.189134059025845 13.248405103180403 0.10375146875705359 0.338295726659669 0.5216611476956241
Ni 8.967312083235816 2.8920835394578455 4.417335240522238 -0.04446337251969761 0.400311249130517 0.9506391686332144
Ni 1.1825198471786698 4.6269277785809715 1.0606351038950683 -0.2847710152686515 -0.29858478122329224 0.5395688812139805
Ni 1.3616049269282962 5.182071323406319 3.3950130670820657 1.5085708686250987 -3.4000705292382083 0.6679754295155529
Ni 4.511645546441867 5.76326677938179 0.5480231176467063 0.3931252729050391 0.7643138936379869 0.15678407100300093
Ni 3.481993575511379 7.744589463052127 13.246738405304567 0.3646595613651784 0.49722949701582103 -0.9000213464763468
Ni 1.4841324738003745 9.069306646910263 13.344124985540478 -0.4935816158505886 0.6738218609940009 -1.6493289965134883
Ni 4.355591200976522 1.9403301805423343 3.068701171718562 -0.833715424160261 -0.40275122603057734 0.4145117090006152
Ni 7.6800519827690605 6.742082169372173 11.188330715304094 -1.8315826725425037 0.532941862815766 -0.11872814467154393
Ni 1.5334263261281353 6.293644020233968 5.974117375892256 -0.13552927538928272 -0.42495064494575197 0.8334058633396421
Ni 3.7484907603854385 0.6632530072078917 5.4914967685005385 0.9396993817922592 2.970549491312955 0.20628757704976733
Ni 2.582977659576183 5.52945156552757 12.385401799144198 1.1065336379424104 1.2348939063870796 1.078952128779716
Ni 6.6345594948368225 7.126992958152059 5.788159807490972 0.18211020847261541 0.8371113372156874 1.1978088286093242
Ni 0.2078165635728566 2.113813686163806 2.2228065443350857 0.308477614856972 1.1017611562544316 -0.11672216998510866
Ni 6.640307995499486 2.2843219294614716 2.8626367070697247 0.9799114352347704 -0.09354393209643244 0.33833814986183025
Ni 6.307831613722491 5.472058387985001 9.674893744195906 -0.45664746182840066 0.464086177494633 -0.6727111444283254
Ni 6.128168010743234 4.4040677744560774 1.7192865557003072 -0.20164879272617528 1.0775477922330217 1.0710817248927038
Ni 3.3684560959695684 5.0466417902226715 7.220822997962012 -0.8593097276895975 0.061676908184506676 -0.25760756747998215
Ni 4.923811207373169 3.6127214595907393 13.131288125941618 2.952519630394438 -1.902222446347253 -1.036649254246447
Ni 5.404958876256434 2.433920690316828 10.914757181211746 -0.6663065264535621 0.09615360180513761 -0.16303442278808697
Ni 5.167093999794811 5.312762475852052 5.581209192180878 -0.497825221618291 -0.662141339332279 -0.18460983496601754
Ni 4.307775796902258 9.037882734342158 1.6995295282630534 1.7319012600897659 0.9198568931450352 -0.7328279072145637
Ni 8.397925847471504 5.641336121556154 4.729159261292316 -0.12311110423058796 0.010868824393703862 0.49188571620540444
P 5.771962993643039 4.819153600260745 7.572106894446997 0.4282452565366237 -0.30035704263236657 0.6685387582181905
P 8.722009050964676 0.9309632542824913 0.5632979674905956 -0.11725644522202387 -0.48208852760932464 -1.2263956391080812
P 2.8064529185643337 1.2034293296209781 7.660314239439461 0.8664661362287207 0.3931234731328262 -1.672680012534603
P 8.915134797668316 7.916539422969661 5.847108569717655 0.9451002410928563 -0.7181975588958986 -0.3248195465501051
P 6.322790571517186 8.670593946794941 11.120135682602596 0.5600767713593452 0.9843103356334143 -0.6807833799134985
P 9.214864928066623 6.432682436421492 2.3598825729960744 -0.9274789284666671 0.6756319176195461 -0.5535217438496467
P 3.107009510719255 9.201549710876748 3.469780307330321 -0.8324725528920953 -0.4805762047298562 0.14499144924344706
P 3.4361249480193585 5.840100174021575 4.142310806901613 -0.15434152299977935 0.9886899527583488 0.04406716552254346
Ni 1.0166673384432576 0.7931929977459476 4.39532105419859 0.2934171209794237 0.3048536449511395 -1.2119061872426549
Ni 4.260915415302302 2.981157751003911 6.877938707796736 -0.19012459413665966 -1.3168480767633837 0.9653957581170985
Ni 8.735691584490823 1.2064045919447848 6.3190310888154375 -0.4724656598075798 -0.8655600794746836 -0.7596897646024142
Ni 6.471572053524335 2.0258046919929305 7.731399133416584 0.6276623317188028 -0.38976432685260615 -1.4465851709509217
Ni 3.343313292751721 8.586956017025706 8.91844339956729 -2.049819194424031 -0.7969645897934725 1.721560797395706
Ni 3.7713745681352115 4.206800536060966 2.4896471699835603 -0.3201807622265131 0.9168134783330212 -0.046266230056391286
Ni 3.5056303817505103 7.057744645856298 2.2865937810013164 -0.5328027661347405 -1.1964715978551395 1.2559751525374112
Ni 5.5429137092519545 7.888522369420482 8.77769879899778 1.321691520898614 0.09485802292216566 -0.2902469507815582
Ni 4.189555034072974 7.641658242720184 5.352996470745653 -1.287616690702092 -2.0917657140591457 0.7099857125090676
Ni 7.44998339554482 3.8543880601327825 6.456751757646584 -0.7584281242811712 0.28977001114513967 -1.211888446630842
Ni 7.4374670913863365 3.0111123982269286 0.26232263471232353 0.4799871649956056 -0.724270761673172 0.8935064281759644
Ni 4.865380361180631 7.084035312624998 11.093591567561866 1.1466811566955737 -1.0154937032147542 0.23816514248465434
Ni 3.9908093474243653 1.2229889245274854 13.001214064940822 -0.38803783107980266 1.5301082284762424 1.5670022732891142
Ni 4.663971631094047 1.0658785445953574 8.874440739063534 2.034918880273431 1.666607838198594 -0.4814637495411321
Ni 8.313645114113793 4.389457767180842 2.6693677069949384 -0.3187905667472058 0.12380324520160613 -0.699949411318988
Ni 8.591758678122469 8.754810399793804 12.100255963877585 -0.15879364523386202 0.4772332563995522 0.525773627202101
Ni 6.676764141874526 5.183007980063814 12.600994449555941 -1.3087521871291268 1.6299428786773928 1.5833166941784216
Ni 8.27184451504599 0.4915711882158361 9.784632254529818 -1.7577783849668438 -1.69565898992828 -0.161221023728432
Ni 8.470085141732223 4.564915598109778 9.415754823828223 0.5495771573796019 -0.007797641667547862 -1.2419654685218804
Ni 7.708537364646987 3.7128243441333852 11.342206874895345 0.07509780957610293 -0.9531840465422553 -0.338915619631855
Ni 0.32044860834575534 2.320860722012172 10.359506196358039 -0.013429900252660743 0.6266048369885661 0.09789243887311527
Ni 1.2592063152839477 7.472701910943269 8.934194842357492 -1.4289764567302228 -1.492843430587513 -0.886207580521706
Ni 0.985564827669389 2.706249022029213 13.15565497339909 -0.6561223868317088 -0.08077351980464154 -0.05428987169181618
Ni 1.4971354721044188 6.918182803889586 0.7914188598417518 0.2834247856534022 0.3583102221083829 0.11792081827890015
P 8.788153540218934 4.706231375582191 13.015984773113178 0.3570709503846431 0.47925979991127776 -0.6870170195280363
P 3.149792680986587 3.8741404961158326 0.46667540523413104 -2.7341093019392075 -0.06143856692145548 0.1867050269321494
P 4.844121928218863 4.903535345610931 11.229981632964867 0.3729896784974286 -0.7758242082704316 -0.2797090273647118
P 8.168426600568486 7.359972527341259 9.251906025707179 0.25569852338272736 -0.37892249904209574 -0.855449730513559
P 2.8243228583239874 7.371258321773229 10.937349890765024 -2.22081169571693 1.0776897171275246 0.9118677042919715
P 5.527715995838682 9.198794838354704 6.817525271679169 0.5197559602531113 -0.05102585622856374 -0.08951218522922004
P 3.1422075986425613 7.1344311139615755 7.528130864377621 -0.5210546244598768 -0.7350403414848502 -2.0202491940763982
P 0.5060811017894381 4.293992251383635 5.995474065973976 -0.3042831171596502 0.6060812631139174 -0.035327214546384315
Ni 0.9021325950484678 0.7705185603078502 8.413780138835863 -0.5034659648438361 -0.48528826549354487 -1.2162307827599377
Ni 2.648268138348609 2.056264399178322 9.62964037156714 0.1584869126267206 0.6976732136903017 0.13526599442556703
Ni 8.375951147654005 6.9984873379071475 0.2547237780056875 -0.5757450740242214 -0.7572271619945345 0.7670883710593305
Ni 6.021683004857856 6.554043753925905 3.621801519423394 -0.8761537958301299 -1.3560630563999485 -1.529624346861288
Ni 8.094513370802066 5.9455658770738 7.467905677882392 0.2719844050269445 0.9154482225543783 -0.05275466599421238
Ni 3.306526561674036 3.7951950325424795 4.813402344725558 0.7699803478951449 0.3039972104881152 0.04374500629643434
Ni 4.000028987464804 0.23397224158797617 11.16091330567388 -0.029967492896367742 -1.245443656878468 -2.154259718828309
Ni 7.668463152359665 8.554577081983291 7.460164486095451 -0.19467853205592925 0.5279685779708908 1.2784075133989983
Ni 2.4761712518965653 1.319078878096355 1.319201929069006 -0.2979332636822224 1.749100654687188 1.9922434528920916
Ni 0.692735652938799 8.997578949344664 2.215213197373494 0.23696083776390806 -1.2187298950327077 -0.32652495927698605
Ni 0.6216792259777367 6.72452444849835 11.56154982510043 2.1167159562465803 0.64639950311699 0.6698304804464206
Ni 5.748757784099028 2.2748910825276765 5.454119576412296 1.3607694607366823 -0.6026966629124008 -2.3451656712156836
Ni 3.227948414436955 3.4732514467080953 11.45449915205719 -0.35426664816662856 -0.6892271398054776 0.059818000598896984
Ni 1.297994920394317 7.284185984259848 3.8716537645192686 0.44667106734197914 3.562933716555754 0.6644342491315138
Ni 7.871901305204155 7.96011232335998 3.868441583158566 2.2279040837873367 -1.8727874289155877 1.2603611974202487
Ni 2.9744450449585327 5.788418765508045 9.454246820997053 0.7306067311935288 -0.09620245276520206 0.9532519236657132
Ni 1.9724152625157316 2.666762515879926 6.23271909611814 -0.9764743845287636 -1.3080217367210054 -0.3358567782008732
Ni 4.593254053453196 3.747159238666451 9.069792422764985 -0.13359477737073122 0.23843639386816998 1.0133823132987063
Ni 1.3218153848015846 9.08244738884041 10.581873078301488 0.47531598477218134 -0.3307281987250562 1.1630763102241453
Ni 9.239107806260604 2.9196138988614644 7.644616057518018 0.25566587037257904 1.2165223458584273 2.23869860329968
Ni 7.3885681041200675 9.103072201122108 2.125513629764924 -1.3025059491090987 1.4962480853936877 -2.626193160281503
Ni 1.876775271458796 8.773148667882205 6.135613512879477 -1.0255395174865305 -1.1973491153640863 1.804846799209556
Ni 1.157597433762585 4.569249930877793 10.962281487089516 -1.0430132487912618 -1.2734229157002135 -0.6781153461630322
Ni 7.2116869223880755 1.429944131291783 11.917228661548915 -0.20092348452437653 -0.9857822921932506 0.49779925347636206
P 7.190107087632071 2.365113157624594 9.60440022952018 0.8964950784906432 0.8925445784833275 1.6603741985840565
P 6.480158072884704 6.752458855871868 1.4748237595483902 -0.7864084115441811 -0.3356665165669381 -0.4798390694535155
P 6.398907699301241 4.300438653085216 4.111290942303406 1.3449564049638254 -1.0634288363331363 -0.938909538901112
P 7.757427169004849 0.8553521047516508 4.334329094851393 -0.28901487814667 1.4972760124375697 -0.5122869055695759
P 2.065731977745744 2.9845646100228382 3.3200979820084617 -0.9891082712426901 -1.3824083791626969 -0.8677755990687636
P 5.754331809501963 1.3119529411726696 0.6901809678200241 1.4171316415764947 0.40087380650220633 0.7797065740439733
P 1.9743253074643483 1.5915725021600622 11.672000010835871 1.0199892770922627 -0.5296086846774749 0.31391575515340775
P 1.3953888469569538 4.515107502911235 8.724274474468634 -0.3211626665238082 -0.8352758266688454 0.34980732684369437
