# total energy = -340860.3947983272 ev
CRYSTAL
PRIMVEC
9.31463770918804 0.00000000000000 0.00000000000000

0.00000000000000 9.31463770918804 0.00000000000000

0.00000000000000 0.00000000000000 13.63291382540795

PRIMCOORD
 96 1
Ni 9.614289437548392 6.127569108252658 4.950111364637914 -1.201321469748273 1.0800250501289206 -2.185694797409139
Ni 9.173585991256862 0.1426965213748378 1.9489612277731867 -0.1759272195903551 -0.8551939057490111 -1.0361291200769187
Ni 4.546418699178182 5.780906242642112 9.832807108561026 0.6994495888644341 -1.556056572910888 0.41481869871807264
Ni 3.8238356914199487 8.380248996686749 0.6613681412588935 -1.0720736564923279 -2.338393385488857 -0.9558183988413087
Ni 6.62866866440309 7.296099703241743 10.270041783829813 -1.9704556675930387 -0.7969049402001308 0.5134562432873285
Ni 1.8881794919198116 3.4015752274727484 10.259967071858282 1.786537459377407 -1.970168732480239 -0.11923465199431722
Ni 3.140970298164855 3.1551564911499117 12.948991156211607 -2.4179404890855647 0.968805555129596 0.3714524159172958
Ni 7.469556883653909 0.5017357458949353 6.869938269089591 1.7351087112834696 -0.33891022031521634 -2.2339451477750947
Ni 5.26100974792054 4.681052470291783 5.8457659268138435 -0.37603746418481687 -0.2501822215501885 -0.23961215934382604
Ni 8.622811473064862 8.844993522488739 13.161596826772755 1.5690123617406075 -0.18911029393953238 -0.4237699943740896
Ni 2.716548838306602 8.067677704500568 2.7205708987996737 1.9721297128613522 1.6175051671346723 2.7044675678133747
Ni 5.745464046773337 8.09278065269146 6.992935263514923 0.4775736704581065 0.08508423136485348 -0.014405891012684868
Ni 2.2317685271396375 0.7655560880842748 1.3059801810333362 -1.3941094696497087 -0.511963460791886 0.56827241979626
Ni 1.7855228715072624 0.9607489752138614 12.648058503641204 -0.7045257178357608 -1.1133617166078373 0.5600369192603453
Ni 5.930303714268722 2.9189745414919317 2.9258552642483737 -2.0590661669435955 -2.2888538839978323 -0.420371767325818
Ni 2.149585480056803 9.12108869403836 4.934555919933355 0.4885759351058812 0.2892714742421663 0.03183025713671937
Ni 8.989789563166815 2.216306228810554 2.84161740812253 -0.2756335717437575 -1.024764586993719 -2.138459518571259
Ni 6.815650698534431 8.26579073050134 1.7880108111962372 1.3237759142314687 -0.7274823266319342 0.5902856908425576
Ni 3.654691188192339 2.77266021489359 4.832063237141645 0.16984501795201717 2.0872613984308894 -1.438056307544304
Ni 6.5160360671770166 0.993974287346296 3.452057768589697 2.5035325133247723 -3.720905637219269 0.8638268988336607
Ni 1.1145429557629585 4.382564910077633 8.402005195606774 -1.3062379053477053 0.5737987489311279 -1.0597138493753944
Ni 1.8188599592902688 7.416165381230832 12.437484355529197 0.06743952169989675 2.042940465026327 -0.6307615394694169
Ni 4.344114086280972 7.130606537932809 5.10004535938727 1.492012192935469 1.6324124232638082 1.6497771397945005
Ni 7.2324900434289034 4.431867286617296 12.785178351516269 0.30174518122914484 0.878675790921035 0.951586105927516
P 7.201602705320926 7.190741837940378 13.644638095109574 -1.5337095726742553 -0.36900035483237736 -1.4291667183641579
P 2.2658601005640024 1.7609042844688478 3.6786232864434925 -2.1124206713053364 -0.8724989726863619 -0.7845574743783713
P 1.4746188994421083 7.927212970282145 1.0391195411484466 0.023705828257372077 2.2390017363623955 -2.2158463812918545
P 7.939256796631244 2.143922180427837 4.697288815001075 -1.0148462994387426 0.1567503895515881 1.4022830065994365
P 3.591165360117429 8.820645059939206 6.813198154468137 -0.8910865058805622 -0.37221603355619765 -0.43659002895689325
P 7.336292364259813 2.6695751211538497 1.1918572417996411 1.2063986271608642 0.04674188414122918 -0.8871838283920463
P 6.625063899672153 5.004726810434752 10.858847035665075 -1.2650076950533244 0.5985060218698208 -0.8026531555378177
P 3.4239024136744436 5.040215579491264 1.3558991865786525 -1.5088068958953047 -1.2874084313460281 -0.10895101068012204
Ni 1.8144820796428778 5.494909611379348 13.392442420579691 1.1408612075796867 -1.5313343875738594 0.6006091842557527
Ni 1.7755468946937394 7.213944600071551 6.589713918715101 2.374172085750363 0.954259281884305 -2.8114737960623
Ni 0.47262098331227453 8.11682173220192 3.742848643798231 -1.0600673760600712 -0.22074566145662627 0.03911933459896489
Ni 3.852915989843683 1.2789649377539136 11.821767252891291 1.0426229553313784 0.006719321001704556 -0.7517175450302152
Ni 8.233953299363503 3.2092931645767995 10.408770269609354 -0.3221828802582064 -0.8334318314815711 0.2132382973359876
Ni 0.6912606760767823 1.6348958677243635 8.53309940445227 -0.5952582043564845 0.4228657373922653 1.6907201578657656
Ni 7.014574098001848 6.3591589415996514 3.2656280924649312 1.2159446189780867 0.569927953121812 0.06927323247452587
Ni 4.594696465587605 1.0738752482299587 8.1949761985454 -0.32196279382760035 0.16241375848495254 -1.6292137138208522
Ni 2.483468662951987 6.262165620816068 8.489965180896656 1.8953429456186002 -1.5525488168679455 0.6107488437929159
Ni 8.561046111486457 8.367944360486316 10.17034442376615 1.823145340408428 0.9267304803364168 -0.1729725078374053
Ni 6.9095422450146495 1.6037570344026002 8.764231889095674 1.0422917972442047 0.2427928710646528 1.3290371626304078
Ni 7.175065302947698 3.110017757594044 6.634743671011662 -1.0019959258386357 -0.43371065052656915 -1.0937490845832325
Ni 4.430172022583625 6.861637064107133 12.099497143330524 -1.5321358004292325 -0.23862434150925999 -0.9491481859099848
Ni 3.4748721103351343 3.482184100810032 7.964934457958825 0.05525095005350484 -0.03656391516696284 0.6238606985845256
Ni 1.9622029165109132 8.556304960974709 8.659858580983094 -0.8959098954111344 0.5554516138825079 -0.8069091026006942
Ni 6.955519295949805 6.5264964051430185 5.6059084211795644 -0.1836652116645611 1.4451371256504855 -0.5707118824756882
Ni 7.036416923051065 0.7569148988313285 0.6517088621219901 -0.834635107761053 1.0489458122256128 -0.8238120490036198
Ni 5.9116558098983445 2.9393549684461697 11.288584359171766 -0.11702556015814038 -0.5820237079440815 -0.46220541553215233
Ni 5.378225146820053 8.766452498687032 12.60767768694467 0.6142252323772905 0.3000773066084187 0.6903026322578434
Ni 0.43286704172269835 4.41692660799088 11.615065199607841 0.318460951321929 1.140371926648094 1.2606231928323837
Ni 0.16643394370124556 3.5899544572362356 4.440567158086792 2.1004588709577696 2.003019717571989 0.6705814996798322
Ni 4.252299703973876 7.889460744301556 8.92985825372154 0.04202905204659214 0.7189156680088458 0.3939238575469345
Ni 1.6331260865903117 6.270967953298588 2.267603800712921 -0.31088005365087745 -2.6131836353957127 0.9152031964231078
Ni 5.3258582545272155 0.2937464097023999 10.277839998384698 0.43176509676442415 -0.5329788867012886 0.12455323599375322
P 4.863265409998731 0.6450060489427077 1.2675694101781299 0.7870182772140382 1.8296366045597263 0.9985848432745578
P 7.616495290967943 8.581743236117315 4.6375493870892806 -0.0615187853400876 -0.7202305301655273 0.02602496330885195
P 5.288329579847772 4.68599854282958 3.475070512114899 -1.2400600239690514 3.7817297104851773 1.4033320166892413
P 9.350126316697299 0.8397760515276315 11.376680338169843 -3.0286942179744876 0.13108049558930973 0.47166990337916187
P 4.369934261563032 2.430328655742696 9.891741751788704 -0.9899852745310047 -0.10902120179642515 -0.10305778512413864
P 4.817102066312624 2.5527416223937913 6.45254004594226 1.527166629349415 0.20968683253930337 2.4082420308508783
P 6.820941412661491 8.794377782054859 8.688283128923475 0.18537139572239042 -0.5619963569795612 1.250546525322672
P 8.381702080144182 3.3819213422472267 8.353840136311678 0.3209202114956989 0.34058709379700697 -0.2989089973319303
Ni 8.7815794700644 6.644466289683888 12.16895639552328 -0.4887140033456422 -0.6154290228774046 -0.4752110837632009
Ni 5.0908033760125 6.140656174007093 0.8092547786752768 1.4152657920123497 1.0786338262083488 -0.06586214991044786
Ni 1.7517386811219695 0.7917386027669383 10.326481967122232 1.250696677747291 0.9005144840626813 -0.18597149120023454
Ni 8.523070334204725 2.5173739436253992 12.778088980878758 -0.0821133216619876 -1.4305898239639296 -0.19142942899101226
Ni 0.4107382573007682 2.7622278208402324 6.6512808785137425 -0.9179447637239867 -0.008892674503939524 -1.1586933506651012
Ni 2.443788306999037 1.5524333815150995 6.5713370702973615 0.6404998498031034 -0.30449703294266917 0.8435856320861214
Ni 8.473525777088824 5.297979544347126 6.71426459468338 0.20380106318248772 -2.643986222598866 1.2902592705312619
Ni 5.1963475340648175 7.459068601775266 2.947258438405343 -3.3409881212537553 0.5724903145323496 0.4723625585708123
Ni 4.261455992683207 0.8485886301114542 3.4461550827757574 -0.9735713519493555 -1.1952230701600188 -1.2265979849268744
Ni 5.957325477794427 3.6359408228089385 8.726673407576076 -0.5742134678710433 1.4907796060799485 0.5330850732618496
Ni 8.356254490364027 5.665004207636817 9.712442430706655 0.7197132242094766 -0.5189905428419964 -0.4957639682138882
Ni 4.899070876731863 4.63147065462569 12.621474528080235 -0.7412338718900718 0.4912853636172442 -0.46515678485099243
Ni 2.6993633320312047 6.000647857028506 4.490476848994562 -1.8709002391952039 -1.7147229485382662 -0.6425760156058418
Ni 7.2687239834892265 4.342893868762231 4.440594170535681 0.13773271079850471 -0.4521750278793438 0.31005550086705314
Ni 5.201628933554331 0.5648601130915422 5.6422951212956685 -0.10083686621341988 0.6039125375973728 -0.9125698725653187
Ni 3.3211340176113224 2.585128617146938 1.8791061034846548 2.163800311328893 1.572438356703021 -0.004379102904302136
Ni 1.4909195151504797 3.9730934434833443 2.2976230146014576 -0.22589121021330774 -0.7830721480820966 0.26000743517072644
Ni 7.010345252555219 0.7568878863824403 11.863211801195764 1.722440628897498 1.006781520152737 -1.1352060661764385
Ni 9.264422336621456 4.385489706267593 0.4918361491093027 -1.187363464906284 -0.23740152484575244 0.5450257905634935
Ni 9.285128775889861 7.204126972096337 7.643211534382087 -2.1149485799335124 1.0648812525089468 2.2138679174092455
Ni 6.659202046284257 5.9757218869510185 7.951069619969162 -0.1868145559268202 0.016283824761688086 1.0770173736508484
Ni 5.19033959284659 2.4860860761028736 0.034039411454098494 1.3863815048778318 -0.8719724107589305 0.6432866685196212
Ni 8.989519438677933 6.788265664144367 1.0993526448502657 -0.8582265219277477 -0.15052986256317302 0.1830777145922073
Ni 6.909868257328817 4.5156990245460635 1.8117463705951355 1.0929294168954145 3.341053684384369 -1.267707096262359
P 0.932236869680533 6.700894363947496 9.86593461699921 -0.8642884118511116 0.6160440307535842 0.23243852441352228
P 1.2214936240849699 4.699113552496658 6.088308842453108 1.969858143218356 -0.10926468526579892 1.1184388740204285
P 3.088957362098828 8.586158374314897 11.003902023266976 1.8692745306663228 -0.36352416220915457 -0.05158609960740793
P 0.5788423155143058 9.611867631786005 6.94262970051138 -0.09910959910966802 -1.5386108666306146 -0.8770688514452314
P 2.7239167166067864 5.141791701948286 11.168668646847193 0.6076902594722501 0.43888499563865707 1.1108626043350676
P 8.864936161478237 5.323147695000853 2.849919544568742 1.296234000057458 -1.0454858787014705 -0.015255640607489854
P 1.0772657762973 2.5150545988760364 0.19691609507590005 1.2165987076223177 1.147492082632643 1.6700536306553497
P 4.711623110723139 6.24892952086087 7.270487244376994 -2.024464517709326 -0.8944682778686014 0.29012250938855194
