# total energy = -340866.4695358259 ev
CRYSTAL
PRIMVEC
9.27748271981993 0.00000000000000 0.00000000000000

0.00000000000000 9.27748271981993 0.00000000000000

0.00000000000000 0.00000000000000 13.57853374278053

PRIMCOORD
 96 1
Ni 7.1941124192443615 4.9095787586850035 11.270589955335439 0.344515996537768 -1.2581369360754204 -0.4659543410516233
Ni 5.956904472534566 7.496270744452012 2.449146814529603 1.5264197238810615 -0.6967077644532389 0.12355230553306465
Ni 8.671198951620559 1.6975009599080015 1.2347113761883381 -0.2150676372352425 1.0971259714752655 -0.02213565555677478
Ni 6.355056908427946 0.6786478396309249 4.916895909076212 -1.364423512549502 1.5086282042255952 -1.0059957910266482
Ni 5.082650193385139 1.373048844425121 9.2013569739934 -1.1932489771527837 -1.66725498486429 -0.45536448135091895
Ni 3.436360936481412 4.316942458646947 5.038830788379742 0.2597009596739011 1.2914440348679823 0.11769507542133924
Ni 4.413929259952507 5.4540927573674125 11.227599957259134 0.1192639625703559 0.08687860426111489 -0.641211016937515
Ni 5.346297689032871 3.623125935245734 9.887575239285827 0.714049598165796 0.6961616621417818 0.9519326906336573
Ni 8.016217969664256 5.148705868274711 6.060941232737399 1.5539886346382656 0.14045242372251293 -0.2969212774779403
Ni 2.43384546276059 6.135774333752395 12.446803093820307 -0.4152984665679686 -0.9931155926298703 1.4977272410423756
Ni 2.9573366862604478 7.405407081549137 10.687976119564688 1.6236009956197648 0.884865721781831 -0.5248984236859993
Ni 7.099556318335019 2.178816748288759 10.643451625894738 0.6077005438848953 0.2603630187379323 2.7922576281451654
Ni 2.977877032356728 0.8529847229342818 3.091329509476053 -1.219648807302551 -1.1201854243978902 -1.9089736490281575
Ni 1.4360058401836373 6.652381665290446 1.0682798356621446 -3.087902352903527 3.5907324839355774 -0.5905422869380539
Ni 2.442260139323068 1.9102057995418802 8.002956736281227 -3.3725175593206047 -3.13024482242548 -1.236537869748406
Ni 5.964345013442071 3.2778365942288676 4.6118263098825585 0.6246559407923113 0.5260970719797907 -1.436186601325417
Ni 7.094286708315739 3.2826052201970195 2.1913441328117065 -0.8808424595550508 -0.5924994106644247 1.1513284256595977
Ni 6.166260141011824 6.996223719048496 11.367988676860817 -0.2941568273589257 0.35139935392116256 -0.22869628376227064
Ni 1.5036572420508787 8.854791051394399 4.672848950554772 -0.5704827971840175 0.2942113347459449 1.5131461467006069
Ni 7.018109300096881 2.3722986443311775 8.521493784164367 0.7959747150763775 0.06459845270667584 -1.7230728631648584
Ni 6.812993441089359 6.6247440451365085 7.474276616859216 -0.05821774599131264 0.7992934950369653 0.4061239991575522
Ni 9.201703951836219 1.5356367239812656 5.560735562384358 -2.482029092035358 0.08954201002589095 0.25383164537731767
Ni 0.39566235960962176 9.306242623838425 13.658646403571103 0.3912241992275843 -1.005325761542817 -1.671052761343825
Ni 5.7507959229072165 5.525306712487126 5.572344476146903 -0.9167535716293631 -0.3442609431041684 -0.7375062865268395
P 1.166151708791365 7.769808036368324 11.980326638583634 -1.672601079667552 0.7221071783629499 -0.0044582928816697415
P 5.505814721905245 -0.06277422935467843 7.306378306361107 -0.6832590951475007 2.127242823919833 2.4225723314306213
P 3.7676412790315292 0.09647468427551689 11.025253426756464 1.1032881344219192 0.3142019189352589 -0.15595411890253788
P 0.4636746555433244 0.8284856750858418 9.307134189899784 -1.0661452068230348 1.4319136849816758 -0.9130290715899244
P 2.210452963369298 7.604130755163551 3.118378009495793 -0.39545880613422213 -0.9251117137860713 -0.9274205644249061
P 8.490399374057642 1.8146013431181387 3.4259590231827906 -0.5202115597332911 -1.234580746022035 -0.5820093097663782
P 3.930563147955093 3.5613286247907565 2.925657794760738 1.4630404882934673 0.4274754682501347 1.9093940243950278
P 7.88257583528444 7.086085413849113 5.084916682342375 -1.5013859208408853 0.7416773871853937 -0.4819921112407764
Ni 6.331965254663881 1.2850240911453095 13.070601529586817 1.2564202104946298 0.6508948198841822 1.2737725857301483
Ni 0.6733355531924742 4.377737800999666 2.251348105913291 -0.4555971661870153 0.4344544706711292 1.9824696613347792
Ni 0.14854362665616766 2.9235573727389688 8.00449123187487 -0.7328829288222152 -0.9619553649769821 -0.7880989118727265
Ni 8.004704613970722 8.723774444541796 3.5391359590739944 -0.008425505059533876 0.1608620977271165 1.8160773778180528
Ni 8.450302095002481 9.008092171039804 11.034758207504268 -0.6197875569564165 -0.871021616809887 0.8166749237382065
Ni 1.3043954744556223 2.82749831967624 12.68237692763997 -0.27153394775308715 -0.5101063529784893 0.9043937645124296
Ni 3.4113117339249737 3.993705693362175 12.823444758955407 -1.0104875082494145 0.27383688485465096 0.01837901672781996
Ni 1.9405524445648843 7.3991726133573135 6.934434758327704 -1.3308814149279982 -0.10348510246954436 -0.41315313809019166
Ni 2.97693072914904 2.212271349925247 11.050047498546123 1.4994326537692562 0.49782753561113624 -0.8641475153978729
Ni 0.4854266408447415 0.18983398995160708 7.23378664510079 1.7087263646351991 -0.695682408512518 1.5579437626312718
Ni 8.57404515563129 3.8234267808729614 4.186845250302989 -0.8847348526309214 -0.016640693880474566 0.8796227282153367
Ni 3.7930615808851003 2.066781870484479 4.663819176907296 1.5059419156426836 0.3909246657092945 1.3228744854631216
Ni 1.264307472882892 0.6014619690721086 11.21451035730103 1.3951713352553197 0.5136678450775025 1.0899417950220003
Ni 2.098176871021882 4.6345292371328775 10.452999755613407 0.9393291429370338 -0.9585401686478459 0.8285727036170569
Ni 2.7029759505234545 6.126663846007794 8.755737227003811 2.823091582806886 0.712330044371528 -0.5769095266459677
Ni 4.554028522102426 4.759478370477365 7.671803495240378 0.5198027543306467 -0.2577554059117561 1.0017493570454683
Ni 0.643301559327304 6.419934343049123 4.615913968640472 -0.4929398685015317 2.523360346683977 -1.646478928659203
Ni 2.019865641844512 4.038404603701776 7.1533341729789655 0.9383081578716872 0.9881693043681885 -0.10648146609370694
Ni 3.6060553675776426 8.714756731621478 5.969652661139307 0.07760437804804055 1.5222995310651009 0.005185657965997521
Ni 4.0700686512296 7.0952422890058555 4.265723333656729 -0.47530672880080077 0.18294221745560751 -0.24609442463406003
Ni 7.4837925305859345 0.07696413872877958 8.805597200818282 0.3132374981394605 0.1688741693983156 0.6834321303902552
Ni 1.1898463989132706 2.6703748772703704 4.179418625619126 3.802041939679968 -0.1500135850483868 -1.6651381956316034
Ni 6.658940845367262 0.38695544235065216 1.7893248422422063 0.39200992835367326 0.42370237436094776 0.07263443563727491
Ni 4.9714502889994066 4.1097484435754845 1.0405865506136374 -0.1609783115900066 -0.5308569552622793 0.18203718914283487
P 1.2103310801149805 4.6544851018361735 5.2325288497627405 0.49900510085900507 -2.8964186736358117 0.8367662951714429
P 3.588474538375994 3.072859897457772 8.938640009833227 1.7658606477543457 3.4025842967989974 1.5806640870469228
P 4.910515784410263 -0.1282945935081368 3.2452011942907992 0.7676961798466586 0.9149890235297726 0.7024420958338548
P 9.073201542721689 7.266374729878474 7.592029207084063 -0.10500051067280626 0.19372285301087927 0.14195471929965228
P 8.56470273082598 2.0881664674817353 12.388687088392885 -0.6887028918708913 -0.5430714950506002 -0.18003147156671573
P 7.252291511552298 7.90306051648615 12.880691464279296 0.8221937966739066 1.6905435230785855 1.348700188276974
P 2.154556131738726 1.3940901745725298 5.944641496260824 -0.3343693950220693 -0.687410398311713 -0.7507405258289264
P 2.200266287663013 1.198372405264888 0.7762617987486383 -0.7391276241803464 -2.0136129197068033 -0.04704964518963509
Ni 3.0639349593617373 5.615530229102447 1.8695741374988508 2.577747920295922 -1.6324874994761174 1.4434332555855012
Ni 8.015503603517274 6.88389196180651 9.471936604511566 0.5909996861904467 0.13444426985522007 1.4043085216698976
Ni 7.649850188570267 8.949922356214296 6.519786958676788 1.5845760205068193 -0.3941377733299535 -0.3604429521806696
Ni 4.51407968276612 1.1259430999470668 1.1398287078975193 -0.9739598456370259 0.6121518947880297 -0.23314532067255977
Ni 5.366494768279304 2.7091918637504224 6.7048356231918715 -0.7342952357887097 -1.1615074230751288 1.0795529955885084
Ni 6.560089270093612 5.667725345244122 13.71499783184066 -0.4924446740326681 2.726758260890775 0.28170214653534065
Ni 8.664964483428735 6.255212642534466 12.821924179585407 1.583671506414679 0.06103644638703037 -0.48943494067206667
Ni 5.516502381662659 7.917960153266017 9.223232349811115 -0.6177617847756394 -0.16600738937348186 -0.016029285548720778
Ni 3.876512535327755 7.9810284788136725 1.57369759564341 -1.025841879218298 -0.48900813754729333 0.09246226899647947
Ni 1.1525509195514616 8.03326070488506 9.446408683861826 -1.090504866614322 -0.27143316050916483 -0.6521580028673221
Ni 6.919072175174664 3.518726425479954 13.368854034692147 1.0027523443886859 -1.622067332584058 -1.0738551738727828
Ni 5.170340957297531 5.431186653251914 3.094982054308079 -0.06280870779610473 -1.766804499724854 0.18929541336714495
Ni 0.7027386782525191 5.398103150912558 8.695706349203185 -2.624602161645299 -0.14420777699988713 -0.9431919683265498
Ni 3.213450866176392 9.054451750734072 8.325460580454163 0.7033707782957113 -1.2339657381458555 0.99558616565755
Ni 6.12822246305575 0.18683179663780575 11.151452236984044 -1.189822725080054 -1.2401132458044901 -1.5832999820078733
Ni 7.574257261744392 4.637108377247948 8.29196237465026 0.6306872345880558 -1.1225045594493699 1.103349326677158
Ni 5.8197925597265625 7.865449602721778 5.875146658635078 -1.2909344422214153 -2.3574635147464305 -3.140141512713902
Ni 2.8034696401869157 8.788651879162972 13.139634348587634 -0.5942536743513701 0.0406419418910784 -0.7762016462145084
Ni 5.1116052160438965 8.610598436398833 13.09721491568067 0.24279827038129154 -1.5187313540978682 0.5281752946650581
Ni 0.11817657117182119 3.153935816398779 10.320744604856623 -0.007383179837948575 -1.0969997303100465 0.9498079309811708
Ni 7.41895220589447 5.566285352372974 3.358582234795427 0.5128486916103168 1.4174103491591783 -0.37175246365621784
Ni 8.369189066131762 7.62693480697234 1.550682017235257 -0.8551375985897789 -0.7812646625597126 -1.662812375711904
Ni 0.7381953605970368 9.158582213509431 2.42831701098156 0.6851108036442589 0.6033718346025544 -0.7267796441379548
Ni 2.479852498122583 3.064296781176441 1.565768131411933 0.3131169134011962 -0.1905015178601042 -0.37769993948890435
P 0.00674380197713902 5.2407292164811246 10.724773398120094 -0.2823611202755782 0.6999830927704009 0.6738845959111363
P 8.191293340568905 4.809613885519957 1.2483845297911824 -0.6235709352582487 1.2627641504347864 -0.4688658582714635
P 6.106800756128782 5.6604889089500405 9.451229263731577 -1.5550736401723284 0.981844133481109 0.42652030342571706
P 7.492290704490267 3.0944949864805924 6.570014320795418 0.4593743738412604 -0.36999537175579505 -1.2368268617437344
P 3.8055397947511778 6.392370942754611 6.5835928440774945 0.49076857188182577 0.5074311201391712 -1.3602184733292186
P 4.964315905012037 2.761591084505521 12.338840103053814 1.343081813648932 -0.19225578154704956 -0.6988109268391707
P 4.475067869155073 6.239626472054905 -0.12848478189791718 -0.7079707389615678 0.0334636789750843 0.2554043891810763
P 1.5744258780140323 4.67224220320396 0.4212552226363595 0.07493377319441287 -0.2582493148290391 -2.1434302323129732
