# total energy = -381174.1335946075 ev
CRYSTAL
PRIMVEC
9.19208917710781 0.00000000000000 0.00000000000000
0.00000000000000 9.19208917710781 0.00000000000000
0.00000000000000 0.00000000000000 13.45355166131116
PRIMCOORD
 96 1
Ni 2.1265898137936574 5.707671462495513 6.428376289344488 2.0296316637325624 -0.1286513173225268 0.8045562860978015
Ni 0.5857088870851753 4.637629562197671 10.615874763460955 -0.4009244572344837 0.21645500450107238 -0.5718611655887829
Ni 4.046817227242955 5.501106836190906 13.039302872214092 -1.3333316762407035 -1.1972665829526088 -0.19301605675184177
Ni 6.09659794449864 6.549841473949852 7.297825663627421 -0.6392464370119765 1.1449186654785122 0.5319548163121484
Ni 9.170193545957211 0.6318559320049432 3.9557208666134356 -1.9089471666655964 -0.15308862442928473 -0.8183425412486165
Ni 1.3974273457617494 3.4200638238986425 5.341046827072141 -0.36094097486301063 -0.35947724583329055 -1.0228902527891417
Ni 6.352735507331405 1.5564688714079906 6.0694619782600405 1.4153328978048594 0.733396121013208 -0.30573553333546055
Ni 7.894092584255382 7.488574381422786 5.921782793953026 0.6825530702194116 0.39472604173325565 -0.3306983739283853
Ni 6.259766718151769 0.6461110237846328 3.5472042043157033 0.22559013403312117 -0.37865484720300596 0.41077358211442155
Ni 6.446246629768073 5.81309553240863 5.019560864394024 -0.34481064496005126 0.6286100403440529 0.9727740528590408
Ni 9.047240162126203 8.115677084152983 9.624589763381838 -0.16819822637721354 -0.9338447227836949 -0.0636448305441549
Ni 5.4266417223739944 6.936920346043437 11.98005156531332 1.3462573831634361 0.49877832956017965 -0.723387073516638
Ni 8.268192226536662 0.6404146861680003 12.478465020612735 1.3733041028685833 -0.3866013557435923 0.09977422927686043
Ni 9.123598846298167 1.9165138094520093 0.7826778915759981 0.6490084014947467 0.7142275185045571 0.6205133793788475
Ni 8.091409968923179 5.145575213896066 3.6830439778590844 -0.6101531191904459 -1.229945818353185 -0.5365989999523791
Ni 4.934331814238439 4.020316434361317 5.32436410456056 -1.9934421011858832 -0.43668464555322856 0.460727031214413
Ni 0.7378241735929096 8.730085511833042 0.8029896508651265 -1.7734513156174103 -0.2939030594769067 1.4064096271733004
Ni 5.398118669889872 4.862265835677202 3.1505793476894848 0.49165277425899195 -0.9670654325100377 0.4691579355905856
Ni 7.699257063645179 4.112862387442252 1.6544105807919172 0.27472057301118497 -1.452134382903925 -0.05002389732661062
Ni 1.0019652884069594 0.5648115917202369 10.656046950464292 -0.21257932359575 0.6498751203704163 0.9260720208168115
Ni 8.610569969326257 4.97936385875011 12.720467908033049 0.4599528720525498 -0.5096214429222707 1.0630951071428014
Ni 5.950140388833309 1.6534178351688797 11.06939405558523 -1.5417877216966995 0.7508125167174424 0.8624171629703277
Ni 5.136566966575912 0.23230707183531535 7.397462394241794 -1.561455375328956 -0.6067654336651357 1.2169499203141492
Ni 4.9843643552217065 6.1074262254610305 9.571811545383744 0.8155418385750278 2.3074488733912 -0.8097828246040635
P 1.1269225476622478 4.373789028697264 7.977243303064961 -1.8684648902808336 1.6040485274091343 1.2285566513151422
Ni 6.7354205608341395 3.034602759487044 4.144420667747921 1.3994031139484804 -0.19569128959115975 -0.5210343127449026
P 8.128775811123615 7.150342270818285 12.97743000125828 0.1867963010943751 0.7975788263387038 -0.31408699062394935
Ni 2.6475422715716634 7.1780472273723115 1.1443148994525179 1.628767370312053 0.9338154122076563 -0.08221308046464551
P 7.794652564347797 1.604148237581095 2.3582598738541902 0.031029615612294947 1.5087760426573693 1.9452781398861465
P 4.512506845338543 2.657414575267425 12.618772149459783 -0.13970037604783683 -0.20591271020885182 0.10884456700924482
P 2.948004088055231 3.9750545876220906 3.797063570291667 0.4398064790116619 -0.9566151837109913 1.4628332573786678
Ni 4.62524781817701 3.4942623671315896 1.2704616150376307 0.7866698927356839 1.514419614096392 -2.0758189609219024
Ni 8.368174579701277 7.323796992176773 3.397573539492293 -0.09577050743410603 1.5908387135870798 0.27995713881977596
Ni 2.562818786316699 8.30856388187352 5.532100722225699 2.0588255116876994 0.019336495545082825 -0.03578821334320288
Ni 3.582883298165887 8.208930828094788 12.545665626412177 -0.16301539662469344 -1.5747217534205589 -0.25382856005352417
Ni 5.109533032526345 8.097954736363944 1.2599008238681149 -1.1408290687901708 -1.535594191291478 -0.3153203488104182
Ni 2.4490299153205815 7.939758882915105 9.977772806911066 1.687659516662571 1.6401524722205434 0.2694117592037618
Ni 2.8998926936943232 4.836941630200644 9.475982178075503 0.25329197082376376 -0.9643459766963457 -0.37373632685546604
Ni 7.298426826254705 5.668090326821447 10.861092124440306 0.698523477505739 2.637246075661555 0.5678304471628349
Ni 4.219518197295064 1.3280546493074563 5.0488082534994 -0.45114607239419724 -0.7355293653061268 2.798205103977852
Ni 5.398412816741142 8.252997703250728 5.4399031493217365 0.04243271524291402 0.040421341239840064 -0.5300707119155581
Ni 8.367926393295518 6.008298736582921 8.020321109433505 0.14413887143516468 -0.022800799944599444 0.8482064186875845
Ni 4.49986772282302 2.3412067101517913 3.1989177866512164 -0.769388737057733 1.792883970420725 0.460649126788626
Ni 7.216111668344516 6.46279239015203 1.4393690099172616 -0.0906190451401536 0.5533412524077245 -0.37374352594431764
Ni 0.3638495437234189 3.1747545420282672 3.0350669599867053 -0.08841072463492515 -0.5812510914441151 -0.0306002413843602
Ni 0.44853534141306484 0.9997040344878185 8.413178128736732 -0.8994487618023282 0.19103939264144518 -0.9358100740401819
Ni 4.742943327041561 4.445367826536084 7.854801918596944 -1.7654621267643467 -0.38146249185513015 -0.14239257816801928
Ni 2.7084306697846277 3.6081983115533425 11.512997841194965 1.2095716255722073 -0.06526282576355212 1.1536892125822904
Ni 7.4236046956484465 8.999551603863996 8.092123275037508 -0.4210754782610619 0.5669436736825074 -0.15126416962603625
Ni 7.130377053288309 8.585742136661217 11.068129224124768 -0.5997812890378187 -1.2528607752781455 -0.6145954712325157
Ni 1.3987142382360573 6.443994567938034 8.863751356303755 -1.0490545698893354 -1.0541093587044232 -1.031556413104572
Ni 1.5491979289281514 2.63812038024191 9.682225081261535 -1.3118128283323214 0.38323758147768194 -0.5973652233971584
Ni 3.372384457725538 0.965582999740457 11.14447779699872 0.6761373965010549 0.30119136560820386 0.14175828701813004
Ni 7.20676331372758 9.088439105482257 1.3351463460498028 0.7878371735709077 -0.6297215282406767 -1.0988879484716945
Ni 2.7760844455768097 0.6528230872470583 8.51994608207659 0.6543658091519182 -0.22785810413169144 -0.1146146367238026
Ni 8.658626211152551 0.5193162659178149 6.187530685942141 -0.2399489738579545 1.6082167998542107 0.06966146905188003
P 0.9783048510579 7.013187109324379 5.182469501925561 -2.032520555244583 0.9596771104657665 -0.2925714851496768
Ni 5.841673737427366 7.314512982183553 3.3443375554569093 0.8431925104127608 0.08866217852409891 -0.6771648093243047
P 7.386100972111476 3.5672107862466382 11.341250090782756 0.6432876969608856 -0.9023060287454654 0.11296630248710221
Ni 7.866884000512874 1.7709938468751028 10.019276927625313 2.282055630129076 -0.06344119917378105 0.021033680741847645
P 4.228976856981226 6.534895137069676 6.054205867977121 0.25954489371201106 -0.82887866489325 -0.9120777634202486
P 0.7290420516646691 4.191776472384627 1.0733832246864918 0.1186731230638924 -0.19627750111193293 -0.5026023312919602
P 6.931175290354562 7.247153353242641 9.242280666323383 -0.15356556406570326 -0.051520793587111265 0.6261744343193668
Ni 1.9924772337925791 0.5098649599029342 12.84450963521376 -0.5543583808183292 2.2624247432720264 0.4860377420650597
Ni 4.970024696222276 1.3028959014347388 1.2984303845488905 -0.224220250268788 -1.7948326095066638 -0.6779579946495614
Ni 2.8229273316416137 4.897646186631564 1.9509804667496136 -0.4542810184787531 0.2219841618494177 -1.746537779056018
Ni 1.3416221728223017 7.600625947578588 11.888001985043903 -1.7621595447536749 -0.5573534588909111 1.1022792335414306
Ni 2.509164562227165 3.017413552865933 7.346069424071401 0.2641127155883516 0.10258495925277818 1.30467158930185
Ni 2.3928386746388415 2.5961125330448622 1.0012391133678857 -0.21860033297884932 -0.4762801484576636 -0.36106181671159104
Ni 3.770107768999469 2.5855783989337424 9.676197828437223 2.1554655662109523 0.3534500658026042 -1.4789381333603304
Ni 9.135061381408608 5.281710053499628 5.831186482970668 -1.9089319971569447 -1.0641808840078122 0.40292477549396416
Ni 6.651892047162462 4.287649961720559 9.22842359200182 -0.5429699364757293 0.47460918851314393 -0.11177742438532363
Ni 3.9960768953988186 8.978088075810362 3.3655804733720904 -0.9705593045959091 -0.7323098299275645 -1.1398718470832239
Ni 4.971385125409402 8.871037006126157 9.8317886438345 0.07969417069753372 -0.485694242682712 -0.3342485531734889
Ni 6.7885324516666445 4.352573687049389 6.922874833895277 0.0908203625176823 -0.20011230147699083 -2.3354785258349064
Ni 1.8498803555501715 1.1833711668388496 6.2649823095083566 -0.6926346228251298 -0.9396803556288654 -0.4874575052307218
Ni 8.259616007404311 3.3832495070443374 8.231285988791335 4.118655296270197 -1.9870511100578747 0.09695887131525237
Ni 0.791360738941935 8.072005468828436 7.247521956015639 0.2982703353066669 -0.18634121583482746 0.0004476290603798743
Ni 6.826900231579222 2.275566001872991 13.33822777139977 -0.3652786830064161 0.09395659415381884 0.13444092742111038
Ni 0.7017783153875478 2.5925735787405157 12.110887165549464 -0.6532450652839136 0.06992397868464732 -0.29588486579362594
Ni 1.1830218674529662 5.444455991054055 3.6399928285489374 0.5699611203525926 0.2253296812828829 -0.09433274654631496
Ni 5.885997991078168 2.104832138888753 8.748830939139156 -0.046644439331416446 -0.47392373241034513 -1.3234900075599336
Ni 1.434002668299398 7.952149819024869 3.314053298700806 1.0888218224849442 0.49407372499565877 -1.0480610956278142
Ni 5.224388185858317 4.381822914572584 10.87181469637802 -1.9594490320698899 -2.258734696014949 3.1256505181865784
Ni 6.397519365437318 4.620587429002194 13.205225595762238 -1.4298604019970729 0.6983640691097391 -0.7922137053720486
Ni 0.5273538286287773 6.470660818423512 1.2696628224946496 -1.617533963490079 -1.3562332634292256 0.2501750224613369
Ni 3.6440290748737123 6.3991187889411 3.6685820640745956 -0.6603693350335208 0.4651066483393474 1.0961378965303834
Ni 1.6738058887975564 5.360614946352901 12.747213210484805 0.687172571269294 0.0298582210120131 0.5538791271890654
P 5.162047437567207 5.706779829852601 1.3265158935917485 -0.06153421195905532 1.5109992755609332 -0.5090414020490847
Ni 3.686983707248287 7.283802212493107 7.97849434639177 -0.5836450455975885 0.6023541919713175 -0.3550271804817369
P 4.410005859759926 2.400348611435337 6.940902359042509 1.8380104304457183 -0.5309744546767501 0.44958875520940633
Ni 5.485213714133205 0.15582521366938173 12.768200588322946 0.9317559585754663 0.31324469722831216 -0.5668855667510624
P 2.5033367777363713 0.48142463622073156 1.8047674206544009 0.3188964961974508 -0.5085490357936984 -0.3234491485651397
P 8.188772576693667 2.9334070505609393 6.072368516834156 0.5282534562011613 -0.838360122021124 -1.1725670233234
P 3.3726326441312975 6.263397593347138 10.998627838423044 -0.3835522845046233 0.4820779860863633 1.5713363818880939
Ni 2.017727902556319 1.3608612153132034 3.7495312775441976 1.6536633622227843 0.6790602265748047 0.04264791657751365
