# total energy = -340856.924186727 ev
CRYSTAL
PRIMVEC
9.28769879906191 0.00000000000000 0.00000000000000
0.00000000000000 9.28769879906191 0.00000000000000
0.00000000000000 0.00000000000000 13.59348600741066
PRIMCOORD
 96 1
Ni 1.7897023932226181 7.268506582513674 0.8481953708437037 0.948944811649927 -1.6513267436698074 -1.3845575642952155
Ni 6.5482083957117325 0.8298373055468431 10.624777193436557 2.5963858471120833 -2.0552871595171376 0.2825022738391328
Ni 2.756774735107825 2.7254566150121997 1.1061416987214616 -0.30229951107071806 1.092029016568332 2.5572742258226024
Ni 4.2841739409814945 2.730750603284592 8.688290152048076 -0.7739773848696799 -0.5047198918555953 0.7406792849381825
Ni 4.802631859124439 1.8599545463671352 6.327604189321658 -0.8695812848189345 0.17055078576979013 0.14583682796287786
Ni 4.83654124716392 1.885365690074618 10.996246134041723 -3.0704743872350666 2.7892869755526157 0.9707955889764311
Ni 8.956843031868067 7.887401674652494 13.289562845307398 0.8697494349656828 0.03064677835157948 -0.7892613076119439
Ni 5.11532081204835 5.163477529929672 3.7469223644715566 -0.4858168843035052 1.0233792766104182 -0.09521900580601021
Ni 8.481015650865963 3.890143322637213 12.918106907480443 1.7114082823427363 0.1567223645271301 -0.6850534680437621
Ni 6.434647703419557 3.2581804383944335 13.353805857377813 -0.3342305554513599 -1.8020540669557676 0.018223979207194423
Ni 0.23854896909373838 7.848411915411263 2.217111143239396 -1.4355176002828502 -0.05880395751208583 1.2914517481774663
Ni 4.726166235533904 4.171207661407623 6.790068429400396 0.2248846233256643 1.0469051276465002 -0.29638623091007665
Ni 0.9939509419910022 6.524301859197455 7.208843334683813 -0.6879102207662668 -1.7327386683893964 -0.28716934029749897
Ni 1.0681225039968343 5.096151001883056 1.9661073701574505 2.111655511004537 -1.1517667987485969 -2.1933877951780225
Ni 2.659941188216665 5.738451094805086 8.580602071658767 2.099849005287912 -0.8184371578449517 -0.3353654403867515
Ni 1.395876104250254 0.8735043498652278 8.74664662066754 0.2211099867745805 0.3792354022968243 -0.587895079123194
Ni 0.7670208840003561 2.932581584244865 9.322901887966795 0.9530112684098169 0.5504415622624262 -0.3736154850068856
Ni 9.280240701420166 0.9634315639855972 5.83104852230846 1.3792294672140828 2.260107150882443 -0.7407548753711243
Ni 4.859649041587976 5.15324248593638 9.291894905778408 -0.13211742149425634 1.7955041816523913 -2.045158555723568
Ni 4.414145996918085 4.20399323790156 0.056091198900804155 -1.9729362679230473 1.8096714742917093 -0.5093409355673745
Ni -0.19562958452259505 3.9906176474279835 7.582092727134274 0.21375123241666416 0.9762090466825188 -1.012293965330534
Ni 8.379482528420715 5.930520704406964 0.9200496520180237 1.2793179410284097 1.2507876947992007 0.0087548633744946
Ni 6.628333372599324 7.371488585959788 3.020553737783938 2.6525420825886767 0.5708872317112879 2.3779199828285695
Ni 6.521859194433177 3.283294375742764 3.911158598538865 -0.43303316484357035 -0.962527178320052 0.9143452192981867
P 8.400231247369003 3.1164408681751743 5.269718586857861 0.1111297634989957 -0.40378635216331105 -0.18760388459733496
P 6.125710980779939 0.8182601890880065 7.805868682638421 -0.35966776457754185 0.23597250570870973 -0.19192205235671464
P 7.131503738643397 1.1029420865112174 13.204114159511496 -0.3584979126391568 -1.1061860247950046 -0.8578115458775162
P 7.537450474449923 8.137714442949413 4.803040517868274 1.3905240662912954 0.4998093419278553 1.131056305674123
P 2.8813134872911714 5.26705394609409 5.705675734779743 -0.7699865185427319 -0.1705934660822675 0.5025293119621798
P 2.5990788984816016 2.783969116970219 10.356115647541502 0.9407615045081863 0.4638689192775043 -0.25955209280086267
P 5.818780401064594 0.6267896360537926 3.172570146640745 -0.8254781238521331 -1.1233267982403492 1.306301411595789
P 8.757761209729948 0.3592797648004516 10.840709687368712 0.16692373054016413 -0.0969825254643362 -0.6977498325645081
Ni 1.200026401267912 2.7770404937224917 4.685552057785933 0.2539038933761498 0.3875120404833197 0.759339323241531
Ni 2.246685033514749 8.213743544699945 7.9571504345261985 0.8133306898563218 0.2146932846149593 -1.3846213276536152
Ni 4.371478308982348 7.966040619744328 2.967865551695423 0.4141620389706802 0.9751266122516172 -0.02342017869615321
Ni 3.4537700858125175 5.8694169345050895 1.9320419487794152 1.1628171430254877 0.7306188153783869 -1.7000018402780077
Ni 5.572637809494527 6.599216437101167 7.2958003427524085 1.4181127745428417 -2.5037916805234297 -0.7357561366049522
Ni 0.737598383214196 5.549019191640678 4.848646833680124 0.6808391728520984 -1.153086288890969 0.6214394907375427
Ni 4.9349072643444565 0.9751805028708184 0.6575031269625187 -0.4364373054291129 0.8670528619701262 -0.5573323758449885
Ni 7.220842112664696 8.508117155741122 0.9677512726618948 -0.534465498549144 0.6560218566981024 0.6150446429547924
Ni 0.3941885092225804 7.789797248767284 5.454318100376432 -0.2215157068534314 1.6716968226857274 -1.3705365674257752
Ni 8.976830159521027 4.753936454717154 10.21612959484124 -0.42582302024837637 0.9091572473393439 1.0851142917263699
Ni 7.191502272397176 6.8493063006287205 11.003940063664267 0.49990447274482286 -0.15723889915223244 -0.5258384190017653
Ni 6.383221715587565 3.5355575607716156 9.151678518149803 1.4031944626701123 -0.6747464296907992 -0.7551954762764865
Ni 2.295510465704163 7.261011409643813 3.8028593875735504 -1.0994193954951323 -1.1444052161772031 0.7952699756998691
Ni 1.9507789521841943 0.2180900263456233 4.82629877301165 0.046073911539927105 -1.5151667766750616 -3.5462544561278606
Ni 2.0050748389217468 5.302365776640818 11.174497505482785 -0.7535381431787216 0.36247798033282735 -1.5516368465766375
Ni 7.28380342231127 2.578924592251617 7.1754986387267214 -0.9300849986309465 -0.1547536708365335 -1.8240328852197039
Ni 8.306862012101707 0.386358979198674 3.081262780490064 -0.5353535575810522 -0.5470142817484321 1.0120540814055858
Ni 1.751827157828205 3.9601168448200252 13.055075386865441 -0.2107985775462434 0.6999740939093364 0.08043850506272598
Ni 6.935505432481479 1.0835307961791127 5.118953231019109 -0.5807276148404773 -0.19559872987735347 -0.277653944607896
Ni 7.964331683179205 9.025989948864487 6.899727359458831 -2.3443156645105625 -3.054607338295823 -0.6611620061381451
Ni 8.287785078923648 1.0588255175746155 8.557642880414287 0.03920520944455184 2.5580568696248975 2.19153968622569
Ni 5.851259483500658 7.890383025942737 12.775688406484495 2.7129164699116757 1.5328976182959213 -1.3705188268139623
Ni 6.775952056110556 8.393330487217446 9.106018333685356 -2.3045514972387475 -0.7329639185717958 -0.5839993436132135
Ni 9.180685858803022 0.8781509855365925 0.48071363930053346 -1.0056571767403066 -0.37858105654227703 0.25394374547514975
P 8.811304792870898 5.431696981365488 3.0733236556212207 -2.747645645862745 0.7296428246183627 0.836028902784786
P 4.462729948940688 7.445604421773279 8.959956268480182 -0.721439462871964 -0.9771899225385494 0.7453314389982131
P 7.003630702618316 4.729881315023302 7.384362265160424 -1.800957491457479 0.016976737063654632 -1.0999906946175702
P 3.055847921703092 6.041536567248902 12.842187400574849 0.9841398714938212 0.11009849402100394 0.9490391711359463
P 9.301351640618671 5.88796446885591 12.396878468808278 -0.5817771391509142 -0.7702477426239187 0.24977573014038917
P 5.23816920306402 3.2736630321664997 1.7154983242712538 -0.4353972942003727 -1.394254222757689 1.736456483560616
P 3.952640247347612 9.188236757865225 11.25391104464816 0.9337375077818693 -1.0252962911274728 2.2714878819155593
P 2.3389304572365033 1.1193906009505274 6.470513080810205 0.8953378249577484 2.051711269240421 3.946308080721617
Ni 0.2873010284632367 7.558022727122464 11.007012434401998 -0.4864699445064719 0.4443264783692025 1.4133544339222497
Ni 6.859875701776058 1.6532196604808571 1.6937483914005729 1.1301939576738276 1.5582654076367486 0.23097068161874415
Ni 2.6527989478982974 4.446142119020526 3.4129571513118626 0.1391324193595088 -0.7845214789341134 2.1196493278432915
Ni 6.738058245318696 5.666034907857994 12.991158373020221 -1.545477511843461 -0.21471976697752052 -0.15835681480675953
Ni 8.179063277666414 2.5469377578478998 10.440884473790844 -1.134958983162639 -0.0828226890241864 1.0228658273091094
Ni 4.369221398192539 8.04549688232383 0.6157688527484931 -4.335309818376586 0.03130318098865577 0.28870094645067695
Ni 4.788867489616219 6.944263732377735 11.160741494903418 -1.040052623501041 0.6697505191381046 -1.5527976996539579
Ni 7.851421129797675 6.12829296102507 8.591884768068068 0.2782409274596176 0.5902370969928092 3.2402921514935743
Ni 8.59110274383555 3.0650241680419055 2.894324624432916 0.9179059400662515 0.5539832568670975 -0.3791181599926697
Ni 7.9949160750756745 6.612330667698743 6.5117959728662695 0.03377683934012893 1.1571702291523556 0.19413577217858177
Ni 2.273275714960116 8.168466013422904 12.433662399602682 0.7020456317263845 -0.037098190403878045 -0.06033556366526383
Ni 3.65748646961366 0.37089681836379934 9.237507999593365 1.8690768128332198 1.5849256905367541 -1.358705379118802
Ni 7.457028291203177 5.7069936592286075 4.694646572375978 -0.8912142897076781 -1.6785115316147154 -2.1435294768949986
Ni 3.54229114234615 1.3326175882445286 2.818826779049369 1.1521038703730417 -0.527887074000678 1.041805858746722
Ni 2.259269865285085 0.6122516012419056 0.33926477405131966 0.5273440570130145 -0.2087946597423372 0.23263547091567677
Ni 4.482438445631945 9.235065334829086 5.0293585165130406 -0.325635100472865 0.18529631951008088 -2.221015327087304
Ni 4.412734266712113 4.727745144316898 11.296213726024064 -0.415181224263814 -1.9921773755408465 2.343741022954015
Ni 0.8451415755034184 1.9860536319360287 11.587087732186227 0.8359219448932765 -0.6274178198081646 0.8754536844393116
Ni 2.5314737394732805 7.996318517582923 10.24602205318281 -0.7222210782329949 -2.001462400387198 -1.4200840393365997
Ni 4.693640714604223 8.529190944144732 7.0869227847706195 -0.6755306161549913 2.3010008037730114 0.907305795952902
Ni 8.979783647715099 8.288333053148333 8.875349976958503 2.7525847350355757 -1.709959465711352 -0.16035636173529158
Ni 1.1258269761659097 1.4276771846795013 2.7486164205491073 0.10415667461527221 -0.3403947752805428 -1.0863592198770646
Ni 2.3931056038906497 3.388254659016983 7.521697608645002 -0.4269967288415033 -0.40671072489895765 -1.1948865127562065
Ni 6.873797962162578 4.611871815042573 1.9040126028017792 -0.4104275116289125 0.5012062222753819 0.3520894380096517
P 3.6136485316387628 2.2345552989818644 12.8750565663573 -0.1936734878301826 -0.3773417848185372 -1.1033441844708354
P 5.621110309132448 6.7126099508163195 1.4947399420823702 -0.2564312877836938 -2.7849518385123715 -2.887115908177647
P 6.412357226483168 3.6379265761019792 11.209596647728747 0.05756417156771376 0.7311078391996635 1.1219821112869968
P 4.136833888431967 3.1243446997888684 4.209045746007142 0.7977809150471808 -0.8303290241865313 0.7290080192478413
P 0.43752584023628105 2.8614656751190624 0.9285915485340221 0.9443196541730898 0.6565926415999079 0.4946169990936385
P 0.9297729438116508 6.361822857728632 9.46165081919709 -0.9451984572336174 0.007515334540438671 -1.692289045014782
P 4.260796803294457 6.942824139075594 4.866699333688981 0.3770941875841054 0.02532613746961445 1.6074578102009993
P 2.4362469644612847 8.679382320202372 2.232798066383379 -0.4618873700711013 2.0488424323330583 0.30399515360558615
