# total energy = -340860.6110862431 ev
CRYSTAL
PRIMVEC
9.36015600202850 0.00000000000000 0.00000000000000

0.00000000000000 9.36015600202850 0.00000000000000

0.00000000000000 0.00000000000000 13.69953444803598

PRIMCOORD
 96 1
Ni 9.02308721364953 4.508946163594825 9.36861830041566 0.8672840041443257 0.7631561258844599 0.8510202339872955
Ni 2.650552753857142 3.815133976293353 3.199676589071739 1.5044442480512348 -0.10455133895052962 -1.3995872049348284
Ni 2.21465965917199 6.5915995457511025 10.576862777551076 0.8274357617991364 -1.0148545269688587 0.3330928423024908
Ni 0.6204912790020186 2.9380499387495473 2.41640564888436 -0.9310751304583578 -0.0116255000540703 0.49571460303319137
Ni 4.93911084294043 8.603845836103353 2.5634153196055594 -1.5496581255837116 -1.3374382422099096 0.2822559621562816
Ni 4.337992278363671 6.8379494858189265 5.040702229753005 0.05956397560656193 0.6177656414303813 0.08495156244173112
Ni 0.7098124375979086 4.876145074984344 3.818649650805663 -1.0627207545225181 2.096352819209196 -0.14652459805852183
Ni 7.363812397895769 6.665001887405872 5.158408996778154 0.008314947623598582 2.20206809656084 3.1019706580711355
Ni 6.327858436237402 5.881453886607298 1.813626592671594 -0.45081902807208163 -1.4432951873457402 0.4540131095293471
Ni 8.305500230657788 1.9745155023886733 6.783242183310684 -0.23977079640887738 -0.32510673877322077 -0.41519587955183335
Ni 4.7983621804228624 8.376646774768716 6.68719481676872 0.941242815019979 0.061739385991325925 0.3430430115366673
Ni 5.671945519703613 0.9597810138916619 3.749110245442773 0.41614641639056066 0.6630993323701742 0.8875622947773875
Ni 6.946761296802948 4.720139358539553 4.454636667707384 -0.9450125664750564 -0.33465607302455264 -1.3706777209893297
Ni 5.657427918083292 8.884940674439797 9.83877237331542 1.6632319797478259 -0.6273327162935259 -2.4876209843008388
Ni 8.661775840247879 5.261296765166753 0.8481283956273264 -1.2106183216691666 0.6611977444720871 0.21567955978762854
Ni 6.727059720250952 6.6756350243760085 7.6835759118053035 -0.034830991636256144 0.6452358218261919 0.5009686523432793
Ni 7.386239331153208 4.2969292749411405 7.8888357039988275 -1.2874894210956085 -0.4185372852202405 -1.6362919608238724
Ni 5.5921408314928795 5.1381919963012175 6.196395048257136 -1.1804415409754703 -0.6359579960686919 1.0901950486833871
Ni 4.4661047305734165 6.466725707442471 12.034054637984259 1.180677054025044 0.751147531459358 -1.219286538867126
Ni 1.3656748092904665 3.28730543150196 5.3991100828305925 -0.5842011752113745 -0.7538798427888564 -1.2660929576977034
Ni 7.298188345697148 1.007031080287132 12.925565483637284 1.1514677794509396 0.5387327584659302 0.33165019631869336
Ni 0.08979384646296035 8.95903566762255 7.12279868264016 0.07362302480278933 0.024078123995126273 0.22181318348919218
Ni 5.013917207962735 2.7227101947926964 1.9640339999422298 -1.9371107735840059 0.7678738430751033 -0.15076177606832103
Ni 3.3908193943124796 6.113127102406483 7.228984033911311 0.125100623856791 0.4071560399664923 0.18818881056652753
P 8.569597026091264 7.487441335485186 8.658393079947697 -0.8808799976612054 1.9148792158793149 -2.7195967101453293
P 3.8887235210637945 1.2649408127476676 9.872829300133946 0.3430260422558028 1.9573726091568353 2.9627366801367554
P 4.637638945463152 6.893483290082857 9.432128829438351 0.5683660079513309 -0.8402550250509917 -0.36415768202809545
P 9.114507855187675 1.0141167182152957 11.677797748705736 0.8149096043076675 -0.14934201290265894 1.7139595880096805
P 2.9217258270629984 7.941933059712294 12.576569267200076 -0.571313520615429 0.3700480793706014 0.49772700547752996
P 0.697614282580758 6.993749278836479 3.06062679482889 -0.8792278067697632 -0.2961013526798062 0.7420555964604187
P 6.903657779419601 8.755461639485649 5.446647506008619 -0.8434719893263926 0.9661717170511748 0.6615782677399573
P 1.9843530261172073 5.1627904857004445 8.625459371823199 -0.6087834925364289 1.6729507496974865 -2.338975740354888
Ni 3.2367137894917546 2.187814732384706 5.821561993810536 2.214900215328502 -0.3183707056009678 1.8142544656767012
Ni 1.4864582595216762 4.802246645073044 0.8264212583496453 0.9397124944183816 -3.2401044609628005 2.6801305337299066
Ni 4.664072025395959 3.026690614019972 10.838221727417858 -1.259285704967883 0.3247786660098406 0.7260731049892335
Ni 0.005140597556337596 3.0423407944901038 0.10760996698141077 0.08160038658131108 -1.1080176786871045 -1.0705669900398143
Ni 5.342168511136813 0.7202228028603971 11.6553577112302 -0.8207359811814574 0.7755038488165353 0.5287843890039666
Ni 5.978247257565213 1.3905447432074165 6.317279588170808 -0.7063401453366802 0.41532263493768473 -0.5906340753209118
Ni 0.26030218827881646 3.0779561872465946 11.132666019932831 -0.7088636830894823 -2.6524623783906773 1.14977753623271
Ni 1.1932139389781573 8.638703056241374 11.412219240611721 -0.3163567604947326 -0.32081196805260875 -2.0500400521855857
Ni 7.801137596415808 6.9450109476714195 3.03898143457938 1.9386452079506613 -0.33640185207106577 -0.5079957343933896
Ni 9.091846918035648 6.6524031177211835 10.383274163604089 0.32672704798546315 -0.1617720111358956 0.9817456602300318
Ni 2.6479319102377414 1.3567545808287227 12.110155512551433 0.7111841036925429 0.8428022169528776 -0.011412612712315829
Ni 6.9827230153234305 3.7090272503307844 13.442106616569268 -0.14218791835638092 -0.6793890706691332 1.2814954082957026
Ni 5.762299103482429 8.692533312152696 13.563154959209152 0.19492870039352234 0.30828323945797875 1.275077677694817
Ni 2.5520558345466164 1.6163865819534355 1.4466710453324478 0.020961432743015512 0.14953535986038763 -1.161296078395271
Ni 8.653164496926992 8.024227549361457 13.384664276541066 -3.5412017241953015 1.136723017041597 1.294793925176822
Ni 2.6138796634971078 2.918094086618973 8.134591274174396 0.08883752775969862 -0.3402186547139947 -0.012980728530384096
Ni 1.3660024147428915 9.033374024855675 2.8329269651598317 0.6532772040734298 0.16095414322029056 0.10304158717422253
Ni 1.9976818879530134 4.086868658846225 10.29641940605717 2.088560319747971 -0.8937337136954221 0.22675921464055787
Ni 8.248253517885463 0.32749968266465623 9.917818888907682 -0.34184256347066283 -0.3881530165014283 -0.8828286367471441
Ni 6.18434852776368 5.028247606467384 9.994207120257412 1.2348558540602927 1.1284304380155017 -0.16143339684955424
Ni 4.557927858810255 6.935220224721804 0.7910819901887702 -0.7487749174621233 -1.7249273998750938 -0.17865670270637618
Ni 2.1724359964322977 8.813232520981853 6.120019921125505 0.27280895781076886 2.3478887265738013 2.6174092434412857
Ni 6.949962470080929 2.602862760139844 11.024645142112522 1.747705574111874 0.29661994418743753 1.1561369027918347
Ni 0.43141613217386965 3.6427011864483947 7.377349991205549 -0.08914168926367874 -0.03874061110330747 1.0888174516095699
P 8.237732702784728 2.4585291579571673 9.01678689279161 -0.08859635828317 -0.13223620646030776 -0.11979669514537432
P 3.160306837830458 8.514325306189273 4.41678419771862 1.5782135686239014 0.9122893652104224 -2.9809889414787243
P 5.8489086249478195 4.7708620427307284 12.021272409246214 0.8236865791693492 0.05699158689369539 -0.1604934015337881
P 1.9008323560603968 0.7352552130488132 8.021022632021163 -0.07942266220370192 -1.4012118850224449 -1.9521794949916702
P 4.451577768797313 1.2129077067467924 -0.08251351729449824 -0.6240468464534027 0.6052821642513898 1.148107347619139
P 9.231275798587733 6.4319808091738535 12.445341755145558 1.3660232529364538 -1.841300928271532 0.7058351806758038
P 7.549499168330265 4.136795729795796 2.502425480535384 0.925796912778554 -0.7299457005707622 -1.7861080851494724
P 0.34207625326641256 1.2801510658959716 5.125461248419982 -0.3904433551975018 -0.521477056709276 -0.10193626992518573
Ni 8.312885393571026 4.642478146003259 11.74440555327721 -1.782304395132666 1.8558433448620812 0.3534580362224042
Ni 1.4070279775422865 1.439620039980683 9.860252994823139 0.008581313911107802 -0.11730581040272055 1.3189147294844255
Ni 7.158338258134803 2.120065924823214 1.6266275283962413 1.4617629071326246 0.04233218510930774 -0.37948068553841097
Ni 3.0570830398492292 8.603396548625742 1.123771879235417 -0.20195526822300058 0.7456525697830577 -1.2382412255927577
Ni 4.099064941832218 0.8775005644761745 7.923687308043378 0.38805171503687363 0.005076643191958999 -2.1539249611967097
Ni 7.227678292179502 9.331298423290981 7.730783857499747 -1.102526059444914 -0.9073574751264437 0.10635856736259747
Ni 1.8231243427451842 6.786225264958909 5.288034050162526 -1.0862993131734064 -1.272188786182796 -1.0555311787526143
Ni 4.470597605349531 3.703046110785082 13.157347277243558 -1.7871501532607417 -0.7700212284354093 1.5379259247484482
Ni 9.106008833736194 8.514194264008303 4.668034179339145 0.3635994955317803 -1.074017153371944 0.7610596483667473
Ni 2.345233832352816 5.762701590181123 12.886247213252812 0.7747803403869495 2.1288322798941404 -1.5639393180930743
Ni 4.6941555660843575 5.3028932974689456 3.5089576645192517 0.7485954544614656 -2.537809175119455 -0.4115945353538201
Ni 6.923838275288981 7.973879271401625 11.552844349072943 0.5422834519316662 0.37604440616335233 -0.3723736421799845
Ni 1.1004173545398273 7.014622426233843 0.9345207614785369 0.3366000841248009 1.2566279556300617 0.101043068686955
Ni 3.4049064287667545 8.637579837547346 9.875295701182916 -1.9124387247586223 -0.9133316904320076 0.7168022212102688
Ni 7.382991357096309 2.512818061501884 4.223388402980774 1.4739018564880038 -0.490307058864375 0.4011211466263221
Ni 4.353988784597794 4.402062544702218 8.915588632521944 -1.2356690939902073 1.2595885809202823 -0.6757969824425006
Ni 2.9598123009463517 6.6791918835737665 2.8323784600309145 -1.2088463173704083 0.8100589610835855 -0.25076663329874876
Ni 1.6958449444001757 7.605407378825539 8.58612799722063 -1.335221951284881 -0.05181055691338819 -1.2715519239297455
Ni 1.0082947013179142 9.268117371751872 13.517015007289613 1.5699682978959737 2.4575694163310966 1.5709430031044171
Ni 5.987186206338525 2.3327473845375306 9.005854230836396 -0.38775192440826767 -0.6701855497929943 -2.2822458917630115
Ni 2.996017383517207 1.5434241676204938 3.745521561715352 0.10148915508543811 -1.7010917309080769 -0.685754864986161
Ni 6.669719405920792 6.412773769505964 13.320275764905876 0.400870978288729 -0.47418109983678985 -0.7626169655515381
Ni 8.240662431544987 0.6214291666115326 3.1224936804959853 0.4741723580860414 0.25427027557663306 -0.031343804418604085
Ni 0.12904097966347663 5.954332059538188 7.027888575025899 0.016670261566829353 1.5363542093859541 0.7249659879679836
P 1.9803094388187044 3.7848819528008497 12.363842878737998 -0.1847756711199205 -1.8927132213052371 1.616570314025229
P 6.956327376013758 8.601056509679848 2.0951519981740807 -0.49577245285432037 0.720170109241237 -1.4538050857381284
P 2.8492501408308026 4.872719257967556 5.051168755950194 0.5015903450876781 0.7785333796714785 0.5811564748477798
P 4.804427561370617 3.234888559113958 7.213996552470657 0.3646279367962946 -0.7993413175557653 -0.631971243506802
P 8.677772346482001 4.5521713630033585 5.580930172910896 0.8254421284078753 -0.49035436716254255 0.9001869255199335
P 3.685617500716071 5.0039299217416655 1.4974686107698916 0.3885425386303631 -0.6440538857029489 -0.4834103317445417
P 0.2662646075129516 1.0463811752012675 1.4782484668839055 -0.0856645293483557 0.3986451742820038 -0.5181045406926174
P 5.282797043001618 3.2134538023695787 4.181850839660018 -0.6337486471221989 -1.2397517487000131 0.03764840648039323
