# total energy = -340867.8951697509 ev
CRYSTAL
PRIMVEC
9.29259992408658 0.00000000000000 0.00000000000000
0.00000000000000 9.29259992408658 0.00000000000000
0.00000000000000 0.00000000000000 13.60065929929442
PRIMCOORD
 96 1
Ni 4.910888180140225 4.584104609848439 6.642616221767593 -0.9975905976820882 -0.04285951836768748 -1.4585258882525656
Ni 3.261721172142341 1.7435147754201819 9.111816147562637 -1.3988084177872748 0.7144694593120341 0.1946764751734002
Ni 5.214393787525201 7.279571910657666 5.146666531216333 -1.2166868964607498 -1.8710231379263131 -1.6983601909095265
Ni 1.046328170611231 1.4889997550390823 8.037023814005357 -0.37506404452795405 -0.5945866322107566 -0.31143644037497975
Ni 2.1805178738707256 1.7995863235957104 4.104774647827342 1.6196211850364108 -1.7597995291619304 -1.6795785394266491
Ni 8.592253874002601 -0.2421679428105283 10.981090466059365 -0.193138441262319 0.734298064002187 -0.26667481988857294
Ni 4.7037654195694 4.519613966106615 0.40533205925733284 -0.1759740136678905 2.3554701384654853 -0.2299455827883395
Ni 5.244037181406529 0.7622887016283272 9.454375764811267 -0.7448771250696139 0.84879777241468 -0.13231076845198503
Ni 8.092209777404431 2.7869994104427964 11.895925559417002 0.3633868653003419 0.7635451337927625 -0.2880188327819878
Ni 8.085491227631326 2.5224669673017996 7.7525801169240705 1.3446879817937873 0.5219743080606689 -0.6077666212361404
Ni 6.9171140491086955 5.377218724073362 6.242526118149275 2.3816514248465435 1.0089178497694495 0.3354587714315061
Ni 7.313954530520022 1.7308954246707007 4.059470435228709 -1.407354507585073 -0.055028549630053616 0.6362881257146009
Ni 2.3416143868258077 4.493074300612862 0.6716756301310788 -0.3191842026411987 2.594284227388048 -3.3760487124023144
Ni 3.583180082655444 3.975439312285111 8.457270496202982 -0.4934193792411115 0.582060731829604 0.42011491412000546
Ni 4.402499328775461 2.2859331278487165 7.036831543689429 -0.9326573873438131 -0.2896445413108689 0.23820088081859622
Ni 1.7231453963017267 1.360975605351602 1.6538811439590124 -0.5284275198851802 -1.4680209722271942 0.0013017495305590486
Ni 1.4287837072801457 6.710595307535452 4.372394092675981 -0.15578134077009945 -1.1231871873386914 1.2866805520410678
Ni 6.122141414891212 7.513169288522505 1.2012683360909586 -2.0038085320218713 0.9234045012869774 -0.5015366090316071
Ni 5.861892860333065 8.72169979148439 3.3589273433131956 0.35453789955014425 1.1822091743988543 0.2900412625286553
Ni 7.133752432041425 9.218091896297183 8.8498670472113 2.6460240789645013 -0.3321212224178409 -0.8476006667827855
Ni 5.034191689046604 0.39008290271837986 5.689659166322569 0.6443603611997741 0.6630173141793291 -1.4182287312954156
Ni 1.6157879889315108 7.781112115849849 11.26039349684123 -0.1120173083102716 0.4563988361527043 0.09201335438451895
Ni 1.7135740183400436 7.543268019802011 6.8232875965443105 0.28929075751587596 -0.3976987512083344 -0.29203798124371
Ni 4.851285443978834 7.971982119085738 12.490246799677756 0.20149401231586586 0.35485003147392435 0.06086238270301131
P 6.36636023451353 1.537135422846381 7.141556357490185 -0.6460830003178357 -1.6995069029194603 0.38725801549098465
P 1.5512601747898351 3.8979297359954055 2.3243663920348565 -1.6255015550765877 -1.559601867059985 2.8032436948430233
P 8.858263840537683 7.393843012400204 12.326481452013358 0.21707746857641966 0.02741053080246892 0.2898232329805783
P 2.6802367294701996 4.090388773824933 10.408121761993133 1.1250826045891915 0.27375023867811565 0.569522233042961
P 8.356658587145763 1.8246112952955278 9.836894491159928 0.6304152118735917 -0.02043178549179062 -0.15642720188421444
P 3.6982596405947454 5.592602606011115 4.676328088919241 0.15031671811110242 0.2758809118678732 -0.5340296965633061
P 3.7814748732616095 8.148337081179735 6.512430613328766 0.9035866952301018 -0.8662763888154178 -0.6357559073602147
P 9.400672900366256 4.690932339020775 13.26205762848796 0.39592700401989234 -0.3904508113966695 0.6421929212348101
Ni 0.8343983480796504 9.011926273522526 4.5888893695692845 0.19397353556910463 0.5802776717872522 2.114227899717404
Ni 6.828471938063556 6.4150441657186335 12.970350835275752 -0.02309621969783119 -1.1237448596143742 -1.7987566271514182
Ni 4.297344267596428 6.544666642599715 7.943886872358212 0.26663625334115365 -1.0041623373623352 -0.07725933600379598
Ni 3.395878437805269 2.6282910956781538 1.3092195405987972 1.9991018705748216 0.4540617033790954 1.5540002046024914
Ni 8.670757758488326 7.72793056626275 3.3008123524058472 0.010439707276085246 0.8561058760403192 0.07359808510212486
Ni 1.3177928933244754 6.620354869296712 13.449447553037784 0.3009537956761011 -0.23106581243571173 -0.042296960995998126
Ni -0.08717480951101281 1.129088065879918 2.9655149020281444 1.092498500005583 -0.6207689470330793 0.9872192817500934
Ni 3.503449574974629 9.706585291141597 11.087243552474401 -0.4122877047661029 -0.6032481645404966 0.5484687548067715
Ni 0.4488362952431722 4.483066170452926 6.844518399679317 -2.271007599845031 -0.3190672174473602 -0.9594210285909026
Ni 1.0979764412044672 1.524924946495263 10.675592525242367 0.3382314490806368 0.11357822503948825 -0.44124346856850455
Ni 0.14687140093202924 5.664787522522138 1.8749734700539127 0.34756892443147885 -0.8003720728131248 0.02049374907797761
Ni 7.742194707205647 9.420001508288879 5.87785104224918 -0.6413583411486568 1.544004012621728 -0.10060238160511062
Ni 7.140628956013897 4.736001448840351 1.5807771893116696 -0.7500689536831986 -0.39627281739508524 -0.48714794441010295
Ni 0.5513912869526135 2.06834689971978 5.520684387119026 -1.4001654460358015 0.6460968842749066 1.485038075610481
Ni 5.1689065107073 0.48705025407019015 1.0742849575993116 -0.36110064036932643 -2.0564341286373873 0.885801603332539
Ni 3.4484559683947853 8.522828859680532 8.549033991575625 -0.8280926786568449 1.5684382344046925 2.134528816058285
Ni 2.1310254864688587 4.055021138366521 4.373727580770643 -0.7539664889653919 1.5351131378900014 0.7292769566385118
Ni 1.1534346777824511 3.6452918208067913 9.022282876181066 -0.5730775544943872 -0.9437259864531489 -0.0072181150149940206
Ni 2.985405712248516 8.973445617076576 13.944348195556545 -0.7775540464773448 -1.3131372035706999 -0.1417909400282784
Ni 2.5174489633218884 5.361727959935377 6.530084694738091 1.6961091900918208 0.869934040172663 -0.5131777928149612
Ni 5.657576464951005 2.610207696150547 11.38992676476267 0.042674398940074895 -0.7545722408701908 -0.09751962891472882
Ni 4.374305580488328 2.9604457887484377 4.71963253400588 -0.8097614844478248 -1.1158510586885944 -1.0219083484918465
Ni 0.8216730616905935 5.089780022024067 11.11183363049596 -0.10887284914401893 0.4864573461009817 0.5556051087412366
Ni 2.1565057955668534 5.99623597799525 8.912987961718606 1.0946798239276179 1.01722071320819 1.0466739854723004
P 1.9888022440382214 1.1862933112509082 12.638467486124382 -3.2453870495179786 -0.5697747153733994 -0.39808184557936604
P 3.9782363848739135 1.4908303972317538 13.167124427268007 4.034787968031581 -1.6592686242247037 0.772945858281372
P 6.313373829525649 9.312021496721155 11.13843648566946 -0.28276349792031946 -0.3046659544203656 0.0390753687349069
P 7.887363703824491 2.1762339852878756 1.6118953188070944 -0.6764497855351511 0.20287160938968288 -1.4919988231990304
P 2.2957275282095067 3.2595745815509347 6.615646308895562 -0.1988511753763801 -2.2207564169989626 0.3573301175833007
P 9.331164252644522 8.837206809021982 7.157550780546154 -0.04415818257445298 1.4979139031318847 0.3703959496283234
P 5.040965994419485 4.023593565292335 2.498808007796514 0.30227611403195037 -0.5657175145848902 0.45913988923295124
P 3.5770376740800334 7.270084166095649 10.475785828622254 -0.13158931690492823 1.2415931727841263 -1.1003779027536598
Ni 8.439706553013295 5.534858389842284 4.352687275934873 0.3523977132786899 -0.5652922541220136 -0.38999546902680576
Ni 7.886796855226761 6.826529784671332 8.130950626649339 0.48616218345806594 0.2672211793103462 -0.3118892116416822
Ni 7.149484803778445 0.9197908369177984 12.85058316065522 -0.12015279293321242 -0.4985168483686768 1.3586907238307826
Ni 6.125737651076815 4.9721542916949595 10.76178046063733 -0.574922578122926 0.36340871967721283 -0.40977008055057174
Ni 8.693394531997706 3.433959512452819 3.109355986112305 1.472452782746303 1.2652748326717822 -0.0031316036504462196
Ni 3.8196488739087875 5.75968355334224 11.866983756832866 -0.4776191789840613 -1.2315905530454594 0.9124104641693189
Ni 5.974881583280737 3.3048481285696907 8.751493725485117 -0.4887399714875712 -0.01782468688624672 0.0013698837643331245
Ni 6.225252104078429 4.164218480529371 4.410884041721894 0.8414619008748991 0.7385681521324506 -1.1649298184931163
Ni 8.049157161776783 4.033025554254576 9.877261545398328 0.806658934263101 0.29335978537892704 -0.9821320970351731
Ni 0.3891415623421483 2.4586918537571107 -0.009407828202337612 0.08310525326161171 0.5591725143775208 0.3991825348427125
Ni 5.783277464647787 7.341284067010614 10.205785619663144 -0.2895761499667787 0.22462519901669054 -0.814372500857275
Ni 8.689287202814148 7.319530090497701 5.843496300186713 -0.2620810298703035 -1.2622247329915488 -0.36475314952024923
Ni 3.1063024377645294 8.505999961147904 3.746886886940076 0.6613031597016998 -0.5758975404416857 1.1388094672569806
Ni 3.4428989936170318 3.182390246259927 12.209584261521332 -1.2196511212953962 1.4638966656461756 -0.6485407178297089
Ni 4.949498932985655 6.55769486774756 2.894615152091978 -2.3393889166329065 -2.0324524210108095 0.47710830078591376
Ni 8.273499110078674 7.517954977503347 0.8552955468759925 2.0002292993110453 -2.2082040342552487 -0.7829232812090582
Ni 2.458673268557185 6.6460024451940365 2.345338860890897 0.34566373698896596 -0.7775427336234351 -1.992993700794555
Ni 7.629921514455111 0.05707793675149971 1.725338449892947 -1.8183360919452425 1.2894907677963532 0.041160019178077496
Ni 5.771875444493432 2.5432173430187297 0.896891082829473 2.363625163472452 1.7168765045461594 -0.4870409865185934
Ni 0.9947914112175483 8.436621409825646 8.965650054967783 -0.2435886274930708 -0.11369238201984937 1.1385608415812842
Ni 6.252330740370025 7.8475449129838974 6.882504689807247 0.3736247409782662 0.6887807962966783 2.2922107162852075
Ni 8.112439767523444 6.569310617701058 10.422783626214438 0.4630250832199703 -0.05126394038129881 0.9078891792601977
Ni 2.5712345319065686 0.52345773146444 6.391874926231386 -0.4723970113531735 1.6489513014590955 -0.3143093910474006
Ni 9.590613643605867 -0.056808451352578546 13.613307685221802 0.560776368529531 0.20582786380452936 -0.4441824965921706
P 8.154572415754775 3.4867043098416657 5.277749804811567 -0.41398309019065477 0.31821618230097454 0.7939939372009229
P 0.17665975937277742 5.557532333751514 8.786679225984258 -1.8129997673339937 0.0354097469578616 0.5314755626828848
P 1.3003135127944507 8.477322997662705 2.53887584031611 -0.2513973249042122 0.8108158938542682 -1.0933510778138653
P 4.183398406852588 0.9529468335850649 3.4085702708344594 1.178941045170544 1.4610041745897289 -0.22278660314605506
P 7.047795882385536 6.483846575843196 2.9193817895128293 0.37479485002696744 -0.28570766815030796 0.07748559308198913
P 6.442011290810675 4.241105452621569 12.746524626271796 0.4061319695773522 -0.6413431716400052 -0.020877357669641463
P 3.862961682335393 6.8442228950005 0.5931066974456141 0.22640645928682945 -0.6241476336973251 -0.25435897863569745
P 6.132093789451369 5.497223359992948 8.269853623113269 0.41666475078787596 -0.28676182044643517 1.3635765911681743
