# total energy = -340854.21060983976 ev
CRYSTAL
PRIMVEC
9.43749311529478 0.00000000000000 0.00000000000000

0.00000000000000 9.43749311529478 0.00000000000000

0.00000000000000 0.00000000000000 13.81272513065377

PRIMCOORD
 96 1
Ni 1.96093171555109 2.0396498439623096 6.222190985640021 -0.03137260077401049 1.3875364444178813 -0.4346982112508191
Ni 1.2980327756479029 1.7308173257835837 11.164687188116954 -0.14246354061527078 -0.8617219366755159 5.869025304588112
Ni 6.431623109682412 1.283055474390427 2.529551988723381 0.86208960442758 -0.7758051821070381 -1.1013587786096903
Ni 1.4109335034003812 4.569549132424994 1.0219955453518035 0.9312160269115963 0.782509076489775 -0.5937561658896613
Ni 5.137063331427546 4.917773746034536 4.118830514501298 -0.6859641527834895 0.4191234967410137 0.08891260397200818
Ni 1.768463485024964 2.961239902182238 9.721948389840819 -0.05566052678709768 3.285905321346999 -3.4131240199880573
Ni 7.9424147256255475 6.74206943914975 2.751770971917476 0.6420738791584426 0.5298056311796294 0.8550926042844563
Ni 7.469907767806996 8.19327272482212 6.254346411502952 1.4625200970136232 0.15017762143007685 0.4174682205257778
Ni 1.239822319342855 9.302470704716507 12.730759862564053 -0.4038388026678013 1.0497821920839792 -1.5748868182435136
Ni 2.8247454421401006 8.608862162865098 0.528951659199041 -0.14732626802421078 -0.0378576942777219 0.7702757676483766
Ni 1.562867701852872 6.434350545135096 6.416010665151698 1.1421917534656525 0.22877084575394793 -0.871377457487409
Ni 4.484262508944334 7.065624446277224 10.767157336517773 -0.08947541845401365 -0.4460362619714576 0.4444655750502281
Ni 6.003189243780944 6.1305293356946935 1.8542200956528352 0.8270110155568917 -0.9886092201190845 -0.8655647074603737
Ni 8.892968449604261 5.981501885060289 7.234193169743216 -2.014334114143544 0.7676421866802715 -0.518875614530687
Ni 8.216224707593502 3.722543580719137 6.52731362535352 -3.994023641630025 1.8013264447611235 -1.9941491545552366
Ni 6.312739011421276 4.909062940073194 10.806551319447172 1.678774555468115 1.1891418969629457 -0.29878121350481446
Ni 0.7684157731982935 7.2146518969116284 10.54426074133232 0.0755346400032054 1.4696561938377721 -0.07304221259865486
Ni 8.940108726719 3.929319050505712 10.976060960956875 1.6768799095485636 1.3082045421557726 -1.0610575078874822
Ni 2.6086551668455678 3.9282714887920513 2.788263869524538 0.6430745525088151 2.2884666758617427 0.4462085258832637
Ni 7.82455931409224 2.6604103779961648 0.1102469047445374 -0.7087209868640311 -0.2002593685778164 -0.2109970667102947
Ni 6.890323015365054 5.198878910026454 13.334569715571725 0.9444816336722508 0.44208087686813546 1.1690127303132383
Ni 8.406937564437277 5.524170415850446 5.021008593542587 0.21507303655188123 0.1311763977372257 -1.3513139717507372
Ni 1.747682125624232 3.5756678784695493 12.688217531997921 -2.3047494721821664 0.9581367625618402 0.5359618805890124
Ni 1.636442396624946 0.14856029473506951 7.499812351609493 -0.8120677639834982 -1.4723663936800835 0.6455646659205204
P 2.4916868796463523 7.486196880579776 11.672871644154636 0.17264520640497363 -0.9784788165533019 0.872337250297517
P 3.6259697157111033 8.193942786819148 7.717307869599198 0.10856791630909043 0.45092778573580405 -0.9213339919111939
P 3.1548500693511836 0.8338827178063489 5.0228319171739315 1.393468236521284 4.1552660055146955 -0.07949619575411469
P 8.68043610913901 0.45092246777067935 8.208363275994587 -1.1248427206642433 0.033848573118328805 -1.8017763878143485
P 5.917147620867014 8.809342824876792 3.3649730178750152 1.041136086373207 -0.42740836245762515 0.8499545117269426
P 7.45312790540259 2.769385108695644 11.696270020340936 -0.014104043501549904 -1.4001749591174983 -0.7515509375453637
P 5.428955549822297 8.978273948070754 12.833817285205283 0.6994704148000406 0.1478057787637906 -0.7350087169159665
P 4.878730837841607 5.8687899071661285 -0.6354622604981879 0.7946487971761024 0.4057930981806947 -0.2950909091374208
Ni 3.3522352336864745 -0.01180535988845399 11.913005820150914 2.354277917929597 0.3554156741694072 0.8338416653254801
Ni 4.482922384950281 7.273315352876637 2.860407840370567 0.4991555103939404 -0.5428364962216586 1.9665270219625937
Ni 3.9267992398971763 3.150612635031961 5.097669348498148 -0.9571851972818483 -0.7422101197604121 1.9911350503192613
Ni 8.688910977777455 1.3693424721201695 6.224179465397393 0.07094882040473588 -1.693397704697929 -1.2859521585154756
Ni 2.8120142641966006 5.602293982207966 13.104297719672523 -0.2507764034907617 1.1837335814631809 0.09656780652442078
Ni 5.767034858547285 2.7031810958908595 9.484451993114524 -2.302117433875958 2.387127617469766 -2.0495996222140573
Ni 7.126477400598713 4.102213920724337 3.2962133319886155 0.2401744596051993 -0.4627088375311321 -0.10414201932725292
Ni 4.387245081769254 4.698380348219451 1.1488722563633844 -0.4166061296357986 -1.115136549120073 -0.13860611454239352
Ni 1.5814123754325442 2.089442056586407 3.353853763721545 0.22261871010962306 0.5753046440526931 0.5397326604853543
Ni 0.2542007591873738 2.840449430352098 7.549524345543805 2.880655240153968 -0.9569584259830228 4.736446391621875
Ni 0.923624781692589 0.43203143820099477 4.705056430708132 0.6110416924429863 -2.1816759060577327 2.2869147579935905
Ni 0.461478303597073 8.014800296290222 0.45052703681750467 -0.37197126453524326 -1.0630958784737496 0.691987219049118
Ni 0.874423356125025 2.16584799923324 0.8037884403962425 -0.7121030159623865 0.31235098176944914 -0.3398707844562728
Ni 3.879866587626586 1.222740457165142 7.7696850115329505 0.8296170857211711 -0.4543116146063724 -0.53153829760002
Ni 8.67231042773845 4.373409717154598 1.3860100283588765 -1.3807628731394737 0.6758682020000683 0.4921016888709525
Ni 5.765213422414523 3.3889848311008475 12.458870410404474 -2.6603870325543926 -0.04797935609275608 1.7708321328270082
Ni 0.35397676554176033 5.99331762619095 12.365095705795285 0.02857549764484756 -0.7146697482482983 1.3141139656616723
Ni 2.9050301943753536 8.372622840195197 5.049849571893466 -0.910011367809523 -4.498536816791453 0.7448120761596334
Ni 4.886799894284671 6.109304414126917 6.277026594478355 -0.42688437163335513 -0.46594199975644923 0.7329796023010796
Ni 3.366202723201953 3.8221751934319106 8.310080574641768 0.4665991737244738 -1.1415168388858148 -2.029356041473673
Ni 0.430607320519991 8.41427993392582 2.9835350354466748 -0.3436947861880532 0.1341550207495754 -1.103951221927215
Ni 6.355141667092251 9.137588265983451 8.085720224305064 0.1501269706977995 0.00737315253561956 1.827706220306233
Ni 8.651783880646446 1.3725417822186474 3.718441102548611 -1.5552731577776442 0.5498684633677756 -1.1827668466745374
Ni 1.092059492759176 6.232397634228526 3.696092175574554 -0.4364506751655516 0.8853717148839718 0.3682591057909787
P 0.1692416167108934 6.377017775671223 1.5788217836271397 1.053894671590456 -1.7653855078901404 0.44776172930299657
P 1.7917457800484 4.183376359800765 6.8572719714244075 0.40147595886257953 0.5720216024260472 1.5903046954604805
P 5.9664490838594855 3.637200332280981 5.92934652421006 -0.16236285064235909 0.08724575779254652 -0.41801149462375753
P 7.721954891110969 6.441579664708648 11.776550053829732 0.619284649178069 1.011546288531232 -0.7420067455003544
P 8.773282164445277 1.2011946608382247 12.510032946999955 1.3840001491298488 -0.1375974707722211 0.2976910657644292
P 3.3490359235879965 6.128377587309877 4.589264055126233 -0.9405635295647672 -0.10651411910385526 -0.4520027639675377
P 8.014970171162709 4.014605673986373 8.852561823684992 0.46098516997180605 1.2228873688445068 -0.35901958947058166
P 0.8383485394541356 7.207394464859329 8.445431210542504 0.34597741157464285 2.2278459768558925 -1.3324078788748537
Ni 7.0133312980304225 7.861610911279921 0.46585069406499263 -0.08124557434505363 -0.0009986164678434414 -0.6746546413079413
Ni 6.594684112282706 8.777170411526614 10.808760636538775 -0.9593644643213542 -0.3020935657074991 0.13994771617195254
Ni 2.276955603331704 5.109137789889505 10.7283437594027 0.19754556919107913 1.0844226649759838 0.8884506109196117
Ni 6.405745504107113 6.885736393807944 4.606433685988065 0.11623186061225142 0.9081524602239134 -1.09238048637048
Ni 5.178493925328188 1.439123294740066 11.108179255533926 -0.26472746635421507 -2.000631934066103 1.6860561767311932
Ni 0.7943179162551731 5.206428904359146 8.95792482584557 0.8623202323811472 -3.460150268138925 -0.30772402452039904
Ni 2.6408087052099156 6.616909408099565 2.052916127754139 -1.413474504439882 -0.9963155876244068 -1.7283598225954107
Ni 6.076141064020571 1.62009665889467 4.742019315462405 0.022531091222980554 -0.031521981867681195 1.1508633130977213
Ni 5.1778616133028255 1.6161517868558388 13.996157787708897 1.7405985307534475 1.2930103509138375 -1.9097190118346141
Ni 3.2717239816212405 2.2539847455744915 1.1067546129784676 -1.3707527972016393 0.35143174982099473 1.4357083761374176
Ni 8.336345117426617 6.3618517245554305 9.482186994814716 -3.086598803600755 -0.21967762520342815 0.860558255384718
Ni 3.074990004297144 6.215957521569093 8.653202335831702 0.46549848446112735 0.7542192284061462 -0.32012548350854547
Ni 4.934912233169744 9.19193878768591 1.1852254790752916 1.4502070839742252 -2.403910236244744 0.11084205705524783
Ni 8.557758138725697 0.3814729011521294 0.761238559835779 -0.26551628080409756 0.4523359789372403 0.5926408213382955
Ni 3.5826610607202043 3.3605024774807712 11.492297485950374 1.552525676939494 -1.1070835969086095 -0.8384115440843497
Ni 3.850289484828269 0.0016760987418574056 3.1233467742487386 -1.5625578643645153 2.2383538183657516 0.40254528066735834
Ni 8.428228548455467 8.625396650453693 12.194757452407568 -0.02532588035929832 -1.7746412221604533 0.1467829939262311
Ni 7.753400617506627 1.9858561343418861 9.557259419712539 2.108200976797034 -1.2413730863535202 0.3528301728304182
Ni 4.564122573998373 2.7873540952074483 3.033095085745042 1.2632392902989922 -0.7881205091392814 -1.2960481092988971
Ni 6.602215231629565 1.8166796363321123 7.170295680207068 -0.7823836066555042 0.7148139871356464 0.10887336336465123
Ni 1.3890762698072407 4.36546334811944 4.84136025339337 0.038975095711616746 -1.3197984176409594 -0.35784768064966754
Ni 5.225105702839639 8.640930763793204 6.006463110073457 -1.37984730330374 0.6209666648661821 -0.16388031572815
Ni 0.2623632468103044 0.4406856192048419 10.001503917495953 -1.2443355114159538 -3.3120920070446958 -1.0889519203049054
Ni 2.8748490920304213 8.938183478164165 9.737749584229851 -0.7179813291200344 -1.4173075050327268 -1.395043551428204
P 4.500957433912497 4.58851849318588 9.847906832791686 -0.855827682678268 1.587524304501866 0.5577121277819105
P 6.169893118646762 3.1463468882339907 1.542218467352962 -0.12569917667273836 1.3840579989509776 -1.175822297035904
P 8.876556649423575 3.3746681543474826 4.3932888522325735 0.41453176360527316 -0.14482175643480222 0.08368657968637845
P 1.6802606762333014 0.5276540039231097 1.9653437434892562 -0.319486821483282 -1.3478879767883238 -0.6398151650312529
P 3.3653816613182728 1.5480225254962183 9.77813827891258 0.9342987796019779 0.9166890369400149 0.819001257878538
P 9.102490229829353 7.667717619323501 4.978119906986444 0.7894585112244146 -0.29900644214174305 -0.6400429647713428
P 2.708173529643352 1.7337335110945855 13.005619293744251 -0.04885404538822554 -0.33561997959971873 -0.4063921652172743
P 6.344052612916111 6.947551972406852 7.759339631798581 0.9736433428378716 0.305066532292894 0.021196174461640915
