# total energy = -381173.3438927643 ev
CRYSTAL
PRIMVEC
9.16541293836589 0.00000000000000 0.00000000000000
0.00000000000000 9.16541293836589 0.00000000000000
0.00000000000000 0.00000000000000 13.41450828943188
PRIMCOORD
 96 1
Ni 2.7426306150562905 7.86451989128442 4.928798776201143 0.37926317021096617 1.1153597208744725 1.337687124995922
Ni 3.931183009644091 7.616907100431817 9.971929660668968 -0.20865504884067934 -2.9062654845229043 -1.4015093616582057
Ni 5.144592003609753 0.5025973231799921 5.440575260250209 -0.3330743303597296 -0.933462913964244 0.33654917628220743
Ni 4.776179072712829 2.4706928187653237 1.173742920666434 -1.666027540215092 -0.5680914141337055 0.5359621376993285
Ni 1.4699855584877142 8.402841243739887 9.941988090297436 -1.1952852908565221 -0.29388094798971964 -0.5499666795085367
Ni 7.753141795547049 0.8057543483798333 6.515198824732326 0.7157149016833609 -0.6137986863628332 -0.5402052292463987
Ni 4.405575608168667 8.942619896822594 11.658830293085884 0.5976896966161125 0.5969898423356106 1.8373347445349324
Ni 4.471392437126046 4.682123607072859 0.18096190933498 -1.3587660571534084 2.129805442440687 0.26574408054418747
Ni 6.497241948072628 5.318524041365521 12.747055330088923 1.2378491323606617 1.107624557013744 -0.06674429540508504
Ni 0.2222493441496723 7.860954545724691 1.1430048759269322 -0.6906121930784622 -2.51607666853837 -1.2986616356623442
Ni 8.131829154136664 7.6908536504984 9.667607711508607 0.23417581881960314 -0.17133677200619524 0.08588692977180692
Ni 8.956294692645518 7.768640508507211 7.42554703033202 0.35047349967278346 -0.3226325662011153 -0.21100837956420432
Ni 6.315354332049903 6.069849586129786 3.3964590816929805 -0.5745816498437395 1.7728429926094502 0.473481502666604
Ni 6.196222297126074 4.19570598702035 1.6558463809375417 -0.001209961147701142 0.18440774625754047 -0.17261743849083178
Ni 6.641441386867565 0.1889917274452097 10.934312664073943 -0.2863177909304811 1.0647174732375726 -0.10134774441156738
Ni 8.565453996749469 6.4941807002141445 12.005394713069482 0.046483488273519946 -0.38694151269183036 0.193302477644009
Ni 4.227033367799674 5.4931801467285375 5.080865805300636 -1.8549763688760958 0.052226818515200384 -1.6287640278779434
Ni 1.0267645287257126 3.9370397083913082 3.253540967600486 -1.1619239417872569 -1.7494256421267742 0.5166858059682199
Ni 4.874102342533276 4.8045643559994184 11.02718212530407 -0.7025953335822674 0.79901890121934 -0.7638384966634651
Ni 7.30234096944084 8.679994159885574 4.610123790674364 -0.9147920770276181 -1.9524551172505602 0.32371320085980376
Ni 7.6602595027390725 6.2359176997461 1.2877496567804914 -0.3567153668174373 -0.4854579583021897 -0.34909178883390846
Ni 4.635187528380373 3.1957961176519865 5.999719513932281 1.086881925149754 -1.2237882833922213 -1.409241697305457
Ni 1.8003803572978518 8.77445290368654 2.7687813707144433 0.06733924867660662 0.25082962532620035 1.4080047395745623
Ni 6.194398379988835 7.181916611319268 10.963154384915478 -0.9052494276445054 -1.4828657505495106 0.2824271976268233
P 0.7439308897576067 1.3256028114377783 9.871293428674534 0.5904731242630153 0.20261784150766393 -0.055643814616549325
Ni 0.665640850588823 2.6367884286198873 12.937139574733928 1.0195786719174051 0.24409924858090215 0.0639623617845737
P 5.334627671567181 6.829460664020004 1.2253267801644183 -0.6698150538274529 -1.9289657758793683 -0.2656178393789684
Ni 0.3815103057165996 2.1687199648927757 6.754379435854978 0.9251171131027099 0.6571266597265071 0.48188181091515725
P 0.8170763827498444 5.469826675041669 1.6283198968256216 -0.9814060175024261 0.761758731316301 0.27782980806412794
P 0.4279487024967628 5.943715175864997 8.995916771963543 0.17868884149589226 1.0468776168426743 0.21708029678989713
P 0.9205282295410613 0.49818417694089195 5.241115714903282 0.7149219734684203 0.7902527249909357 1.5975582916991002
Ni 2.3443567694200356 3.5186019547051672 5.3651723260976585 -0.20557589569472337 0.49057213960030344 0.7967113361320859
Ni 2.8921184970079485 1.2822320783050225 5.921190257490724 0.4793747282225873 -1.1915955007097607 -1.7083131883571805
Ni 8.853871205164845 6.5637553483990025 3.281215931398955 0.06857312108370772 -0.06126218924459127 -0.61490400361187
Ni 2.7883201976147833 5.405998740651028 9.483064875412222 1.0470041151182097 -0.3238458697829261 0.4522742724613695
Ni 1.9118134455117237 5.8742963396968895 5.76664215115982 -0.7866814626999097 -0.3499824189689779 1.4402044642355583
Ni 1.0661941343759902 4.868227312960559 10.857112392481127 -1.6136204873682856 -0.9672893755953857 -1.0219420299432593
Ni 7.9354143589052715 0.9329840254682411 9.028889344331484 0.6810826563214721 -0.9731522621340658 -0.5400075114132958
Ni 8.514256001128258 3.853927745574777 1.1701409134557044 0.7456942216542706 0.14961095029332944 -0.8013053832606716
Ni 5.839990199773832 8.685080963961795 8.670749008044702 0.1369292410606029 0.5889487171986889 3.1508164759292447
Ni 2.554538014601851 3.010810592119779 10.117328851992873 -2.05384785596745 -0.15803696957349558 0.5031026679671464
Ni 6.568218904408227 7.9266613897290705 6.84008429393847 1.8793501697347699 -1.324068505771223 -2.505515862303388
Ni 7.551786842843433 5.309056169994825 10.08856870332481 -0.03417356055791534 -0.8317534153378836 -0.3650719663122487
Ni 7.78662304832261 4.353992665211958 3.2987347013292063 0.940690799171251 -1.2908205423513706 2.0200239654394694
Ni 5.792522527141849 3.1135273728084503 12.445550828807898 0.5506341378892066 -1.435375161167715 -0.5235876752943757
Ni 5.917474599161895 1.640709701781002 7.379267195192432 -0.8471651219072637 0.20816525368845443 1.2188777334644814
Ni 1.601866682546721 0.3182937043563809 7.705051791389344 -0.44736603652647466 -0.532092113220961 0.2464692914749755
Ni 2.83145263001604 3.4409617433003548 12.492005723331014 1.133767533957699 -1.0818127381569627 -1.2959288101122133
Ni 3.4369472925158773 0.5734560456911176 9.466216097153993 0.51231518770435 1.6641742890564375 -0.7250999424426867
Ni 4.561855060968036 7.005858197805511 7.3341806967928855 -2.2129649459790017 -0.02883954993951162 -0.29996726339311564
Ni 7.1727878602203194 1.8607804273200115 1.705467009024487 -0.564129344162164 0.3211148440050082 0.08250001557744502
Ni 7.125173540984338 3.236747181818756 5.696551490237141 -0.39486025331827485 0.3448165584973223 0.4771391540238492
Ni 0.11919252664797815 4.155497321286327 5.4889750553588605 0.3020282596872024 0.44316459685061743 -0.3275292321717843
Ni 1.3800087015214715 4.331922351310083 7.758924254450991 -0.3118876689797854 -0.19607669795503652 -0.2379728239681902
Ni 4.195513513352601 5.1646734229448885 2.7511544489137427 -0.0720641649561017 -0.37459713219386453 -1.5404864863867727
Ni 3.7841972853731702 8.888883081869647 0.8027563418693251 1.079449894351741 -0.08763065193579102 0.2124235147441761
P 3.7027167660261293 6.506224052567577 11.892336597175042 0.6964110591484264 -1.2261215595110884 -0.19340069378477015
Ni 6.73090498071981 7.975778836656043 13.191881223623442 0.6168657553239312 -1.8335421102617198 -1.2456470311385257
P 4.202570881170062 0.04760790344705665 7.434562130312869 -1.6276227151846483 0.8503432625249291 -0.39609592549758876
Ni 7.93935548638775 6.025828108691784 5.415799316504549 0.054436938792641734 1.0981456709890312 -0.8880870569326061
P 8.182843841502876 3.9897774933545107 12.363816427527684 0.0583622419889769 0.5681420648659827 -0.7477230791588413
P 8.218405642972677 0.3887308178810089 0.4645186993690567 -0.49691505109919587 0.5197089090652598 -0.5632209734152817
P 2.638960631441625 1.7637370371235583 1.6004717067261787 1.4714703642283755 -0.5136138519111154 0.6986620599661323
Ni 1.476401347412678 5.307003117538836 12.935878413939536 0.1549436753601525 1.407236236839654 1.6928760278665036
Ni 4.4955432997221605 3.1544417753242193 9.138070490632693 1.4799429204757608 0.5203295733683942 -0.7186019934231688
Ni 0.3993681959185989 7.761106539226754 5.064956481849276 -0.3915239898561902 -1.4233087169214842 0.4643425164798132
Ni 8.873622669640984 8.831782560437468 11.888245156923466 0.9015575806152151 0.0938799752796125 0.19234551304737843
Ni 2.353293046851235 3.8853376150688494 1.3263177136322741 0.7754439421128775 -0.041388590249115814 -0.0882428315984932
Ni 6.476803077640242 1.5980630362554924 3.9191020790983844 -0.49959825435831373 0.9904398455699199 -0.487010133280658
Ni 3.6280003212885505 4.716833025156913 7.222049204127467 -0.6303905292832435 0.8102728768666045 1.34822093464771
Ni 2.0369304949612683 5.852995920466009 3.4993619202604753 0.8640770671712538 0.8742735480882814 1.1156793089974204
Ni 8.464946080533537 9.069844991204628 2.740329179914779 -0.11959357799563275 0.45934377771364115 1.011678186123406
Ni 3.6682548140863234 2.9558731080965885 3.4847806651165825 0.8862983404632995 0.15164623555580337 -0.41633950623797333
Ni 3.9829492608557993 7.509525124653422 3.1222537622876763 1.7274802482039346 -0.7681893174329931 -1.0066043711449244
Ni 1.5579093629979686 0.31015206821060176 0.48504005851619103 1.182808755656066 -0.17917272311084628 -3.0301769731676007
Ni 4.4099108483993925 0.5240315574370212 3.128947263218963 -0.7440451160866218 1.6911901555236484 -0.21404408106673461
Ni 1.8315610914731764 1.6510757836011936 3.7171733715566226 0.389400001534652 1.0389951287708041 0.29944841477516815
Ni 2.357225008920963 7.029770759670126 1.6388372079561877 0.5277965711694007 -1.454597756842753 -3.6202749734793844
Ni 8.261171458863934 5.117709848014154 7.490769024001927 -1.089143467490421 -0.7968378344076212 0.9747085508775923
Ni 2.8331390659620306 2.324495319990898 7.836460896691729 -0.5549636185024959 1.1535048644856263 -0.018072027010362424
Ni 8.731549606604034 1.8834464930506338 4.428504721245213 -0.35381027735550036 0.6300765975872503 -0.9269809057843261
Ni 5.897924773766256 0.833277166326653 -0.031792983747020796 -0.11448222491099638 1.0462302130666628 -0.8176259747975659
Ni 8.017866412003807 1.8530631497845549 11.734394538502833 -0.3108132049686841 0.6683739505055522 -0.030110703342451372
Ni 5.962073497603144 5.370473600832228 6.379899918258864 1.2252998349407414 -0.9498943200473899 1.999765986521382
Ni 8.818639358554043 3.162846458815922 9.163611746342973 0.907963741251875 0.38905547371103966 -0.05770172558684257
Ni 2.173256844204 7.8886890847060345 12.091931790630667 -0.5337067660062486 -0.7401046433816351 1.2088861694694084
Ni 0.403428473766826 1.6635407449411233 1.756214066338401 -0.5494118354463312 2.2014422900513826 1.2111675093044172
Ni 6.2736883656886375 8.488748657445152 2.0093856800238488 -0.13063466630114276 1.176921957857986 1.6156598863958176
P 6.414991534054591 3.619027382206351 8.031842749906202 0.5033057851168881 1.124515933452444 -0.9650131779666993
Ni 2.2749929257284265 1.0450678579873593 11.540018131067027 -1.108386374880433 0.3735077557844277 0.6495699304251716
P 4.363396378693405 1.9233527001639088 11.212167650836276 -0.05907880844002728 0.7413634554894006 -0.341740747785476
Ni 2.2314113881024227 7.079593943378845 7.992296743514 -0.6986042101450033 0.14690409288512762 -0.5889651722589211
P 5.711811902465804 3.7178671933017937 3.8649344897461897 -0.033467278519510105 0.19519146713660576 0.36449783897633353
P 5.7596278607822855 6.35659868942467 8.938341482150918 0.5742139820916756 -0.06420507392299911 1.1082549915088913
P 5.2478587090634194 7.395131608121316 4.8848927829637905 1.129837088555041 0.8062627272659468 0.7633484444009241
Ni 6.621222486341178 2.6366051203648886 9.928506684683537 -0.3769291227611508 0.020233039217423216 1.1288243310198107
