# total energy = -340893.6956783297 ev
CRYSTAL
PRIMVEC
9.02105676143505 0.00000000000000 0.00000000000000

0.00000000000000 9.02105676143505 0.00000000000000

0.00000000000000 0.00000000000000 13.20322843275470

PRIMCOORD
 96 1
Ni 6.303210927491748 1.6024283813479672 11.269576095434521 -0.5074282919256938 1.174394820560758 1.388627877709847
Ni 4.76397504981059 0.0831398647100699 5.9690736857976034 -0.9121703231340549 1.3715269563635026 -0.418452438815918
Ni 2.784304110527063 1.3885210798565524 4.752647308646505 -0.39469673115721704 0.40445226788208405 1.6866393029281728
Ni 3.2787753030308133 4.407309522690732 4.911073305919276 0.7739308479024607 -0.7387108483579019 -1.0058754633987
Ni 5.165881177342873 4.580757383932949 2.499212551050721 0.03390719427040612 -0.0077521331415931006 0.2246167143762583
Ni 7.217170287448782 6.030432208594253 2.719006994282744 0.36634054861202714 0.4493457859606648 -1.1066778768297585
Ni 4.884135527875099 4.7598524268019204 11.416725771567604 0.5540578188587748 -0.29090952406622156 0.462552514458926
Ni 5.585215986828658 7.937303218599958 12.340291655029962 -0.15936314458408685 0.17943986072930387 0.5121858612153373
Ni 1.8152531560099718 6.545940505816204 0.4727412706147267 0.606452273300091 0.48517565117508055 -0.5258106510876235
Ni 2.7552292441004935 1.5579726128868634 0.5007227849435927 0.4957241161148882 -0.007281878373393911 -0.48523170122399656
Ni 0.549372442762969 8.918929526452029 4.639680221363425 0.2354217754115623 0.36817580204855305 0.5271751355353179
Ni 8.749730583015246 2.343724712014107 1.4177096116002106 0.1305696173911622 0.4516569505923448 -0.6515854181933036
Ni 6.784042281944933 1.1380694768156383 4.850443684521096 0.21727055842383225 -1.3439747577768468 -1.2569192616182352
Ni 0.8114260270980845 7.280759717619709 2.5539929191473223 0.09702700554902645 0.21055072320149543 0.16030956765775617
Ni 7.710928816456505 3.788113197325127 3.8120099770843527 -0.18986131317294397 -0.38051735433304146 -0.30479553801969445
Ni 7.84761587078334 3.7062471058509963 12.468917492900458 -0.47202471561541937 -0.1552087560960811 -0.4455040436170714
Ni 8.104427318947037 8.890774807830457 6.919838957954578 -0.4726533503383537 -0.48118221374497133 -0.28950544462984334
Ni 6.933142310582336 0.8107025383337622 0.49322358033285496 -0.35341047081392035 -0.7139045879474996 -0.8186487596351256
Ni 1.8737817732534057 6.583377891999966 9.110121806639658 -1.0644495642881668 -1.0784029411444653 0.5964828207922049
Ni 0.26754831010006236 4.9086457395043235 1.1839307259435927 -0.8223660605857127 -0.8292010812296752 1.1103380992901652
Ni 6.384084702705587 1.8844987888645646 7.028475035814327 -0.5581723552477806 0.6828412908837918 0.09327859425018774
Ni 3.352594611739663 4.553784423766816 0.4427489627002317 -0.4417592318626586 -0.09420753382236034 0.030867636113133937
Ni 5.995295191922987 5.623465268134479 4.74607186026353 -0.23801421872908687 0.026282073624980543 -0.5028663835866242
Ni 5.393897411844265 2.8636894113504625 9.227538079191612 0.14924225410000105 -0.3532675174781529 -0.17798410211938379
P 0.29635074060789757 5.484667286490294 12.276758155411889 -0.1928031694100873 1.408476022784026 1.1491681847834854
P 3.8913501726231936 6.383958407908822 12.6255473977421 0.5304494354112155 -0.5800964090143816 -1.5347308148499181
P 2.564109132368159 8.545511896647051 1.666789111884847 -0.4383494348501612 -0.853270463474053 -1.469981952608307
P 6.534691247847252 7.808888473461197 5.717010921992252 -1.7904373086524454 0.8175007620736113 0.6992014774093701
P 4.695586417362613 0.9891679114302937 12.682084165619418 0.15363395540979347 1.0852374475677955 -0.8736125174655148
P 3.805181037002158 5.952499297933646 8.157932109596318 0.8143210787940491 2.53388387192312 -0.670727024118761
P 4.666836308984866 1.0878853372155735 3.7019476701268563 0.636268328220259 -0.29146256835621415 1.2662665071610901
P 0.18418291896719874 5.45995861160901 3.5245224248922495 -0.5076280666413256 -0.8576364537522326 0.42266313446315595
Ni 1.5471563656496752 1.113911086405972 2.6391011784755363 -0.231836114942833 0.5674926042074421 0.17314708574205664
Ni 1.6941635090835523 6.262336518624609 4.85164528930174 0.16769994658455634 1.3107496771751297 0.0032048800905428677
Ni 5.7665211886410095 5.435078536646404 9.187307773787971 0.560122794105932 1.0387336475793014 -0.7023191971027453
Ni 8.387769695488192 2.37920452884802 10.27104252271845 0.6438448550159364 0.025741627740478244 -0.09014570504816088
Ni 2.359980656569081 5.082553674649039 6.862575994995863 -0.7911734370329923 -0.06516255274026196 1.678830091296399
Ni 0.5845987678976614 0.06987981315548863 9.114373430762166 0.32484680024361473 0.42085513472013975 0.22868574223930938
Ni 1.5223935644269215 1.2912831074047995 11.315008844359168 0.03397404295259956 -0.37656479744319665 0.18673485172882032
Ni 4.341022796503194 6.69561788209596 1.4229643772513048 -1.020003932380282 1.171309239656899 2.1235918574308075
Ni 5.440409981281248 7.807625525493552 7.833383349293672 0.30827218371438525 -0.6257016084480063 0.9159853260047708
Ni 5.316379469801598 3.067844950320276 4.594485628341249 0.1318777946796245 0.1943723136694201 1.2314409148414727
Ni 0.7445565406340467 7.207238103788946 6.9977114275338765 0.010532266989891539 -0.015658275362547224 -0.04285694726452619
Ni 4.933588961865312 4.624229857190671 6.884427701153195 1.1995846895628244 0.5835951661962595 -0.3146166378751743
Ni 8.300003832793777 7.20509109224395 9.434934883909818 -1.2298684281480303 -0.6757974966631329 -0.946497378550699
Ni 4.460669074323733 0.2789229607600879 10.28254256606955 -0.6898701727061152 -0.18292267707158175 0.5229587834611252
Ni 8.205661619610694 7.031625188887911 4.833953192486416 1.1075584796624989 -0.41712446403311393 -0.7994318203870425
Ni 7.213940749074377 6.1406063766574555 6.913342894872428 -0.008925841734720111 -0.4106077459605187 0.8829764751789181
Ni 2.2753090163953957 5.210932335560153 2.7273117792757007 -0.6911639518168742 -0.8789519274005573 -1.5228952556675706
Ni 2.4807816296743246 5.412056799407618 11.319695283424823 -1.9038430126698114 -0.8783132653752939 -0.03274222742802748
Ni 1.1244296387650725 3.2741655429489094 3.914414308829465 -0.09013259242203833 0.046594559930087494 -0.5028663835866242
Ni 3.6319947864103828 2.7870825960558823 3.00492307836082 -0.31116133233672216 0.5143869826317141 -1.1016089469472834
Ni 0.8900373212384559 3.2275717839997204 8.305768288160385 -0.19933402855006963 0.7224635332611042 -0.5125357883555882
Ni 3.7354392460174193 2.730926516780239 6.883384866974196 -0.8048393645558591 -1.4481969955227318 -0.04787728329725303
Ni 4.117426879888559 6.8003703949552 5.655220290569529 -0.4536315578202123 0.17023505430158423 1.164519470428575
Ni 0.6530478414269465 7.507233351389191 11.402387703712069 1.500421242934771 -1.0085504391277018 0.4795696178422128
P -0.021793971393096703 5.4761874929932475 8.184840118152685 0.7453154981586132 0.8668970531185521 -1.0416027415969804
P 8.31337303913699 1.6780879856668138 8.105211248792669 0.8404481148984041 0.25666371550947403 -0.10372755749765361
P 1.7337208436415759 3.420532191342052 10.373538869244062 1.2114976389503262 -1.0569727962951472 0.09876172885194603
P 3.8323705025341726 6.197069171868098 3.6232037664498824 1.7098293678913905 -0.3548366617374856 0.7863945275871101
P 6.774876888122595 3.9487150735250114 10.453366201856136 0.34593447415184936 0.2389544711551691 0.8168610716070835
P 6.130150971696737 7.82251026939794 10.072425912692452 0.6230621139426301 -1.8001162265031063 0.40501919612914766
P 2.369398639984948 8.369177297193074 5.943802999070719 -0.0395052571834739 0.2601856126198035 0.2924061632164061
P 6.938437670989533 3.754987876345181 1.262442788457935 -0.15814778411974698 0.6504451339412733 1.0399418089547896
Ni 5.027110258869424 3.082774799509222 0.32951124370979923 1.1679716906432338 -1.5098831596786189 -0.20570779328689737
Ni 1.5029892710097474 1.1065679460798077 7.078356067902157 0.29139674811528526 -0.26451432190214447 -0.26060110289066735
Ni 6.771990149910835 0.5993671401678872 9.160387135751927 -0.08762628106041684 0.032240605201260604 -0.5831706770643311
Ni 2.8355437137858033 1.8827667459375086 9.197884060911308 -0.7680682184740966 -1.5930238941638566 -0.5584338364392833
Ni 6.3147939645664355 2.021131716849929 2.490207732041412 0.5671393346330814 0.3423040764881137 0.11519442048667258
Ni 4.075235396712305 6.732189246816194 10.2370178023644 0.47422352303895104 1.9054936608993571 0.13380946448469858
Ni 8.123588043827596 7.101312853531178 0.25739691475727017 -0.47452871298419563 0.05881578458662774 0.29560924353473605
Ni 7.394100276658935 3.9729095481623253 8.137216154504175 0.5868848926911248 -0.9045020079555197 -0.12791392493587003
Ni 3.0374620306415023 8.376240784754975 12.532821757957603 0.2974285561316619 0.6585309962732014 -0.33996154439786613
Ni 0.11022829440467265 4.847537099984129 10.24649803107296 -0.7363145802115835 -0.1334929616855443 0.04992773806837853
Ni 8.672762925444196 2.0975400688924513 5.860900388157428 -0.062267747690970175 1.228817875396329 -0.22864691858157396
Ni 3.792244841390709 2.724404292633044 11.219575985395457 -0.35732317560476523 -0.6512540029958139 1.2832620132778223
Ni 1.3334114431826718 3.466449371022859 12.566120283230255 -0.10054710288714296 -0.39571977310509265 0.2757472145034863
Ni 3.0340971764134195 8.336539113286364 8.139618461959774 0.5827456737117707 0.9090379481526601 -0.46011202333823337
Ni 5.719241829366527 8.200672975138497 3.623903800466234 -0.35329554250261086 -1.0176570294146603 0.660460094975114
Ni 2.905141167859954 8.226861103353308 3.816934572052477 1.134905504216884 -0.37881219871647664 -0.6974222740217602
Ni 3.486602412163709 4.1451125035507195 9.095493260751564 -1.0175523855159958 0.3041566188841149 0.8256853547669327
Ni 6.976073520425354 6.159469406659924 11.343778799062122 0.9609444072139643 -0.5408552041255718 -0.41065608269995085
Ni 0.7124063959062612 8.84382922766171 0.483764100055194 -0.21391398324677352 1.0142685725584015 -0.34613733419127485
Ni 4.7418283550922435 0.25315521379736533 1.6068992171534304 -1.0400137998433059 0.1620121521711597 -0.2996376479678388
Ni 6.071207385835364 5.5724421702416205 0.33170426264504566 0.5864164376951385 -0.3748562993925222 -0.06435496923730206
Ni 7.826858418829403 8.75387124813774 11.35410339869762 -0.7896590572709948 -0.15242322293114394 -0.039014176479668296
Ni 0.12853743151276034 4.729893496797999 5.978131729042692 -1.2368299470675281 -0.5201786496128267 0.027275547886501408
Ni 8.013161286170863 -0.248555376878064 2.5766231425161386 -0.5596116587974684 -0.3681189806686886 -0.35070309918508635
P 8.57463186835818 1.578044464515507 3.4692143249663103 -0.5858322830568943 0.7871825707060442 1.5306245059910284
P 2.0648206954735344 3.230629922292804 1.6869367403915494 -1.890123863311506 0.21405745080317326 -0.8693503997550511
P 4.615389221417156 1.1079391467303936 8.218230658205837 0.4099282033949908 -0.9080604147307393 -1.620301498932887
P 8.614937950639879 1.418371757177533 12.39264265250023 0.25027195305051736 0.935164470036383 0.4745207425643957
P 6.26326568748652 7.724216833287512 1.5470093224220136 2.034699050953141 -0.46281656675359006 -1.1869610872615428
P 1.6534244160700895 3.062071473896756 6.05506691080886 1.2618807193885686 0.08698453371135986 0.0003676677520638829
P 6.8551372314664345 3.9593057943394063 5.889630650209969 0.5485908822069326 -0.21486246320297187 0.5765045778980653
P 2.3467557871364555 8.420471026793285 10.360679352616362 -0.002332761898234692 0.31581245795548835 -0.660671696765288
