# total energy = -340858.2030159164 ev
CRYSTAL
PRIMVEC
9.41066318692581 0.00000000000000 0.00000000000000
0.00000000000000 9.41066318692581 0.00000000000000
0.00000000000000 0.00000000000000 13.77345681847907
PRIMCOORD
 96 1
Ni 3.27301921629007 6.946622128852468 13.132219930755433 1.1336587762939767 0.7105217875181957 2.1870705947107427
Ni 7.685641502270043 4.6735799738046175 1.9838872973700143 0.6388582004346223 -1.3421233063904048 -0.6673228835332184
Ni 8.29245988042759 8.446531256737185 6.2733964654477745 -0.7178257773787766 0.362757202136143 0.322687844919083
Ni 5.430639588389154 7.7213173260905705 6.404891660975137 1.2504171988336594 -1.5929123082866568 0.862657818226224
Ni 2.966062207221759 4.451375396634927 7.431647705141043 1.5213996449586507 -1.5750588250450037 0.6105020178894324
Ni 5.42121951462383 1.814394667434806 9.9063387259444 0.5002654556286674 0.5351404131289815 1.1669424780477708
Ni 3.7292387528227406 0.29524920310283537 0.3409040940769602 1.1767867178317024 -0.2323189681165225 -0.950562292648692
Ni 6.864994037103785 0.6836009194748939 13.184420878983463 -0.010016246585421459 -3.702855464585778 -1.9519933471227928
Ni 7.112447423376739 7.793826485293199 10.697306841818865 -0.15812027331592124 -0.06415725140419919 0.35563216105558754
Ni 6.085593508314571 4.966552737503025 3.3803779430928507 -1.6072282106886966 -1.2298465737711595 2.0863324588587164
Ni 7.3781198534155985 7.528116412601932 4.131320626660942 1.6459220277144688 0.03694263866262024 1.5804293453282976
Ni 6.720813267714626 3.011685101941336 12.635975902982697 -0.523774594494201 1.1829532516537304 -1.5611126472775567
Ni 1.2907100871222983 6.717980658120856 4.49346646949224 -1.6203727184904546 0.7720503430502961 -0.8745738529375195
Ni 3.9930949248828704 6.447621717857091 10.53074469237369 0.8607096933609176 -0.7088523702355728 0.9579501004723309
Ni 1.2240167177168435 3.0355599542316765 9.555101723781195 1.1995983164095794 -0.8384393119984915 1.0072672015399042
Ni 3.0180749421877455 1.2245248935243636 9.917729392563329 1.7784924775857434 0.291954163280652 -0.7972844350267365
Ni 4.961696835342278 9.157271587532579 11.253478913292867 0.4608208764797999 -0.13282550330487447 0.9373115982863729
Ni 8.171071737072014 4.230469490973344 7.664556911589512 -0.6132075897460536 1.0098516744376287 -0.17462752694232506
Ni 1.1506323668457086 4.971032213139684 8.440387975864054 -3.0056095682408817 1.709410535186417 1.3206160284462483
Ni 4.224512541229637 4.146780464005275 5.693038048734749 1.196156380607566 -0.310605202722936 -2.320199231078333
Ni 2.5380746599957575 2.007313261030378 7.6769940439454105 -0.10691803941049328 -0.2326601535060251 0.40150629787988273
Ni 4.009422425365227 5.5606290778201615 2.2910494588939536 -0.48549395374644777 -1.3484736740884646 0.10247491603747513
Ni 6.239646063297962 0.5861657369134071 6.59900070345314 -0.10167530295431522 1.2910825377635056 0.6031437777521483
Ni 3.0830461602454937 7.581173731172266 2.504675275579658 -1.3016276602692034 -0.030133843270902943 -3.6732870069000416
P 6.4157289806036575 3.148469090132148 4.732187701472642 -0.9024489820812329 -0.7761024016324828 -0.6311891139251388
P 4.668526447718724 4.743934091156838 9.410562408127843 0.27646043852042707 -1.6279510450583445 -0.427937752598534
P 4.637753579374455 1.4700302725351582 8.073917933337283 -0.9099260071845683 -0.8579372728221031 -1.649648070415804
P 0.26999380653539934 2.7357362277948503 7.587149502242176 0.6306173005820688 0.11238780427581288 0.021709366652633583
P 2.967135022815412 8.206794614208052 11.402989882263125 -1.0208673088218416 1.0225423825314197 -0.9785644342885728
P 2.1873768888283136 1.858568320036641 0.645942268938728 0.8472556247385409 0.07511914973234159 0.1447482228843894
P -0.19904587634142967 9.030792275438701 8.291813367872466 0.24570695938765424 -0.28530451917461835 -0.35556968324876825
P 2.4216271147688495 6.471411874179511 7.292535518898742 -0.2764118446706788 0.8147807920392871 0.9324036194617943
Ni 0.5331272396692781 2.6593404647310037 13.186143030331172 -0.6689521916065253 -0.37531009910048907 0.057377252367888286
Ni 8.050850515941114 6.969264184276416 8.248840515882474 0.4942110219044714 0.2842958754044459 -0.7688220659209856
Ni 6.30563363297075 0.17728089471860822 2.9833448900089916 -0.23661451016808283 -0.6926608480773748 0.014997758960412881
Ni 8.591248433923171 3.1593666380045224 10.580865884056129 -1.0913139927791786 -0.5424809126544529 -0.037988820538947476
Ni 0.5269529036079096 4.829637000028782 3.303095695564775 2.6258568599880068 1.30229666131177 0.15749035304140618
Ni 1.1730673876814082 8.079524806413588 6.591439235650505 1.0052761392518041 -0.6938641243568566 0.41023467889181603
Ni 9.53102548330047 8.007448537713662 11.443841570789875 -0.03812431767554725 -0.4459084781443417 0.16258088019043612
Ni 5.553458152536267 4.7466255408040725 0.8582392999943979 1.5764055688808851 -0.1594276792734351 -0.8733181261535475
Ni 1.7284753133115096 6.323862087399756 11.707493531460685 0.03289186563201432 -0.8654554355760192 -1.0090062957181978
Ni 2.295957119701763 1.4560177951759483 12.03765723573908 0.07665152721646798 -0.13081104397800697 0.9106870537203091
Ni 7.452097076062174 2.0850829809071496 8.606647101957337 0.7849585664715321 1.0590229939559568 -0.22407729693302053
Ni 7.6392939864915945 5.308140986787517 13.238343978559202 -0.12221661744077661 0.5183714212007587 0.904572456182139
Ni 0.3627311860762563 4.622847089020533 1.0754825755765962 1.353308890693579 1.634833888221107 -2.951415084476349
Ni 0.8821414432077341 0.9608192920738697 6.235670999203584 -0.48501829966160986 -0.1276231331683286 -0.43932156895544344
Ni 7.993445471017554 1.7111691038665213 3.571484984041245 -0.3715046093114699 -0.3435495188594406 -0.3456393115089338
Ni 8.162188071103516 2.0363545673638384 6.087509519322184 -0.40967289285107505 0.5682837326501696 -0.1866309791611044
Ni 4.072172726930851 0.5934467669555971 2.654971093852641 -0.5922536132022058 -0.9393414842322081 0.3735846317689502
Ni 6.441683589439589 5.038732523497076 5.985434879851301 0.19855678406441288 1.7293527826362989 -0.35214188851414197
Ni 3.487742316293493 3.8494035099750263 0.5681781954598181 -1.053746833158682 -1.136746928300997 -0.4125160187268251
Ni 2.2940279337658076 2.917710220202537 5.489782782787695 -0.3577180970503388 0.9843836120735112 0.1242202781343667
Ni 7.081411056465609 2.073027921473202 0.8860798057160145 0.39084830394540426 1.8275828073544913 3.8480957966152367
Ni 3.244382568470005 8.252182242350074 4.427395144917843 -0.5041226245912286 3.286053931109721 2.751042587359436
Ni 8.121646934459138 8.933053128459013 1.5299696090321475 -0.28999935354712636 0.04673545638332596 -1.0887004664157316
Ni 5.871726778653451 3.028050245076102 6.854539731463525 0.11536848417069162 -1.175884517732407 1.4939927137006077
P 4.993128450103703 1.5846333277940305 12.37356426770876 -0.1925504299693329 0.3908287635613785 -0.005718390541015958
P 7.868067206506637 7.685632091606941 13.105430596102334 -0.6554865530199226 0.7631954637628277 -0.056921909998024545
P -0.40074085434613516 9.106566934737803 4.338804103539825 0.15235817402116342 0.9282769988879304 -0.896406632541895
P 2.745306872169811 4.531845976822037 3.7918055464578706 -0.4440318299469191 0.7508017180841651 1.240308906755064
P 8.910505179666087 6.487024164266099 2.496604690903191 -0.34237272494252 0.6724468350233451 -0.38401842550776444
P 4.940955733864979 7.910452833119049 1.3842737228835307 -0.230226604363868 0.5538508450542913 0.19529122593926365
P 8.284903117956503 6.1825609809198765 5.9451468900443745 0.5578555953383102 -0.1664794439138939 0.3017999457264802
P -0.22318893253018288 0.5358365695764081 12.009352784326524 0.19117103312330302 2.573935745638683 0.6545023347297825
Ni 9.517474128433268 4.776589092121552 11.973155609770133 -1.0195416480318829 0.23817259868382207 -0.08699687500653404
Ni 5.718276506108602 7.1978680123556185 13.13796325844672 0.42663934550208465 -0.4823014149510791 -0.12170933878705492
Ni 7.313318027293691 0.8497687621360869 10.83884227380999 1.2090702604557564 0.3613932319090808 0.2920428663397164
Ni 0.8024735925832446 0.9448493967893974 2.0883729487276863 -0.663852922706747 2.8626888854835344 0.9958867276171041
Ni 8.340943616730243 4.040938736094572 4.4420776614899316 -1.718913589580846 0.18001681627869642 1.864184774848241
Ni 3.995278198722586 8.453212827539764 9.283874179313095 -0.8154639341492408 0.6210594816903046 -1.5339080618383067
Ni 1.3970035268619077 9.176902230763817 0.3796863777875315 0.11985737317998069 -1.1067007596478942 -3.2651562617251058
Ni 7.089052514904613 5.509096286672388 9.776784950215024 -0.5670449751470622 -1.27197667017199 -0.0928268514247498
Ni 3.528810450071594 9.285011928482154 6.668887110849179 -0.1162352030463611 0.8200561815056134 0.30772736695450875
Ni 6.763904694059705 6.747492497609429 2.1056857456368463 -0.09377044628494173 1.4705481095244222 -2.8462438525536338
Ni 0.889032871797492 0.6223911434591045 9.989750138350951 -1.8980801420441054 -0.5694178462546128 0.19267204314886174
Ni 5.1896042743519155 7.0987266765736985 3.6726373785281097 -1.5423245680367759 1.0296381130359364 1.0488655938069806
Ni 3.021406316925933 2.6641493135762393 2.7935186403088097 -0.699293265792228 -0.30995137118902105 -0.24539379902260963
Ni 0.7342039371081676 4.755659777382207 6.137562954230288 -0.3096752347094989 0.2590751531644441 -1.0551416566236795
Ni 1.5562789998670323 7.188193850686534 9.433027543085469 0.7524744778008976 1.254359214200543 -1.010930509324104
Ni 4.484538573407161 1.6799351130302431 4.951171949728752 0.3732493599167184 0.5995475757604578 -0.12919330586892588
Ni 4.716925488053457 6.061718656024231 7.6904371761869355 -0.7471931747973003 -1.2835679745540152 0.5098988649533736
Ni 5.355250766277245 2.6624742155440435 2.607480182507273 1.256272629173172 0.2891681158950826 0.3288273821579175
Ni 4.3606848363188035 3.5531181928646363 11.271108849548572 -0.6318902537572214 0.5742636043826884 0.7644889857632704
Ni 0.29016932716025534 6.816679692736972 13.693873713486479 0.7886540130452483 -0.03066554740465687 1.0418428826322443
Ni 0.7180420642964097 2.6559620366773053 3.6274323172502716 0.5153467754418222 -0.8213736147654563 0.8894762239706487
Ni 0.7932106768917264 8.199087281127332 2.2969170073381897 -0.003738898217141948 -2.189641954982345 1.9107255987222576
Ni 7.01144277630058 -0.08473361057241623 8.660225771263535 0.11785602647923575 -1.3775016858896985 0.33207468545062163
Ni 3.272398112525323 6.231392911757312 5.308042174824943 1.2340940361936037 -0.9883307696467174 0.8000437429394286
P 2.272863352448908 5.596286080314484 0.7990283488215207 0.427380080322851 1.0091335653246813 -0.11164526968283353
P 2.08250445921714 4.043423151153559 11.650884628635573 0.4466150172930631 -1.036903793459414 -0.38061942712854446
P 5.319179694606425 9.090465290169899 4.9941316267903995 -0.2825200144509457 0.36670410259903297 -3.578061316225812
P 9.192345128914564 6.231157645179757 10.118353437107002 -0.2937166544977135 -1.024930423147622 0.26852010062742787
P 2.377679318081468 1.043943679255806 4.576767777140498 0.20880828658909198 -1.2193880974419968 -1.1358930649411338
P 8.896539755622388 2.9005075280516732 1.6449500318814188 -0.09117054676824943 -2.7092238515514375 0.9594989330166896
P 5.830771572832576 7.457705831271099 8.871978865991895 0.9995708613369108 -0.07815305146265895 0.19812509584363297
P 6.199330782568039 5.115852907619794 11.684312245040982 -0.8528588298579312 -0.5537390020667754 0.7331680641628019
