# total energy = -340870.3171938032 ev
CRYSTAL
PRIMVEC
9.21999699140247 0.00000000000000 0.00000000000000
0.00000000000000 9.21999699140247 0.00000000000000
0.00000000000000 0.00000000000000 13.49439756849679
PRIMCOORD
 96 1
Ni 2.169280858823955 5.728162762864296 9.262379331332019 -0.887175086641298 -0.1299774923331181 0.6546339752116404
Ni 9.025501016265997 4.671588003863149 0.5229213413339827 0.7639516252025618 0.1649403815615482 -0.9128277542123958
Ni 4.935104733827648 2.6045937900910165 7.214482497034902 -0.31412864249516226 0.40774687947295585 0.7103130139414993
Ni 3.922813619696152 4.42426158836692 8.416388378380908 1.6942176294960627 0.30600704182929234 1.0223832312457362
Ni 6.841800082368934 1.1209303370128407 7.347537193574236 0.2774865657920963 0.37450714358321957 -0.9443235108278317
Ni 4.383168062407305 0.5533215149471854 6.974916552887162 -0.6364593611851427 -2.986195168270012 -1.3828308114120957
Ni 9.04598784926628 2.6909943805706122 1.9424514183245456 -0.29839194848619577 0.27003807993385104 -0.5570858070518212
Ni 5.111179013668523 4.121753491724562 3.7660976452411434 0.49954246141971387 -0.2968762831726177 0.7474765103656741
Ni 2.9384222160321887 7.593663165480619 10.605800178326746 -1.2074121560270432 0.17574981347222635 -1.1795581099292525
Ni 2.1190134359987756 0.9505540152251499 11.908643819185448 -0.6836293340027259 1.1947273614705232 -0.49571691702603654
Ni 5.283980194627715 4.7589751340056745 6.585360621986351 0.43485196321986397 2.3973246126074264 -1.4017394753911407
Ni 0.48712931356300937 8.508111673041903 10.708384629276818 1.308215083678734 -3.3531044449013154 -0.45803071532917244
Ni 4.240258111235206 0.8531760964961672 2.5126298535122435 -2.7214628168197903 -1.7680584267366133 1.482768305739698
Ni 9.140059477124922 4.912939861400698 7.990937155744407 1.503559017232804 -0.1446669760244928 -1.3203000398677263
Ni 8.594641343477395 7.128219284508369 1.5206162784525403 -0.6269946162278169 0.8415745151933635 -0.3692006437686416
Ni 0.8793571995508956 0.4486865366977149 8.393259094283469 -0.08397068658570055 0.2708826873223335 0.48733769182340586
Ni 6.1969903826804265 8.305852602147558 2.7274880501018566 0.2599285023036749 0.584649832713019 0.35055140409857044
Ni 0.07158405554194656 7.366362583142184 8.187171880697084 -0.2640980603003323 0.26998254410556727 0.32592743490230325
Ni 7.382764957538001 7.189006723739186 10.033300147932264 -0.11091147684060253 0.30704165374139375 -0.6746032192447156
Ni 6.059308169722172 1.2667261471989306 1.496258890774705 1.8159364813648144 1.53119554800315 -2.720966336799346
Ni 4.279655157774457 5.151664019836051 -0.089835039306151 0.2321994118195227 -0.8706151254000878 0.9814993485471806
Ni 1.2505266127338095 4.633795236775766 4.85890053786426 0.8159131058715173 -0.695722260611518 0.4574337051751219
Ni 5.52160717343794 5.405628833064144 10.461248145715695 -1.0251577086670796 -1.1142654593690293 -0.6020376891721632
Ni 1.2985535763244842 1.6813401855381622 5.937157041457428 -1.360494609808741 1.2044006228942288 -0.3102007681956658
P 1.4450777662617094 7.6523576654265275 12.45887755718763 0.21642158015997567 1.2012260818209892 0.47514860595638175
P 3.653737231631215 7.764472827120251 2.737702884611764 1.205014345218828 1.138880429704232 -1.2377491164476877
P 7.227278930662758 3.7801894884263976 3.2816753227532387 0.4345305753247033 -0.04935361073246339 -0.3725147957435391
P 5.446150719219072 2.728399907790303 9.49889530052184 -1.4010319078011548 -0.6609514327892358 -0.12472858522935294
P 6.9962626895938484 5.649802009637737 0.585849663833325 -0.3446805471400903 1.2880946587797752 0.09150479017921659
P 3.519945857343581 5.199008703659841 11.437135946285077 0.3086948730741006 -0.3157641212160562 -1.3023712233034472
P 7.443589276756216 9.082250096876596 0.7919387214190805 0.23230945503482572 -1.4228225213136851 -1.5465463194276077
P 4.047145277215877 1.3045189142863132 13.655655276285772 1.3107008262150655 0.5298663092142358 -0.9992055075776921
Ni 8.888713143002175 2.6590747514765605 4.214799855933503 0.1145840405961833 0.8468056816853158 1.2116979278865905
Ni 3.9994041335275465 7.536536064999179 5.930774037638303 0.28733723333393096 1.20679406282707 1.2423503626651249
Ni 2.970682985009683 0.6261290640711021 9.862232326380838 -0.1961324908936364 -0.18361404671165152 -1.721325027235816
Ni 0.48859529306212957 5.444555659764054 2.6831453972523667 0.7403720381104087 -0.41094816001907286 0.729643595949311
Ni 6.149894638771583 6.7998214367117376 12.102962628792731 -0.06274263044485968 0.19441062310652327 1.7855208451874345
Ni 7.746825753149709 4.64982881129759 9.768972058244982 -0.5933969827780298 1.7419182780061355 1.7180119037021833
Ni 2.735333345421362 0.2098803202903986 4.578540717654523 2.582362793360114 0.6580319451495958 0.28930772679674044
Ni 6.562738437715651 3.545171768724669 1.0033136031988337 0.9635437925100243 0.750103920686192 0.20823081681906716
Ni 5.279840416042148 3.167197997866593 12.028568318210962 -1.0682900210801796 2.3425287478134686 1.911136461007431
Ni 7.058423908355286 2.611702407662222 10.866066859401688 0.24380999947525753 0.27406237060189576 -1.3534544151325076
Ni 8.653243643454806 6.76963516702545 12.64581575931664 -0.5127198793419363 0.4283658412748881 -0.7035268442576013
Ni 2.234899576404073 1.7076263965569787 1.3390210644979976 -1.3060622990017894 1.3216403559457044 0.1409296204692476
Ni 2.654280353114658 1.9391681774463274 7.7681303998705715 0.14325466905799844 0.6139172142185685 1.0661765742816025
Ni 7.598771043735415 1.6962397004474596 12.862683915219511 -0.702614616855977 0.5747976225092875 1.4928403452637196
Ni 8.506959173435677 0.30423869005106774 2.54015799810673 -0.13199246588061783 0.5859117301445781 1.0802482218833203
Ni 7.319193079258541 4.634754116448147 12.190406922915727 -0.30177140648139 -0.2934256056198559 -0.009290424162990451
Ni 4.809122696871806 1.1529882660596398 11.357005875663038 -0.264383452751235 -1.5231431100123187 0.5058617187695224
Ni 5.296814430242654 8.493774577940442 0.4545301707011263 -0.06417499201601205 -0.08726118441151423 -0.4188828414851173
Ni 3.820397894688431 7.304302784346095 12.575712435268773 0.5713322896685065 -1.0404778839639177 0.4631973471317764
Ni 0.33030730914422846 0.20451981412191744 -0.09062611503586493 -0.9646524521931709 -0.283168446668222 0.5545982647432771
Ni 6.206108959564892 1.5716314430222398 3.6568600445642465 -0.25379256460926614 -0.5352769387068459 0.5138331670107732
Ni 7.378035099154046 7.369312982134124 5.622642664917243 0.6688583463411384 0.5843988930444775 -0.804417446527092
Ni 0.2820249516408138 3.5550556053476687 11.510086405360164 -0.6367468105185744 0.2821785719511269 -0.420939724014146
Ni 5.1940667853483395 6.178153929116259 1.971842002282694 0.1788179108745888 -0.3927342081142075 -1.7637865388341367
P 2.0590834564749927 3.99234161594059 7.637936668353735 -1.8549874246196894 0.5448306438335521 -0.35074526527693145
P 0.3101284240387282 2.487850189978687 13.318255023564982 1.1465070930115544 -0.41901910995266545 0.7189485781293101
P 0.360914932686552 6.524927230634568 5.111920301415248 -2.48261736043866 -0.43114031869623165 0.44021065642861607
P 0.7000420908173114 0.2770609053368746 4.358784858738289 -1.2452204851240682 0.15843266235001743 -1.0409347689956783
P 8.278957871336655 2.7976605241260963 6.514595302164668 3.670770925346407 -0.705995617513068 0.23092851552689908
P 0.09180904063169593 6.158976335668648 10.010642927673535 0.6702860799266004 -0.5534600373737759 0.36121891111474563
P 5.170205433501025 8.25166668066121 10.765668469704705 -0.1251772427309973 -0.7161180506590505 0.8916891724615675
P 2.749965480422015 8.380313296706646 7.836898668374585 -0.12884852093499746 -0.09959270939367364 -0.04243528634607531
Ni 3.146425344963965 4.598113848966991 2.6068609873163853 -1.3983996123846305 1.0252448690642473 0.9417626920791909
Ni 2.6474483354489466 3.1723704160993385 12.75985697835229 -0.038373457571875845 0.38210475342481937 0.28789387716834935
Ni 3.2912622754776746 3.5075357415837334 5.776951298194765 -0.9408504646775668 -0.19007600028691135 -0.1562017161369697
Ni 7.936001648514168 0.734294379114366 5.105321549669837 -0.3410925726785158 -1.3339927068634703 0.8622392426315667
Ni 2.200840908040864 7.153629595826453 4.145951373456896 -0.18162889796082268 -1.3280945962114805 0.13369890704876328
Ni 7.425518082930583 8.814842528241474 11.809311261124305 -1.0502982124884492 -0.18914911759726777 0.8552556122248819
Ni 2.4061610178893456 6.069653006187662 6.854668431972218 -1.2274654751334924 -0.25566432771068226 -0.08595043601989069
Ni 2.6731168066788253 8.878368306536684 0.1687443823452738 0.5317606980234714 0.49923341481972733 1.8696046603122318
Ni 6.415661047967436 7.9277774113241355 7.741222761064078 0.8439556138310303 -0.8989934194324647 -0.8740280077363787
Ni 7.576283471418722 5.0503731344440075 5.591053111710415 1.410059822331378 -0.14339325151839175 -0.11032603665077773
Ni 4.367457187775224 3.0590658748119894 1.4474491494514812 -0.1793642702963621 -0.027329541052888418 -0.6254527256619937
Ni 5.298815169559064 0.33757174466219597 9.092781177278452 0.5605830215718023 1.2713917442027973 0.46877664099176686
Ni 2.1942486102932484 6.83711632396923 1.1632916125393056 -0.15325497480381994 -1.1691551694283735 0.5491616671087381
Ni 8.767866644291678 1.1280112945934968 10.779999110808369 -0.22299460539180305 2.2874171515513058 -0.7401295830822996
Ni 7.356829106399477 6.077001343676963 3.3306196760304707 0.11202245051659417 -0.6983630406684747 -0.0500902317881718
Ni 8.609467098411894 2.7478725411371077 9.0076179103761 2.359478745404246 -2.3484906218238586 -0.38250481707671546
Ni 3.1964714878647493 3.224454178303931 10.3950448803353 0.8538142517926651 -0.25216068543279796 -0.20401626451708732
Ni 1.5954835748727054 8.953677240805956 2.3695760703892885 0.13240332816579134 -0.8880384630828577 0.5223921123243778
Ni 6.901020122135282 3.552215846317926 7.89381739692722 -1.158479177771766 1.3756435496350372 -0.2447890755590752
Ni 0.9295232024107271 8.37325999911654 6.1892861533127235 0.4442740278647123 -0.42148402655339023 0.041422785921160915
Ni 5.186838307818086 6.712812326440054 4.139312053725345 0.4334306573923052 0.05522009681556942 1.0990540417359134
Ni 4.512109718351937 7.12079718704427 8.817724699256726 -0.9575322962086218 -0.585190021487205 -0.11918914346836249
Ni 6.59135730793747 2.920867342030145 5.427932005443842 -1.4538670493243155 0.13718558004578307 -0.35115689889305324
Ni 1.3977884024190192 5.650834649284916 11.837825023382036 0.8730257917241094 -0.8182394400118488 -0.4068822174798154
P 5.755029833684651 8.907982936418284 5.261087864449315 0.6980403672217332 -0.8080283038068019 0.05375816755806225
P 1.2908548789548906 2.364357552172294 9.995812562740612 0.5308980929128598 -1.7605857725086518 -0.6774250049642269
P 2.114763017451012 4.652041610541546 0.7549923500425106 -0.32357641817162336 0.4586940599447842 0.186664146391885
P 4.49271084497993 1.8716317005214487 5.059197593428964 -0.36239287681818877 -0.597774543020435 -0.6731960544845438
P 3.6871966001991856 5.474631289488144 5.058037717825257 -0.4471078977690816 0.2495538439375702 -0.5010020766843759
P 6.321976659976489 5.651277209133706 8.35775473041421 -0.5880177207439874 1.2601660506903072 -0.09682183151675583
P 1.7229961313056164 2.926980199941571 3.331928915583144 -0.2954266952102848 0.45519324588037735 -0.43366257089745314
P 7.897932281521291 -0.001486263492189823 8.781641319585297 1.103387893224577 -0.8270621805098013 1.0598578311524263
