# total energy = -340863.8129583523 ev
CRYSTAL
PRIMVEC
9.29972523841015 0.00000000000000 0.00000000000000

0.00000000000000 9.29972523841015 0.00000000000000

0.00000000000000 0.00000000000000 13.61108791704971

PRIMCOORD
 96 1
Ni 2.9018304948410805 5.790752970918695 12.882949493883606 -0.049121440116999274 -0.42694273567511637 0.3761953299189198
Ni 7.633447047206171 4.520531386736014 5.868121105861621 -3.110866417898868 -1.78602786673084 -0.9760990034672157
Ni 3.949732845191324 3.395208822980975 13.214841811490297 -2.3377441819406317 -0.28692020040117033 -0.20319968215306297
Ni 7.481108246511401 9.23615241152678 3.059173477738027 0.1403074135042164 2.2065873245874323 -0.5552654660136308
Ni 0.4897858442434053 6.565048102219991 8.544143109924981 -1.0618290959461842 -0.11894848821246612 0.5370376301516944
Ni 4.435150608445392 7.5676886893700965 13.244228013572917 0.9906956703344679 -0.4893449520614217 0.26509847654038865
Ni 3.0221503412112 4.7734932155436836 3.6807652591114635 -1.7522839375111758 1.4435037038121206 0.5952402066343555
Ni 3.5956551028280583 0.4311008574963036 0.2147269380698341 -1.0931423042371688 0.024323150126396822 0.25156136128590223
Ni 3.448031262877581 9.432432414424271 7.173234329524597 3.500794266912532 -2.7610506064147415 0.21743768012931583
Ni 0.34872389048853425 4.09980251290462 9.5835669006883 0.5226139985271967 0.8899513638348544 -1.0029333500512405
Ni 7.562527341809777 3.3330773580251267 3.5233525282745126 -0.9208069157631303 -0.9288647530706002 1.0362890426935507
Ni 8.861215385239555 6.473920093673013 0.3423675282228072 -1.0413268622277745 0.5263554678474999 -0.3198074380474944
Ni 0.8921868193867313 7.8448112045952625 6.491467745405567 -0.23730536558752033 -1.3080621030406376 -2.472099748736788
Ni 8.981386436004332 8.70082302240562 10.156349073646712 2.1534156256604593 -1.5820648240491915 0.8035756673520871
Ni 6.544235316922702 1.9578618748226086 5.7047202818821665 -0.5671290502204362 0.855867791887584 -0.7162756592828373
Ni 6.186084294863183 2.884858496106696 13.012812718391384 0.25929189716094053 -2.066221547041454 0.2657502511917746
Ni 4.60242476802642 6.600070867827493 3.047795263791989 0.1672230069481378 -0.2711148579377976 0.09961636354275748
Ni 0.8182279637512166 -0.07429085582993512 3.804884043280485 -0.2908092510429314 0.6542035725424411 1.049235832662206
Ni 2.5285395199379583 7.746103919901149 2.6366311574665207 -0.5392665194822132 -0.7955322282223203 -0.11893614691729192
Ni 3.2440975860302816 5.992538411213861 5.67443572633229 -0.15890008890473925 1.5408767798466558 -0.15657092655093036
Ni 1.9396065139921446 8.722695976390975 11.594387921369924 0.49579405012087513 -0.5745410264137911 -0.7085500085038056
Ni 9.440988161731468 2.6308736975122966 5.040703153535435 -0.026704762984695943 0.05921764801073673 -0.08569126882123305
Ni 4.220931435378789 2.5919264478138846 9.56879893685805 -0.9992764700249435 1.621813050481407 1.1760254141856457
Ni 8.002013761639667 6.920827694319362 5.837890488718682 0.19890851097687678 0.37072196550917447 0.7902015600380261
P 0.18785259179990277 3.406452190909672 7.322628837178651 0.6259016402739542 -1.1520197952996678 0.3755111593677017
P 1.3621958677350448 6.596788064784623 4.466778044333484 0.4461712448874251 0.31382345254991756 0.27325838664336166
P 8.491979090582017 8.654621986946758 7.693749256188839 0.33391816641726363 -1.0416032558176127 1.3632369484405684
P 5.460640620740914 1.0419598258618752 10.373432562116161 0.01326277854717716 -0.3604750909701856 0.6971659350365801
P 8.26368943308521 3.2214527548422125 11.204307222348959 1.3014451119447523 0.1489874577767176 1.773812555611571
P 6.38846491757972 3.366909758789889 7.758701327838462 0.2785021515408042 2.3190157522931933 -1.2292292519021344
P 1.354077207518542 2.455006591722737 13.356982533383903 2.162540985000495 1.7869205537484385 0.9617347643257438
P 7.940570476358528 0.24848587100445857 5.177644398994851 0.7012583599383988 -0.23859683070543425 -1.8860167831216679
Ni 8.90680263882638 1.6472603483953694 2.332028883852186 0.351888120632123 0.761952849604978 -0.24385962176627035
Ni 3.234537468387023 1.7757174544326595 11.649090765729044 0.44094676326369225 -1.527576463193324 0.28780234589580755
Ni 5.851145387237103 6.209882291992658 6.7009431285793415 -0.4404199442259447 0.29328599471819816 0.3784044217550967
Ni 1.1550909845488828 2.7242150406887453 11.150448793050158 -0.14345238689110132 -0.8674148732952351 1.1417803769598465
Ni 7.523105806119336 4.804377603377597 12.870195850560682 -0.08024644365657793 0.3884654055355245 -0.6792013801383593
Ni 2.7987151403386936 6.780439040678666 8.286321244657811 1.513252333261168 -0.593829699440074 -0.4312441912639476
Ni 3.200546972291584 4.166118854260728 11.117006050776887 -0.4549677601331326 0.39602804837413086 -0.2615277284699947
Ni 2.819909214374673 3.495292467024508 1.7330726339414848 -2.829772851481804 -0.19390694399722733 -1.1325071791880368
Ni 5.306330278275356 0.3251983753113437 12.408166896521397 1.168506222990465 0.9244044033064015 -0.17315711304438566
Ni 1.5731973358361149 8.658072185045638 8.360134094605582 -0.7609066677286508 2.5241946696598143 2.1645392463774464
Ni 4.975111260782838 4.14452489203539 2.5562443316802073 0.9687284220347576 0.9506080582849629 2.1722384147939167
Ni 6.98347994389391 7.897894036801218 11.846628091491679 0.08759825603595882 -0.46725120548617594 0.2527911199279453
Ni 9.124072121802504 4.28223522477992 1.8097163202808988 -1.3103943507182398 -1.5396812168766578 -0.45501455421066805
Ni 4.458130229745482 5.012375260195814 8.341419327343624 1.4885172924083332 -0.5094034133741937 0.45865755027989397
Ni 7.193607237813592 6.865271135174587 9.182802677203743 1.0419436698761668 3.779687483244168 -2.379151798353141
Ni 1.7555277507327423 0.701502461222653 1.7463842607844426 1.0437421565374863 1.5948897437280016 -1.2300777159453589
Ni 9.181897813928753 1.8208025228514522 9.148420662671745 0.810039934920192 -0.37128837953560573 0.076409586408991
Ni 3.7155657612834854 2.577530472996993 3.894377160113762 -0.14328269408245647 -2.244352202041031 0.5332498809744881
Ni 8.66863667302496 7.447238646845303 3.646737564114689 1.5078522452915193 -1.495163336969941 0.272199349251228
Ni 6.3958674989455115 5.617545586574633 10.645572284507416 -0.5710942055157714 -1.287366522364499 1.2349335013757634
Ni 7.068312038389831 6.220530477499984 2.4087674273900057 -0.12326459908931675 0.09153667185841655 0.08093087131811223
Ni 0.08019804136203436 8.516576864090208 1.5573533937847335 -1.158095312069786 -0.5148402681190487 -0.16443130313561358
Ni 7.967651276530872 4.946198414719715 8.172206175030476 -1.3170401381695318 -0.9101185828113488 0.3037485848124188
Ni 3.8221592130607553 6.624938333370367 10.62785072791112 0.44106837644322106 -0.5965324430832178 2.0520941065011367
P 5.212124060642853 4.449555882987618 11.853392711699566 -0.3334574247307612 0.18814407337152114 -0.12682120609232353
P 1.8330037624895414 0.9648465033930985 9.970897670928027 -1.6453355590833791 0.4179454172725125 0.7111265109817301
P 5.014914085211971 7.414857003232631 9.260317747806942 1.4180662375756223 0.010203680005879203 -1.847685234531321
P 1.331292880450464 3.288234082465016 3.4081214916071088 -0.4462812881027282 0.30072702437727566 -0.5837807998445044
P 3.7078841881576765 2.1865700199594422 6.403472814323583 0.7906144792057287 0.24302761278327825 -1.6278042350678352
P 6.013472092940491 5.506599863341094 4.569392143640374 0.8462492949612137 0.612772301980848 -0.7118096530916838
P 7.250056570590423 0.8300339650626146 0.47774641982612626 -0.02726320659132724 -0.06336200919641345 -0.2955863607166006
P 6.668712140517079 6.750614821532819 0.28042763760883715 -0.5100654724382249 1.9225079360691664 -0.5445856177022815
Ni 1.6362122746986847 6.216447898078398 10.863716871637461 -1.9201126963641122 -0.2517806763855599 -0.025441065780923925
Ni 5.37173524654874 5.067308737743216 0.47241953715486296 -0.29212874118530335 0.8909368676765752 -0.8980284844160341
Ni 4.854186932266015 4.023572664342565 5.5520987695372455 -0.271345743001681 -0.4847946136865779 0.8376983200674089
Ni 2.5937863928806664 4.2923347264925455 6.970755129719521 -0.7279793208730109 -1.3742335566613881 0.9533809930444098
Ni 4.647286643037199 2.266668554260404 1.3988795642871836 1.5473266492370576 -2.9739173793439235 0.3734193098356795
Ni 0.621707097967577 4.58853097837756 12.790502784284278 0.805374925344355 -0.34446380314359387 -0.0379602812938572
Ni 5.703223956075941 8.49215578536336 1.901482289985783 -0.4640905483700072 -0.105555868955644 -1.4760618402537997
Ni 7.686427582433452 1.0681757515781658 11.406813391357502 -0.15269910230034994 0.7384753353083282 2.3471289655896417
Ni 5.397895373913027 1.6190821806336237 8.021953302728102 0.25655392940448724 -2.2975118167831465 -1.7570127104454125
Ni 2.5014494200402804 1.9932752288941358 8.067618674007731 -2.5328646866299867 1.080142035322759 1.255145200436948
Ni 0.2477530526481465 5.320214768198882 6.4695817718047435 3.4272560885140653 1.2369204498988053 -0.7261512665253366
Ni 7.249098698881029 0.4024660732206632 9.3349601332545 -1.8625217853235212 -0.3768478759012542 -2.858109493642968
Ni 6.353507250049554 7.74827075590395 4.305976493584858 -1.504120546163229 -0.5532798030421697 0.6116325319494499
Ni 8.46380092282027 2.6464042388199256 13.629191073742629 0.014263451897549627 -0.21735026262183213 -0.058240371699131946
Ni 6.708700959452889 2.837132305693073 9.908000838577196 -0.6572372171624422 0.5403458685893211 -1.0094318132913906
Ni 3.6220570230510267 9.267297191670043 9.683785390749174 1.780399207690153 -1.2028654171966253 -0.28997621361867476
Ni 1.2747598501456288 5.847909082820903 1.5867395958673538 2.5643349893241254 0.7700759929327446 0.8307954222999886
Ni 1.7730112343604918 0.6500861397965348 5.983515817694902 -1.6726568726061517 1.6255380647414779 -1.6003175996117922
Ni 1.9421453390083019 7.805482666158159 0.17580386765728978 -0.4327572854743643 0.2343102875149384 0.2334201716005012
Ni 4.684913331738197 0.39964639649942185 4.960084764588308 -0.006075002549486312 0.9980325703155133 -0.9244018322032402
Ni 6.5272912173643185 8.764116953028207 6.541202676491314 -0.7516671514082538 0.19131938577570923 1.43412560503133
Ni 0.45660163433441653 0.6240478388341218 13.061880859170689 -1.0783592323907234 -1.1898512643251444 0.44802706714924134
Ni 9.166209177290447 5.029151964698186 4.048332253071565 0.9216291545541095 0.2769674600638327 0.2648305675909826
Ni 8.545452511251995 1.4199285626079543 6.8625472456242855 0.3225392351563607 -0.5159075330412987 0.7610082263035217
P 8.82021289624235 5.8563253342480905 10.465416145393856 -1.704675077383961 0.998969480307486 -0.16510287528134146
P 3.4462178164374686 5.633885203986312 1.3695612501995011 -0.3869692806059723 0.8220181903279907 0.8103934616048688
P 5.846876813308839 1.8850729246341 3.3154023000554984 0.19261393621741665 -0.47778527224828043 0.5871456025516791
P -0.1334566383768 7.862024996188329 12.359507943656782 1.2537989708216986 0.875520533121505 -0.5962347093371408
P 4.469680488610198 7.780196712975261 5.842464093637898 0.09280705393040792 -0.02189294341834939 0.6000612821720827
P 2.4636460365579382 4.702964098611314 9.212242817693298 0.11814836090867394 0.5139154423119343 -0.9121189010708292
P 3.0360813297613967 0.35320728807201196 3.400118147984746 -0.04992465274458499 0.6064185918486782 1.2966217224141798
P 6.917330997593812 4.1641566122152724 1.7203189906185614 1.4419327597805747 -0.8039991280427509 -2.020214484183721
