# total energy = -340874.0301991046 ev
CRYSTAL
PRIMVEC
9.18921529382590 0.00000000000000 0.00000000000000

0.00000000000000 9.18921529382590 0.00000000000000

0.00000000000000 0.00000000000000 13.44934544263365

PRIMCOORD
 96 1
Ni 0.21479147146513586 8.520662982427767 3.6980186058686706 0.01702070292771262 0.5735280117682445 -0.10538900436047657
Ni 2.3160405948670713 2.774949998997628 11.064359031035554 -0.21476836082726883 -0.6204100210317637 1.130700207886285
Ni 3.7553749300128776 3.12494882527966 2.5838611890666203 -0.19194030718915978 -1.5062859292456638 -1.8741897085797528
Ni 2.8331820553447513 7.628105326588658 11.057015929216556 1.9197368010819327 -0.7897786135679946 -1.2054917990758787
Ni 5.077574339759161 1.762224976762537 9.252261426939459 0.0246998167395252 -1.5438672299335476 -0.17720942873688839
Ni 1.6288251405638325 6.724437909644344 1.082200083306959 -0.6304002994752563 0.10691958207239005 0.4692882905208628
Ni 7.5412856219385676 2.3988262340703588 5.580751868908911 0.8958435609495734 -1.0028155935264536 -0.9328982997100256
Ni 2.469142108327608 5.074679736989815 2.545194809597246 -0.7324196160325516 -0.20919086673949133 0.5627620315009921
Ni 4.638283909954168 5.711483157030734 12.080403197779493 0.5793181360874603 -0.19960373727168848 -0.5551430815031536
Ni 9.161959928672529 5.484463596977761 2.74490402225182 -0.7305234274511032 0.22593800429084313 -0.19938030840697274
Ni 7.158655892691626 2.764400780016013 9.82213795526705 -0.41129731582837553 0.4719972048115936 0.7099880265019127
Ni 5.021428235248995 8.929720894419592 10.678377076105255 -1.0905773717234701 -0.703378491605195 -1.4228695725015366
Ni 3.4142069394811356 6.893142710413925 3.458821497911137 -0.07366981888032473 1.4849462872276233 0.9987486225459317
Ni 7.63756102896852 8.980675092375218 5.9178196316448375 0.5749009808563712 -0.12997286434742777 -0.4274803533461412
Ni 7.289262207487533 6.101859394641353 12.253214658795489 -0.5479661041387401 -1.1214753468539074 -0.027811108674997267
Ni 5.766747096887385 2.965084049475509 3.6690486862158473 0.3413957057412314 -0.8654302387650387 -0.20701082836903703
Ni 1.9743580082874452 1.527063772094834 13.534479790775654 0.13717529563313793 1.029747384920291 -0.23685927918903724
Ni 6.989886767416058 3.5881863497415245 12.635606387370284 0.48769044717713433 -0.09888385625210713 0.17134114288156943
Ni 3.5385462095510305 3.691592587720723 6.848245124157589 -0.04718565654686712 0.734519950205006 -1.291972910788259
Ni 1.6361857018915973 1.4132369641459912 2.9870453547404594 0.26898701296151734 -2.193485497098151 -2.0112845286839423
Ni 6.4257976067841325 4.592429726401676 6.132309696853357 -0.6790712823183983 -1.847194925158464 1.2144893745887986
Ni 4.790236771522108 6.641486864568522 9.782798006327857 0.46429469396101325 -0.2940640105348032 -0.5834756098992596
Ni 0.4621302240374007 6.996420299381153 6.120984908113859 -0.5311256355426337 2.5074467607775137 -1.9132149408030148
Ni 9.197117865801154 5.794838527572749 7.783755009407733 -1.0605615420876702 -1.284511055193575 1.4356273863878373
P 5.148983730618162 3.98381881841267 0.4753764776628352 0.006953548499697702 -3.267163779073438 -0.2874642458300985
P 1.1915287704443902 6.6545631177138524 4.064674722436394 0.8910024308071881 -0.30073885145181756 -0.8049599492941234
P 3.6052047761822497 1.3254432026909784 7.2640047307515845 -0.28991579269438456 0.14181767950115576 -0.6609786864827455
P 1.839193842781711 3.41367396500297 1.3809920082169937 -0.23256270869621237 -0.9380533615484037 1.2618789196163558
P 5.409452033783574 6.754165020624768 2.6831580100348624 0.15550726117310637 0.10404534584838857 1.3731634635256609
P 6.61977274919086 0.2582674861391946 0.1950466048921417 -0.1334032301852154 0.2733221500017616 1.4313950934740445
P 4.842532594888287 5.7531562476941716 7.674075294251924 -1.3262315748608127 -0.8011485459678331 -0.8239084653721681
P 1.179950359367007 4.069930953496921 8.28753994567829 0.6874111696426612 -0.2358519209704454 0.3554601542540975
Ni 8.01545831241796 6.47759721253271 10.026729397925918 0.19777054071769165 1.3566862918062441 -0.2800864653087886
Ni 1.4733987556726784 5.853263557437829 12.137321196361485 -0.23057730283506742 0.24530689573575817 0.8827707869260153
Ni 6.49173022541923 7.073591328133424 7.655380754969522 0.015189563256244808 3.540870566108128 -1.3618112717376352
Ni 6.859409101632122 5.179298951367596 8.477646428510747 -0.5072670837574812 -2.5946786346129893 2.5093948856428203
Ni 3.588140403665821 8.688954268516014 1.2758434950471036 -1.191130388147884 -0.8423471316933299 -0.11824966237322859
Ni 0.9296820850078616 3.0655221709642353 6.273689447480314 1.2721311934719832 -1.5114499899451066 1.1476383784025201
Ni 4.0448719638080135 7.7909198404529985 7.0376789564417415 -0.6786064268668378 -0.45970578903875026 1.8848281621302054
Ni 4.751559364994565 3.9334527302260547 9.02124272045722 0.9455848940387587 2.461557454444567 -0.10528281779991544
Ni 7.292322216129413 7.207790626049377 1.6864534654762067 -0.21712374843332286 1.0427365980911074 -0.21639175536330474
Ni 0.4362993402766679 3.7612560277029767 13.282882755907153 -0.5605105164626539 0.8157254153407435 -0.3336654269765092
Ni 5.748285963669558 7.798381483147312 12.601525426256162 -0.475247079207459 0.8069702948559329 0.8855370368172426
Ni 5.065490521849035 2.203169465292869 5.749379480271311 -0.25310145207951246 -0.14485363811400215 -0.09978605635140234
Ni 2.6771675606845875 5.822415362210231 7.851808498897322 0.7521548896779497 -1.1018030652359607 -0.4737568678151776
Ni 3.1044660647308615 0.02641991245125681 8.93552939731008 0.8188097106930221 0.09893476409470059 -0.3535022591967783
Ni 2.80889495972767 2.750809930822799 8.83418889489453 -1.0151414620816581 -1.0792925428382703 0.16066103745990395
Ni 3.1482342964463967 4.889544619548518 10.668397588462366 -0.787183856257625 -0.11836253380200906 -1.5326492497305413
Ni 8.622755162641834 8.140642990280806 8.124130889594339 0.9907571197000227 -1.3691489430496293 0.6912200018657902
Ni 7.979114966536175 1.1082285351932186 8.147908902692622 -1.7156017515987936 0.6234318385772231 -0.9627161544024067
Ni 8.261251439003546 3.62371185547578 7.7155930871794824 1.090183478719161 -0.9631884660531346 -0.5015949730733684
Ni 4.738813923594302 8.595812383849067 5.069219505353163 0.11975478616384536 1.2363550643136385 -1.4654167018351278
Ni 4.9875843558855015 0.6435685202275613 2.636205715273046 1.4365480984298937 0.8618818592921479 1.1047012127193618
Ni 0.27626180722787014 2.234183066393002 9.409309708302962 2.528035640672459 1.5437934392728185 -1.3756548624889469
Ni 5.047148848428038 6.310215658743401 5.4264879197330655 -0.8279978049501934 -0.020443098345700277 0.12245804402762137
Ni 4.9339928531844714 3.1688089491466034 11.391985794135842 -1.0183365719801882 0.05023215668267478 0.34041482988520083
P 7.474057323968621 6.375532599964066 5.778417400116176 0.7113419694266458 1.3148467300626387 -0.5113829056980677
P 0.45393436305333895 7.651326473249409 11.172922256551757 0.6388162914530934 0.1070090564624028 -1.7237830018580056
P 6.856909635113831 8.599221582666297 9.262456861138155 -1.5381683797765573 0.27859034037923636 0.23730716535973326
P 6.283668016201687 0.7543408330636088 4.420100699180571 1.102186159606992 0.06630489387482129 -0.17503684656560178
P 3.50037420985623 6.969891035269721 13.448551439994219 -0.3523303503758642 -0.07815510834518798 -1.1601413959655376
P 0.5579287108015472 9.419864440813662 1.0911843789500997 0.02218733473031663 -0.8628341959030881 1.246693470125169
P 3.527877530772585 3.899691553798829 4.489068515576667 -0.025063113616214897 0.5351121309942074 1.2245920102404395
P 6.540019550984028 4.649301778907963 10.747774947769939 -0.23068477494720915 0.8293018684735975 -0.8293612609566232
Ni 3.070043264813499 4.002877250614648 13.090489996347667 0.18392720707669613 -0.20578415505078754 0.1635751257829054
Ni 2.7146963153195336 1.8847264038042764 5.125975773748677 0.1236896024418773 -0.6057693883004535 0.5995084949924062
Ni 8.820700045989378 4.552805830714632 5.402965366815697 -1.3306806117711019 2.2002243584838816 -1.0767708048576812
Ni 2.3059875935030574 8.54389331830366 5.55899088853403 0.25680744017619 -0.35662872064090195 -1.4414347370982334
Ni 6.406518633418775 5.184003829519675 3.839747546670978 0.9314697947936151 0.9276041411906218 -0.47013983988788066
Ni 2.0492133548242397 5.381663847197855 5.520566185422859 1.4576218883810574 -1.2977105846029846 -0.569340198939142
Ni 7.697199035232183 0.41431138628780934 2.2072127199548124 0.05679232639869574 -0.7768572775206362 0.10076924620027805
Ni 1.392515284003532 6.212993762553947 9.660126578806011 -1.149329392951698 0.253940145930724 1.6377140379823794
Ni 8.796458896448 2.586001357272908 2.008189022749741 0.8980194855549695 0.22578476654243052 -1.1252468980811976
Ni 5.4149655628680415 5.949180585077292 0.7353917525218061 0.016719883857842174 1.9929960147874 0.4051752620910377
Ni 8.279501220273135 9.767951910346412 10.542739666019768 -0.574574450754888 -0.8483825392541324 0.9845386495941367
Ni 0.8365760382799639 0.39581992866001753 7.000639986973799 0.5866360099051122 1.216553456206679 -0.0056068046638161504
Ni 1.486116629427518 0.390724508864455 10.490784762535313 -0.12469310400572718 0.24292631131872353 1.0024422693474346
Ni 6.51870976107256 2.251063654606615 1.2662756842425236 -0.6276327640324482 0.2163557599190467 0.002910488778575633
Ni 6.235038689676679 1.1865114589775243 11.808296753638285 0.8181494514012039 1.1780455299394679 0.4901597346532333
Ni 1.0546186540619076 3.3786538661014576 3.7447816027985867 -0.044829497609864724 1.6168130261636542 1.046296547528224
Ni 7.139505568338239 7.574081930776011 3.9729231660202475 -0.8143624735549458 0.440072588188855 0.30445640951272085
Ni 1.801665088146765 8.435295173769921 12.830070396022501 -0.7435656053470421 0.4710674939084726 1.5130073071298975
Ni 5.673182508323962 0.40676704065722885 7.2882137180399695 0.09420316294698615 -0.6423525867411259 0.5431434859391161
Ni 4.3759134392546155 1.6004856010696669 0.5436128325337258 -0.09706222966233606 0.8055973257678061 -1.8359517481444767
Ni 8.504168341250068 1.547445451277084 -0.1328466454472295 -0.3952711156034483 -0.531462192946446 -1.3312763363735716
Ni 8.442297355707195 8.075041183390779 12.809667581645428 -0.5487114669451969 1.1008376159988977 1.5220992421288366
Ni 7.166338076549318 4.5543771865037055 1.5659479359630448 0.4423467289350123 0.01842992457041342 -0.31539259680925036
Ni 8.899277024658188 4.511004091039224 11.056854199030077 -0.09739158797729679 -0.23073696834138324 -0.6727677086978736
P 6.397402931999122 2.6602594048255517 7.420917930652517 -1.1518105075023388 -0.5337404474576614 1.9513490286705746
P 3.1384202146760436 9.11298141197217 3.482734592471989 0.07450311341489749 -0.051632122353994954 0.3560124272131417
P 8.557024706739835 6.106738867881107 0.4920806329457452 2.4554605975182096 -1.8231445690774795 0.2655607608887878
P 9.366842669451362 2.4525004397076553 11.444424050336702 -0.4617462165075467 -0.7517810512782989 1.4952705519717668
P 1.777148262151164 7.75006458993709 8.062680770104915 -0.606610139034194 0.7013156955388954 -0.7304162124492776
P 3.57410847214585 1.097440396617943 11.770275457071794 0.06768840448590924 -0.26457911370180887 -0.08191431827730408
P 0.4459608810756841 1.2190045237153224 4.9173897792681105 -0.03572599264669976 0.03811506170416661 0.6487461489722957
P 7.845568102895218 3.521362377237772 3.5874649963529737 0.7942644172534902 0.9035733254936632 0.3997242662787954
