# total energy = -381165.2844460438 ev
CRYSTAL
PRIMVEC
9.28669594420815 0.00000000000000 0.00000000000000

0.00000000000000 9.28669594420815 0.00000000000000

0.00000000000000 0.00000000000000 13.59201822795804

PRIMCOORD
 96 1
Ni 3.9349123671177533 1.8299898670153025 4.834925074077203 -0.15705917904125855 1.078254331381743 0.5333095305678299
Ni 0.3811120710335058 1.3791579262671616 11.09773351064118 0.5537749975110334 -1.291037543458183 -0.8846291802909926
Ni 3.408663168700275 2.6352206979465795 10.575174845187354 -1.3221342648629875 -0.8113406560094866 -1.893759146071248
Ni 6.739104497559542 8.891807048235659 4.712447484768983 0.1467696241897924 0.525927636281462 0.871797318633647
Ni 9.09253898082065 5.6189525208549735 2.638876870135278 0.722933016698355 -1.041100090928949 -0.553226324096415
Ni 5.775832675245827 8.769984170990693 12.373534225855929 -1.6962989375051238 0.357526549864823 0.03423912368852813
Ni 2.7912093295278946 0.7553612737727571 11.400386931087395 0.11703121658509523 -0.657536493570416 -0.10159894119042502
Ni 0.7295191850008738 7.5530926827553415 8.05533670085642 0.8027110053589466 1.4090725187174442 -0.06305090571389788
Ni 5.11264185860497 0.9165290956757307 10.128717866893101 -0.690683669746346 -0.23800419142675786 0.6799883948160289
Ni 7.910862643562043 0.3017015341131138 13.058653717602635 -0.16346431123665395 0.20414301990293876 0.3330802438970005
Ni 6.123350123742843 5.81533827974347 12.416730363317221 0.09362029386032264 0.8639850216780798 -1.061388923084972
Ni 2.8689482611804036 7.3959432141824415 9.312135907523302 1.1408905181557254 -1.2686609755351956 -0.1791225865992012
Ni 8.207739739138127 4.030955376453585 9.383222778879228 -1.2104028632242512 2.4153182209713693 -0.18821889247351456
Ni 6.423115381753992 7.1730810851898585 6.279186453510862 0.06177820964906135 -0.43939793071933353 0.3370708531136324
Ni 6.870046910210405 0.749584948902627 2.8084231491087204 0.74341365315021 0.42594540475885356 0.6505153250575765
Ni 8.151406641610457 5.534740762137384 4.765647251088964 -0.9374756346680629 0.31205864734001093 0.1190132800121305
Ni 1.2243487050692978 5.170962309062235 12.967546587155026 -3.6853097423925303 2.2243600751898205 1.2197598789591186
Ni 1.5318962142720367 8.210358587391143 3.1418220337792757 -1.4452795647656207 0.48852477015297163 0.40555784224143704
Ni 6.46201735101601 8.28421568014379 1.528300405606901 1.0097524298556029 -0.4092494321604114 -0.7276502196683663
Ni 4.473420004166376 4.56995520838664 2.5950965994998194 0.40911779167855344 1.4374968354964082 0.8330646779501396
Ni 5.86406557330227 4.640515524083183 5.2554898154415355 0.23767637577369388 0.22148896738055404 -1.15722705053222
Ni 6.6723888739791315 3.7454916301787713 2.725145632001958 1.2164336427993632 0.99545863894075 -0.37372295711902737
Ni 5.054312121451774 5.789261237564489 9.786239379609158 0.00095696459663061 0.008763090904610714 0.3570696648330625
Ni 0.8258166498052607 4.307327447410299 5.246287628441838 0.9448500727552631 0.1412695203071696 -0.9736492563751425
P 6.499452022320665 4.179124610059579 10.783921196362254 -2.501938686475091 -0.007280078601181012 -2.4834725093501038
Ni 9.124104460295849 0.3404056967517663 1.6842825365010632 -1.1946821100548843 -1.590555378018706 0.03345185190054239
P 0.00938977825753811 0.051453867484636186 9.444712778658317 -0.02337749838367587 -0.7718238288617869 -0.2518395546479534
Ni 6.658858158005208 4.0178611351884985 0.1922169610843137 2.0310784234814183 -0.406577541755203 0.9284058111563107
P 0.8861133091569999 0.5815310419655672 13.210123442943106 0.3187707692528639 2.229133328208748 -0.09421139047710227
P 1.8418304043294762 -0.08775649055509631 5.576030340923696 -0.6215932427065876 -0.6095741067585244 -0.28931389744432756
P 4.241057585234657 1.7115287736979685 7.918695971581262 0.5261060708408553 -0.6421263296629328 0.6393701070740344
Ni 2.9531507332020612 0.5539077649137947 9.03067286985629 -1.278540953653069 -0.6123190164935132 -0.2640993458519129
Ni 9.124327340998233 0.662043909693169 4.147237810905111 -0.8048635329255751 -0.9042384698814877 -0.08551823357847853
Ni 6.198953115330834 5.022904515807433 7.627962954034244 1.5719097378930604 -0.12303499957701391 0.5467705411687422
Ni 0.5653916931041534 0.7111324557237502 7.4165931112583605 1.2732534800018844 -0.24729590114132893 -0.9511896418200458
Ni 9.076055095540136 6.2206561237255205 11.356185973126186 0.4827544433280976 0.2238196723962597 -0.8478531491132236
Ni 4.4874986352003265 4.177257984177109 0.2139236841573723 0.9631673830072122 -0.14539768354293023 1.1034251742204157
Ni 5.737961529232336 2.4728799663473082 6.6996007504010855 -0.09060027608707623 0.4945951447167676 -1.8970907815476423
Ni 5.1977172800443014 1.8780856652506797 12.451226724028773 -0.49556882148394654 0.4465525394862438 0.07717551804073805
Ni 4.646161835210256 9.062347932343492 5.905405300246618 0.6269899882421266 0.5715603465189124 0.2907398312575767
Ni 9.040895664738988 3.0237481956823347 3.4733719372896332 -0.16916444694522478 0.17914752629986566 -0.17365282173388158
Ni 1.0099653294632576 3.251587993694836 9.552239716184507 1.4730508213416178 -0.4775759844509517 -0.5140452830215791
Ni 1.3802166096034878 8.092046081208734 10.897427837399498 -0.5870335024538471 0.5929547530342885 0.020177503389139442
Ni 6.788045385124794 2.2936003013668183 4.501799218267069 -1.168022084265195 0.3959439733007568 -0.30262012763493046
Ni 3.4241348041241286 4.477719744383209 8.968761254081855 -0.47785520625426736 -0.4492002615217361 0.8331649509734295
Ni 4.441353043110813 4.253910372405493 11.355342741135498 0.84822595907161 0.9345764587433968 1.4404158089154162
Ni 7.844332753900286 1.3534430652295562 6.202826596204357 1.073793210286596 -1.1848455835804368 0.9799219767577316
Ni 8.021160731154547 4.203149292437435 11.925351779457383 3.2678944865918753 0.0769672586846739 1.9252657013199619
Ni 6.653341860621193 1.7482576561117391 0.8966899271547352 0.38497436166313054 0.5374929725215583 -1.2950690332150792
Ni 8.32927472880918 6.162716427801495 0.2460361500230048 -1.611187709557077 -1.7855385857992476 0.7704750281433763
Ni 0.2046880650523168 7.9006937115157525 13.152832887064775 1.4131891119889792 -0.36379592781330244 -0.5248007217658703
Ni 8.781230359765175 5.853998794911239 7.054203019225147 -0.579927230426369 -0.8324604687072373 0.33352890139864494
Ni 6.340083033419853 0.7466280649176599 8.024877266866806 -1.0864931743517676 -0.2022162351938711 0.34314842676628
Ni 2.720491140000496 8.704977299461895 13.122400384493366 0.22366900575100832 -2.400149997871363 0.6793242788694688
Ni 4.435846032422732 0.08043950282973357 3.45082291089548 1.5161769631071307 -0.14344055981655943 -0.6231796133571009
Ni 3.374460267580195 8.041461448463396 1.822526149494203 -0.6319403902688666 -1.5432069706417293 0.1265728375269433
P 0.5008454416936174 5.818700063671101 9.209257889981014 -0.19156492612761203 -1.4274407368119868 0.7940808404877743
Ni 2.023988945049098 4.854629585507174 10.904781043238998 -0.3612510499042617 -0.0913950040742297 -1.917980223402142
P 7.572752618044836 3.543413126683539 6.271493354600226 -0.6156185131803914 1.769021819091147 -0.7861518154486847
Ni 7.433210724960307 1.8669044833477264 11.469787338461945 -1.165923292754637 0.8207215830037544 -0.9992687567154597
P 2.773880354917504 3.9130329115003466 12.836206703918243 -0.7992973516917073 -2.5728358277062853 -1.19458543657602
P 3.7763234606752865 5.2138018373997115 5.003384809626521 -0.43001263284969166 1.0513837322431443 -0.8048257377091044
P 8.474927267817415 3.475917420644782 1.4103760833144765 0.29973380722607085 -0.10035555570162717 -0.4286900573835262
Ni 2.9713990907097876 1.7022049309815528 0.14785255727468946 -0.5878205171315167 2.13606196487336 -1.2706731208692181
Ni 3.2290863294499395 6.2157527482730615 12.343292100551139 1.3991256919173776 1.8193732749605054 -0.2797339670653763
Ni 4.545531198083677 0.36376823770962274 0.809549144539976 2.075903293105593 -0.09294152262574316 0.3635596434327803
Ni 2.4544087281371967 5.671394492786848 3.261091998312346 -0.4888901239121902 -0.06107475582413352 0.6741118814305939
Ni 2.6342084480899173 5.130778775761504 1.1705740922710834 -0.12755165650044484 0.6282372303856665 -0.3456159144701661
Ni 4.292877348539041 6.256261315931434 7.198768086139666 1.2740914025221475 0.9032673642174701 0.27223328781295697
Ni 7.25829580706818 6.535735143329666 9.72908533816104 1.0552995223577826 -1.0040198982472 -0.0685882905923593
Ni 1.4756095502240314 2.003641794260585 4.967202913603186 0.7293720874554793 -0.02379967352275901 0.9026086475875488
Ni 4.896521870859519 7.102502196101451 0.3346665186653668 -1.8275190439960913 0.12992529893894397 -0.3876002293217518
Ni 7.732883116012129 8.344709217449301 8.179146931030981 1.426287339933834 -1.1462247858844452 -1.338219086239992
Ni 0.5481388694004107 2.908203124887864 12.660530276959637 0.7675169739563169 0.056811095451773125 1.465840676746424
Ni 0.12718037212853195 3.3000273996797223 7.0815226213199205 0.8922363032142892 -0.23954736754416164 1.4032975639068799
Ni 4.072624781103544 4.140306221060954 6.839245725810467 0.25413657821224617 -1.4886185938728878 -1.6097255231892535
Ni 5.444873405596787 7.833476606354977 8.911362043861114 -1.3832108204593339 0.799296837471075 -1.5363935472643218
Ni 2.9618988007706504 7.882250333393439 6.937107998879513 -2.2619151506254593 1.5239267822558786 -0.22496072797923838
Ni 5.9526977992838175 7.0156994492186415 3.4677859896861225 -0.20832440497413798 -1.069440589744855 0.22847002668407748
Ni 6.967492210632072 -0.4557771063322956 10.254661251123398 1.5699703547785027 1.298299367226919 1.3631359040863298
Ni 2.0081829885716678 5.4456442013592 7.412733560428736 -1.2015163593678984 0.06793677305128945 -0.3113521081912896
Ni 2.226476063165369 3.270003511729351 2.956427079527112 0.9210234026493105 1.288574426629671 1.7118767373387227
Ni 1.169455045411195 2.0895808784216547 1.4719478060177733 -1.7181510003832088 0.5406145488696754 -0.6849411108356139
Ni 4.879406490255579 2.316557013712416 2.4725920787733946 -0.6530388628103786 -0.6416077381553015 -0.10855274680043885
Ni 8.329999091091928 1.953976544412584 8.681289724146396 -0.7490831927311615 -1.6019942159832667 0.8015144139476841
Ni 3.4833653507827957 7.480052819244772 4.246282280366385 0.9360335029048976 -0.46577667782317844 1.7438458340461516
Ni 1.4449263068624392 6.493870718065121 5.0929159877743535 -1.2203252645442855 1.379144106589128 1.621085685397079
Ni 8.682141314163422 8.098946096286719 5.875978546844719 0.7428744928172883 -0.02194282281967834 -0.21645037651538207
P 1.085763341665835 6.79712777374696 1.2348658882130636 0.6465540264169833 -0.23136971682937568 0.7166839504648497
Ni 8.3863043285318 7.737182856228962 3.298443089353606 -0.49598199776196517 0.31172851769410187 0.08352074353247552
P 2.9094103953591133 1.2720080285958388 2.5313230011908834 0.5294945276971139 -0.6180443490130646 -0.17394464194268752
Ni 5.717865119234004 2.996045981715134 9.072237334842209 0.24910930020098387 0.49114189606084446 0.6677201189716372
P 4.389607573373891 7.812785847816953 10.904781043238998 -0.7277674619725208 -0.09177655578336452 -0.06423515582998615
P 6.2675632248815125 5.945017701747487 1.3763273413468793 0.40191741727537234 -0.7831919614894125 1.0523620369960134
P 7.470153201380529 7.59088953520137 12.019095402880282 1.3264634883659607 -0.7283639579059391 -0.05354348044409488
Ni 2.494963729275234 2.7276604692605293 7.367091307258774 -1.8481976553913655 -0.7070603113321565 0.2494851954831639
