# total energy = -381163.72903749155 ev
CRYSTAL
PRIMVEC
9.32630055033255 0.00000000000000 0.00000000000000
0.00000000000000 9.32630055033255 0.00000000000000
0.00000000000000 0.00000000000000 13.64998357232328
PRIMCOORD
 96 1
Ni 3.8861668762607384 2.0351573409353008 0.19065383291771026 -1.32839747216388 1.272762656408395 3.4043380462653112
Ni 0.9413501524047374 5.841677609958347 1.385528275934623 0.6508693659628855 1.1277722356062125 2.628962495496524
Ni 7.288130877279499 4.781155988316698 9.564885102972607 -0.3437716621725757 -0.4475969215903582 0.032324937384950785
Ni 8.776878917882023 7.658823347756846 13.595301870819457 0.21777860840850236 -0.03468212476321769 0.48020519454368266
Ni 0.18349589719699264 7.296179474708787 5.102240933201773 2.7998580662002426 -1.2435724079976842 0.4446959458934793
Ni 8.556172013867974 1.5019540822709758 6.68793213815944 -0.19967058595388193 0.12311470377501377 0.006779999036310905
Ni 6.64943783237799 2.7447395967985995 2.4761346780946973 -1.473972818935255 -0.866882654940849 -0.681892296706961
Ni 2.047971677977993 0.8591210925272189 12.834929514446118 -0.18536805328828077 -1.8251600568456117 1.1962093453326883
Ni 3.863559923574068 1.5143487357860685 11.837866840067633 1.2056082700490849 0.18742802114110302 -4.500505510482048
Ni 5.327378762637207 6.818934019724339 3.6663580949957506 0.5472271690901865 1.198824414358032 -2.4058269936514822
Ni 5.332638796183116 9.164498623972534 5.161209266719628 -1.4176988269338746 -0.5375310248483453 0.15830050764752737
Ni 2.8669421137348383 3.275033049671571 4.692577582981635 -0.9503067249944601 -0.37901377320432145 -0.32643342800444425
Ni 9.118072299519461 0.7658133201511461 12.699262617314439 -1.4667176800347386 -0.20750293751410717 -0.625707007764645
Ni 3.3715602610193596 5.2616190170127375 2.67157476848716 -0.8080555575003117 -0.3801221757771518 1.651847134949652
Ni 0.7909943318070909 1.2911517095082645 8.318149900135246 1.2689399402281953 2.1249095478009665 -0.014289420039478617
Ni 7.080452815222246 0.2791184573852898 13.811463135914579 -2.8040808460323383 -0.516576276973549 -1.5252138764984184
Ni 2.407612482228565 9.219001524756735 9.229013308465126 0.15647836683712407 -0.2829560735470998 0.32675173057581147
Ni 6.326887725666564 6.321786239231082 11.148665348934607 0.12551868523081608 0.31844603892359347 -1.0674089040268069
Ni 2.6526143993402944 5.521561667706995 5.556225661826557 -0.8338730327840478 0.44168158454718776 -1.2453971199112488
Ni 7.5319297016121105 8.36349064319693 11.55578914749774 -0.7214466619608156 0.9688970864021377 0.44906296461292333
Ni 8.023295175725114 8.397139935809761 7.1766703933896725 -0.20318965485073393 -0.1594148237576287 -0.155256578614881
Ni 5.190030333504949 8.435359115723118 7.488872036940568 -0.5529298759019187 0.65385364540219 0.633948678948147
Ni 5.747453994862047 6.308654807967537 8.286059032354899 1.3711993978207544 0.0332253377120331 -0.8397516030520118
Ni 6.356470751211992 5.37842160589387 2.096637247208321 -0.1988393483018382 -1.261249256452157 -0.21844426701695926
P 1.7476647982293174 6.836057107650382 3.5127688459754687 -0.011898036989166605 -0.7987394223057083 -0.07039063390842071
Ni 7.292392996659782 3.4351189996990867 6.613430850970112 1.454809615743243 0.06569811352875782 -1.1011515476948908
P 6.041456295396123 7.680880048707331 13.24333661197364 0.9399762896027296 0.37158225662694067 0.31204502049325616
Ni 0.23199452564634235 3.9244233613765482 5.6610169081478015 0.46132121315498614 -0.4285794999475909 0.4072845951245566
P 4.435831055507561 4.67669209514698 6.319041508960583 0.5975701403191128 -1.5436448295100964 0.690115970168334
P 1.540882061030944 4.7936345785373105 13.322138256375768 0.7405754123704665 0.3228040587819731 -1.6220601334952063
P 0.8946636241645545 9.150462541549498 0.8700104811233231 -0.5575696886667751 0.784734623386184 0.9401179573869165
Ni 1.966254632004145 7.454549385423453 13.73379463703697 1.1978556226868597 0.4179850122611962 -0.7322339823843067
Ni 4.8276569231746755 2.4721877876751432 5.4155766549072455 1.3475233943600535 -1.3431342641534223 0.30445126730639827
Ni 4.6234482449455765 0.963779905379755 2.067549448225459 0.804927039173659 -1.6654752672560478 1.3892937934286202
Ni 4.190241581457192 9.020118164177836 13.815967739110809 0.38968410843397405 -1.4777338286395838 -1.2841865819746205
Ni 6.533856988877204 5.391329205942694 5.735845548488657 2.010547907628234 -0.15359770285521934 -0.010129632234834167
Ni 1.231146291362209 4.461916718322997 3.534595187300805 -1.1925437235556429 1.090355228410335 0.16209519880326922
Ni 5.183287418161523 2.7294444637927664 9.668543203769335 -0.2612832165593565 0.4144201777280734 2.9447438431037605
Ni 8.367855351883959 5.3706621237835925 7.50998864678923 0.3727197126654936 0.3082809254651336 -0.41036580515304166
Ni 2.661959352554834 4.529000798634557 9.872733229397209 0.7032589353081953 -0.7004343213752066 -0.425792424120757
Ni 7.981886401002005 7.0398181234500425 9.268379623353919 0.6512259779713558 0.49785530352527807 0.03955256548164156
Ni 0.10860663590215137 0.5108891518169126 4.623481819627784 -0.10624158216875898 -1.5124771456580406 -0.14260238018598023
Ni 3.9118421818491886 7.3356297263031 9.913914442385352 -0.017417167035182906 -0.716371047210121 0.4297570651954598
Ni 1.4932712963999815 1.2738794007724088 2.6796280290667553 -0.3962478776944208 -0.24687269756098132 -1.6208725409450087
Ni 5.474967469842884 2.995393252081997 7.617659854739867 -0.6769244111787245 0.04479350216560672 -1.3413972268576575
Ni 4.372300295729674 6.635299160648208 12.397283531865797 -2.4985098632992 0.6746438426746639 -0.9563513885266433
Ni 1.5439690665339505 1.988302006654017 10.78030631887071 -0.3935471909338061 0.39685542937143264 -0.5161373896639175
Ni 3.1267448699198956 8.220555759997296 2.1920648877137996 -1.0175472433096733 -0.04732989543421526 1.1094040175116702
Ni 4.814441555205611 6.691462142941578 5.7068258315002725 -0.7161766718111279 1.1100113120783657 2.013550184789668
Ni -0.31186216620857005 2.4252764955901793 3.764966004010369 1.7653700812711726 -0.3537305731575005 -0.9774444617515167
Ni 1.7274267258984284 4.306409981896618 7.564056941964851 -0.6662849291870074 -0.3063415423505756 -0.15901450299541645
Ni 3.2495629226966134 8.126089661085048 6.2514193011036365 -1.248730555159856 -2.5977277058519586 -0.2536976909026147
Ni 8.876754271149991 0.4045823816460042 9.895746808790618 0.057722551522448984 -0.8123822099001234 1.2128688082662402
Ni 7.579297982427127 3.8257417745870845 4.12364619929777 -1.6975250966027409 3.1666315885846297 1.7849441467483584
Ni 7.586367318292018 2.8178018358032926 0.1526575515890122 -0.8730975255023093 0.003360174721484536 -1.8449724635858484
Ni 3.8294256633293426 3.9046236251744846 11.70230812802307 0.5685660397772788 0.6748816697170829 1.11870112654288
P 2.835419217661841 8.363686495509809 11.708068983911911 1.878966561143106 -0.4086305676294898 0.015496295863386213
Ni 7.232107789495327 7.60233394494201 1.8093601420465049 -0.6735714355460917 0.2563145597001715 0.1526098850206533
P 4.290704491663799 2.8532044729314285 2.778768469846394 -0.7778936892049506 1.5359091514287355 0.17215258303927125
Ni 1.9679893239182213 6.123732919406769 11.555885208394058 0.5721303600897695 -0.8615635567207808 0.5349316395522852
P 5.012364306821338 5.078478451869113 9.811594665726636 -0.8039839585340993 -0.7818308194758277 1.280444084213053
P 6.428572381253515 9.014988698840515 3.272829244836645 -0.39290981446012335 0.5418430219601378 -0.18689220324229103
P 0.5889307027190537 8.142690476176746 8.426257578954585 -1.1056304094018508 0.5007079424827248 1.4049705807339288
Ni 8.77352144966123 6.507379621436008 11.45589887214879 -0.591804184369613 -3.9871443980116883 -0.07818184781806535
Ni 4.218640166824731 6.358298706132202 1.0609543619901074 1.1441239374913585 2.1355428591450965 -0.9880006400008081
Ni 5.106112280586359 4.387110461103614 4.119715163589259 0.10476885427797439 0.3337759844124445 -0.5947385844075886
Ni 3.171110081937425 2.5536157183299784 8.146528248879124 -0.1510520536152302 -0.858363047505612 0.6259708029489929
Ni 8.71014923699377 5.0361556996858985 13.706085265284758 -1.763519658325995 0.5132502979241096 -2.1577255658897228
Ni 6.951199615022343 1.4280338236098578 11.100712309071136 0.11174785669896883 -0.41266205738638606 0.2585673602900902
Ni 4.976709859576642 8.971854558503942 11.065700443938699 1.1330501961757002 -0.8139282142310047 1.6068281470368004
Ni 3.1185657042820205 0.8640080740485949 6.321758260329242 1.6536083406151327 2.9090157935745315 4.030008030144433
Ni 8.39040634676695 5.797069914124871 3.0174518182926047 0.8905203489644471 0.6146468932957414 0.7322231837510292
Ni 0.7992667604510993 8.142690476176746 11.531915683187782 -0.11092664634925412 2.673585533522538 -0.7786333955844525
Ni 1.949103565176263 3.605016217971808 1.49128759225953 1.4162600376048189 -0.7710082749390269 -0.12106836276894634
Ni 7.499987122011514 7.813126991404109 4.773154022390475 -2.417736857715191 0.25777751739894317 -0.6794577191235395
Ni 0.7628792659781979 2.793255012589053 13.19470181953534 -0.009988478671279572 0.4669591281670538 0.22644785404772613
Ni 3.3911548186079297 5.990413452139462 8.150009756898074 0.17391893091107466 -0.34791679468920084 -1.6583828791856405
Ni 6.119620020836298 5.486690629713818 13.309512310605465 1.636821608075097 -0.39211920023802793 0.8939448012649638
Ni 8.587890762253851 3.686807874350562 11.54305408401026 2.0673469188951494 0.07909921742601216 -1.0840519119001266
Ni 4.623625444657229 4.122150260679395 0.7564058807224974 -0.2004033503548484 -0.7018281163989397 0.6522320506383671
Ni 8.83103674554353 3.606872151793857 1.7523027675243181 1.1959146969104049 0.38243616862230906 2.0427818279612753
Ni 1.3266569359431464 6.65270203759265 7.137290089049959 -0.2971429065704431 0.6373769879034055 -1.2942413951074614
Ni 3.0375854360566246 0.796554672232748 4.264950845150197 0.8922262759119602 -0.3953883579076029 -2.8748460896713586
Ni 6.73482011449287 -0.3365638060129906 9.350457597161501 -1.3273050104306496 0.7711432578549945 -0.7850709236796802
Ni 0.8818726028733959 5.955113404318072 9.247986734432848 -0.6324900921247494 -0.18914423250126136 1.2448813566170946
Ni 9.395688289875945 8.294503997560254 2.9456803392927937 0.2727418520182593 -0.4942323620607101 -1.900713465901894
Ni 6.4363038844619505 3.645678888645852 11.59522447701107 -2.0036866617320266 1.5141517051469857 0.29670530481239227
Ni 1.050962163513004 9.142936216954554 6.524159501499481 0.038414338112140296 -2.0158520934499666 0.7978673041134
P 1.3759277820832785 1.8601959414295508 5.797912079070254 -0.9754040342827202 1.9079341520200495 -0.2855996818175339
Ni 8.143278033115385 2.735879611215952 8.770892365518337 0.08973458565267127 -0.32130227742546597 0.7287190272525127
P 5.756043517726908 2.1203437707373007 12.960413956568182 0.34747893582083383 -0.44957641391423214 -0.5074622304874228
Ni 7.117440923454645 1.296421069354786 4.905435472399521 -0.19129444607504476 0.41623923321468315 -1.3710980963562
P 0.7421832722871952 3.6412395695539153 9.445870315586 -0.7785238665897818 -0.7850752945550544 0.2712261867046813
P 6.314651619261897 0.8860582465886506 7.0215105953461086 0.6968643446357612 0.5948697106688142 -0.6160224334870293
P 4.412319451661399 0.7336814166480992 9.384868848534442 0.10020746015953709 0.24825337995859184 -1.178527611782209
Ni 8.367025311129375 1.167466310774509 1.6126768557822877 2.201153555166371 -0.25224090385143016 1.9742830117589287
