# total energy = -340897.25214266236 ev
CRYSTAL
PRIMVEC
9.02348854883639 0.00000000000000 0.00000000000000

0.00000000000000 9.02348854883639 0.00000000000000

0.00000000000000 0.00000000000000 13.20678759943022

PRIMCOORD
 96 1
Ni 6.390624035518119 2.1320427878305144 11.508394785903228 0.14893037928653707 0.17749610673937175 -0.8576621647838454
Ni 4.674906959225014 0.3068292882155949 5.947042877023783 -0.17660521949398617 0.00911558914802301 0.4085315801577803
Ni 2.8032279080259177 1.4696014279732217 4.7910130878591755 0.05520878396165976 -0.2542805599892782 -0.04858870754198084
Ni 3.4471259990547094 4.098910619015915 4.72804357584321 -0.09265073085820173 0.835443205484645 0.10500848109260624
Ni 4.954779477952402 4.68511252469705 2.592333642294008 1.5566525546236738 -0.17857545584647955 -0.09070903375079863
Ni 7.3586638797621955 6.359014755369097 2.63171665776943 -0.6568325255248558 -1.1077286866917762 -0.3868602658319337
Ni 5.195300563414052 4.693838238058198 11.505224834399845 0.47150355300462665 0.20047225591957088 -0.23153092499758834
Ni 5.590294748182325 8.013074334871378 12.194685225815862 -0.30247408897536937 -0.4271337686399999 0.9240071678679828
Ni 1.9632494123045103 6.518450773340282 0.47223253911927854 -0.649768676699539 -0.7616132068773721 -0.44102363924821464
Ni 2.649747392452209 1.6040514063404545 0.011361474346455222 0.5540138529947168 -0.06609020676085392 1.4295613826994154
Ni 0.5932122538820412 -0.15785690748700473 4.540770998256921 0.41224913821868353 0.21662932529540757 0.5009138878459437
Ni 8.509366201327607 2.345312938079477 1.3769265918777298 0.7456595117615932 0.4784185349569051 -0.007954478960386301
Ni 6.866865710569516 0.6758087556930792 4.636559840227213 0.2825022738391328 -0.6199940165402678 0.4465625667885728
Ni 0.6668863302830443 7.303232590023275 2.5821777060086175 0.29569460415969073 0.661037564745139 -0.3088586523454745
Ni 7.510141180893117 3.8449896531599466 3.8445484045732243 1.1424912869839419 0.06910662498967453 -1.0142297489006662
Ni 7.6489404807082035 4.002602926457963 12.63167111657942 -0.13275582640920364 -0.21547592841725471 -0.03196421161142237
Ni 7.960620796331195 8.629207151844064 6.760013169372642 0.4182341521575248 0.7142884536494795 0.5491943201188864
Ni 6.840120090711766 0.7398800356525782 0.30304844654204655 -0.6382172244165137 -0.18668522943780752 0.3644338185076175
Ni 1.6681903624635612 6.548778718124997 9.289073208088874 1.0224490514866649 -0.08673796491819256 0.030965595143578925
Ni 0.013472068302166346 4.890469075548156 1.3812849368140636 0.08677576013466345 -0.4572763536616512 0.4491138724555168
Ni 6.468532835063266 1.8706774439777023 6.954588456186623 -0.5719807218857826 -0.3448394413154577 0.4571987063461804
Ni 3.556986971311156 4.320103392151215 0.689320527344562 -0.8072603152925257 0.2562739362702232 -0.758723801144719
Ni 5.934703256525985 5.647684134921626 4.67685332569037 -0.15384838541344473 0.07984200912930765 0.7071258744627693
Ni 5.257436305094372 3.114348767363087 9.152752660559525 0.4581006493351595 -0.5969404771549138 0.3048559589439846
P 0.27865073838705834 5.550997455847472 12.479305001833117 0.33367699694073505 -0.03205908531807382 -0.4003040500416654
P 4.047810603747885 6.038148528472425 12.770065261761708 -0.7868233875944126 1.5976541938470161 -1.4578535447758891
P 2.2546088318682407 8.44486630566526 1.430493628896471 0.5796518652777952 -0.12361684022241291 -0.5010956648394467
P 6.306371723570813 7.742405774394633 5.737133976234001 -0.792918444748557 -0.6953458511087057 -0.5792122066372154
P 4.747509947543319 1.1321861232023533 12.567235287685287 -0.7831001731065546 -0.7430796668495588 -0.8326910966608045
P 3.975776095203884 6.155544113610525 8.137427931977195 -0.14706247283986285 0.35799063398543507 0.7307841373116576
P 4.732991154577354 0.9648184588563512 3.7798355545827245 -0.028171063117577288 0.19397919199605948 -0.3515767600392913
P 0.13002305491844324 5.542650729002526 3.7052040860538846 1.09278826333186 -1.3302625503970769 -0.38334839602393334
Ni 1.6577231158255752 1.115131729973221 2.6094105942443426 -0.15485677207330106 0.468093241771497 -0.8321812469039216
Ni 1.8436340490000784 6.360296090733404 5.007538010403244 -0.030785360811972782 0.4586665491409585 -1.005769791058771
Ni 5.945684842007389 5.712878839197013 9.195463538586747 0.016993706344519122 -0.5454415379446735 -0.17758558112938447
Ni 8.702676395056548 2.4604526510973224 10.18124446353336 -0.7312533636385923 -0.7821992585588399 0.2835499983773568
Ni 2.411599484461067 5.029069858616659 6.948605883323705 -0.5135377472575413 0.12021629918129619 0.42723404166329004
Ni 0.594993490508195 8.958095260000366 9.08057738559522 -0.3030165917424007 0.2530788263716932 0.13937153195350835
Ni 1.284240927596061 0.9756376215450969 11.370542050029801 -0.12262619417436946 0.8150237612880286 -0.11132722422178247
Ni 4.01862864200026 6.875257554856867 1.6530146595361779 0.850461019049716 0.5930727666693916 -0.02812092660593221
Ni 5.7410501702347645 7.888875039418587 7.839535506753204 -0.47753973189637755 0.11902099332161438 0.7237087185221149
Ni 5.435686296548488 2.7975972512137597 4.801869246850694 -1.129560694965203 -0.35728872282240404 -0.48357411101591563
Ni 0.8910866321290696 7.356552383457636 7.150220393501731 0.4310639569323415 0.06706439774866514 -0.9172706204750976
Ni 4.992073555844468 4.6441549104816895 6.952106094505494 0.2066752994064892 -0.5842024607629551 -0.1890997524165711
Ni 8.22367353252996 7.107639453708635 9.037814171334805 -0.8424016390803493 0.10022314388882093 0.3254137284906783
Ni 4.704287437719222 0.4102556108362248 10.350317567202277 -0.7300452022631041 -0.40401209502087193 0.6757342475253653
Ni 8.145638404146078 6.991065006022307 4.878771927430206 0.15297626722113652 0.6163175961299451 0.35892857241867215
Ni 7.1105089230456 5.899295087726453 7.003585998638575 0.5033142697573202 0.56919621716211 -0.5622424115520962
Ni 2.2000257500465366 5.291436809690865 2.6541418313424665 -0.0876843879918619 -0.6041123123130048 0.06214664873207361
Ni 2.342840502235677 5.310963638763797 11.40198710268847 -0.12034845388378626 -0.5363719715432375 0.6281701245931569
Ni 1.304931786683045 3.1941976169316533 3.7752398918993397 -1.2966983412883861 0.8082617599738467 -0.11343295771087561
Ni 3.814300768835989 2.70518770567961 2.6138474435304615 -1.332706383951879 -0.7809232200598938 0.9699697506410263
Ni 1.0531493875970788 3.323747841053691 8.334486482821152 -0.21785394173112804 0.07221637426324981 -1.413990781954668
Ni 3.7054504272894166 2.6064526947202635 6.895448512682003 0.3432427862522992 0.052960868467747495 0.4436181394482682
Ni 4.047918885609658 6.916530991169063 6.0292946815748465 0.557039527194918 -0.2512026923949029 -0.33518083517977115
Ni 0.8359368752307572 7.482412000790936 11.607352677028056 -0.07650934521164889 -0.5326155898245989 -0.39393439906989575
P 0.152351677164733 5.435776531433298 8.004659931862825 0.24061334691483077 0.0008574629042888458 -0.366778150370078
P 8.492555442287463 1.4318110582147001 7.951476393104528 0.0383793711091468 1.1067316128858296 0.3149814774137608
P 1.8355580268095633 3.208301329427491 10.33144494104422 -0.30636416805839495 -0.4646587621686514 1.3883910791086926
P 3.9250731134290193 6.080567947821711 3.8247517731947096 -0.443405766327146 0.9520615029020378 0.5358487520499159
P 6.9829438663893875 4.020108494111147 10.405588238846235 -0.26055816546787386 0.14531772223461425 -0.38056723373437035
P 6.338982610941228 7.692153967043819 10.11848610114785 -0.2478353185845667 0.9333276739379603 -0.2200895159298661
P 2.4683842974721406 8.449152462693744 5.842154749269227 -0.8395281741872961 0.3208281660025249 0.24162867555322257
P 6.913995390905895 3.999083765950365 1.6119938809014502 -0.3784987812411159 -0.05594026281104559 0.028781443008066565
Ni 5.186132699117334 2.71533913022076 0.7054617435394148 1.0128331256634557 0.5528995368846156 -1.0650229202931336
Ni 1.5649165367982605 1.199952521694831 6.999861102593608 -0.41006832851728087 -0.8029884273900494 -0.09284870580162075
Ni 6.7635377439733295 0.7599320317551062 9.187156515091118 0.6661900554803559 -0.1010518104377034 0.09150556151016499
Ni 2.6598446760624728 1.3824976936659132 9.199597198659905 -0.2148344381785139 1.5118744790770349 0.6358541235009758
Ni 6.39698559489724 1.8395825026720993 2.553030935866067 0.08027806822546174 0.7530534902328192 0.33701711705756154
Ni 4.081089229265896 6.810089921046924 10.383572731650236 -0.3065418312868398 0.5096816067362449 0.13378606744593088
Ni 8.172997621220537 7.186486696055808 0.29947875449895406 -0.12116966423350099 -0.21296935994531707 0.34578380750659804
Ni 7.524858490605665 3.8316890311389193 8.220459365933019 0.5452859862034157 -0.5305332533742734 -0.09851207473498519
Ni 3.0273352679405883 8.36473772795378 12.383225603533734 1.1788621123034921 -0.3613173843658229 0.35196551083727773
Ni 0.06444214533606911 4.899745221706647 10.200895816747332 0.19482919870118057 -0.4043273122684456 0.3168946352760736
Ni 8.575995640271476 2.001256345786577 5.6969063622367555 0.7108920263734209 1.075688884647412 0.0016701886135713172
Ni 3.751578500404403 2.959244023862794 11.41215657420658 -0.7508389990800037 -1.0840493407969654 -0.03803535750616675
Ni 1.0345880717916158 3.3020102573029084 12.505177148005904 -0.06421073034995392 0.43671472746021567 -0.06849778776108204
Ni 3.2708521515779383 8.301149204628016 8.237310730671329 -0.16489667280780634 -0.49971961042752644 -0.8212039219568116
Ni 5.565019956946981 7.955423266966126 3.4527692887507406 -0.1112554904435826 -0.45184798355722827 0.11792878869870013
Ni 3.098268910889905 8.269702347271654 3.542522319276078 -0.3902649206381085 -0.3923210318361889 0.8580159485788384
Ni 3.2548354595241236 4.338123298647817 9.24785481505641 0.6435905729132851 0.6903820793455272 -0.4471356656832235
Ni 7.3418531207220505 6.192684792198413 11.337379827513196 -0.005642800108074153 -0.4147384802994406 0.3690525482265515
Ni 0.39837709059980697 9.177970603817437 0.4562176517631601 0.7673048579455108 -0.15840643709777233 0.14237252356336128
Ni 4.30964516900171 0.4744965323791671 1.6308403389429136 0.2612032552510405 -0.8388272914655296 -0.7723565614368053
Ni 6.033727019116723 5.74277365653464 0.4839892422612026 0.13580309787595968 -0.07400637628413707 -0.18579974150906067
Ni 7.9176780146500105 8.748019424673686 11.39861953678735 -0.40425403582834896 0.5008688935406214 -0.6317948658299377
Ni 0.022990043951948706 4.733469399466848 5.854000784947114 0.09115383459770107 -0.8166026757393743 -0.006143393893576517
Ni 7.762040885329337 8.806617958869445 2.4107801517069904 0.9386753114031189 0.339791337368589 0.5638100131495322
P 8.685585907873492 1.6094654994290678 3.49783078552727 -0.822858426841099 -0.48418989022304354 0.2340164104236034
P 1.9060044013809048 3.1255017991256304 1.4577391500160697 -0.7289907928566607 0.39107121858948773 0.6073220774995541
P 4.610822144032793 1.165085762204161 8.274514573678584 1.312115704284721 -0.3738340287755949 -0.9332703383374636
P 8.459899437474641 1.6520563650594933 12.359162666801394 -0.32250838191842524 0.7411860493712719 -0.22153499012714106
P 6.240364905332135 7.839922614409041 1.1992513966398557 -0.5957724249887417 -0.5879156479484843 0.7559814625128916
P 1.8109329267448535 3.1450015577331194 5.943160069930399 -0.5402751632523857 -0.025006035126034352 0.16430429063944604
P 6.876972017668261 3.75234549692529 5.936939276971582 0.8251184265198693 1.5808749175061483 1.2592947038289473
P 2.3446000824894764 8.47586198859757 10.311344218103892 0.9569900505519067 -0.7630147152105891 -0.6448195602243797
