# total energy = -340898.8356307776 ev
CRYSTAL
PRIMVEC
9.00372428850160 0.00000000000000 0.00000000000000
0.00000000000000 9.00372428850160 0.00000000000000
0.00000000000000 0.00000000000000 13.17786060662318
PRIMCOORD
 96 1
Ni 6.265052435216115 1.8207961421792556 11.367709664899985 0.6017337847784991 0.9846306950873107 0.04360848071857006
Ni 4.702357052142768 0.3016832862967321 5.932857328209898 -0.4150716952691432 -0.1299607801625697 0.21303106642118796
Ni 2.7762623549595493 1.5877167327403856 4.747745726416429 -0.29790960953313855 -0.5252907740284114 0.2651216164688402
Ni 3.4855667469781206 4.296820308582829 4.8574380988502295 0.08528092075669184 -0.41295824847056617 0.23167927764999455
Ni 5.1114412630538455 4.689904901516819 2.6691225383482062 -0.19062878746658782 0.0068972413404655404 -0.1172700720687787
Ni 7.384962667542572 6.008374264540359 2.433094409220256 -0.5155928300143572 -0.07026259297098868 0.7371638155857562
Ni 4.938227616096492 4.580203525358778 11.481210612687924 0.7647707786697474 0.013368707997422137 -0.3724240358019457
Ni 5.536498080769286 7.751153136167297 12.534385240936626 -0.05051960601610654 0.8686816558228007 -0.42869725647237783
Ni 1.7932627534488481 6.4086528331432815 0.4381023137689033 0.16978279725551404 0.2370210015778821 -0.7931056210586986
Ni 2.8118900917830363 1.4836877028544695 0.4348816816077304 -0.8704019809480171 0.5985307044601692 0.31468580055021284
Ni 0.6116959178892457 -0.19837365397770937 4.620830129881128 0.48300204056252943 1.1833510013127815 0.6597754102032637
Ni 8.401537156749706 2.2715225777071204 1.4426730378173127 0.7103510662682864 0.6308065337747394 -0.28394749092609156
Ni 6.892846111676681 0.5952893315764436 4.860205843682056 -0.11967173953173582 -0.06417704889854109 -0.8235803926087881
Ni 0.6981415747039997 7.339953050059475 2.513057384581153 0.019002509244431788 -0.17897371972616274 0.13581955293619188
Ni 7.471299379294004 3.9329978194336084 3.7892011403179784 1.0915736741984685 -0.6398177361344142 0.09835806565562416
Ni 7.3835490828366614 3.7146214916810547 12.654831661604433 0.8499534832856781 0.5871759415689823 -0.8524726501631059
Ni 7.83773294847325 8.721628557258118 7.05367423556747 0.035149808428255595 0.4756276024753292 -0.34258484095332614
Ni 6.839381997130847 0.6475613530327075 0.47090558229784196 -0.7328929561245442 -0.1653800402021281 -1.1517637134248035
Ni 1.8995157032224064 6.482429349577865 9.07416937993278 -0.3683051285375657 0.16280867993052608 0.2522229061293011
Ni 0.14900353284447043 4.725262526613061 1.3590194358898378 0.013105169923390333 -0.18768024636122516 0.39704671944663233
Ni 6.534407849623858 2.0033106362780444 6.87619462406451 -0.3700285389865756 -0.020208613737391003 0.9974353030511468
Ni 3.348034859189704 4.188010301124693 0.34252327908360464 -0.27353246624035477 0.5510722538678896 0.3532973422748238
Ni 5.940135038514277 5.625860043865852 4.755217917164424 0.482917194158207 -0.10924103111671508 0.7565877286383228
Ni 5.3301867435003 2.9072755463971434 9.08523855851524 0.13769877223677576 -0.09183646248702249 0.4386042311734446
P 0.2231897187320422 5.449927272187576 12.372890841451964 -0.03947234706300944 0.4713803971632011 -0.12045335489276673
P 3.9873983213005553 6.171881896765409 12.653275818055507 -1.3735020778120024 -0.15761119488998665 -0.3250895123820401
P 2.150935698941146 8.512219938850066 1.3995812135976489 1.2262280031819655 -0.4407174208617055 -0.5494951391887568
P 6.286283216977496 7.646160707787545 5.812608989475403 0.20337708827119166 0.2436860723028835 -0.21952258768280258
P 4.671483281718777 0.9788218734626605 12.598456643011332 0.4129695613244759 -0.4219766499190927 0.2637288498863716
P 3.928937139800706 6.188106607848534 8.200398459057443 0.5055413593156262 0.023181323212469754 -0.17573901483894896
P 4.65199922246024 1.0531926356971821 3.7622133772766038 0.09967549891546705 -0.40663513446601585 -0.1249162757601268
P 0.2986067137234226 5.5276114049429586 3.629446260356772 0.04940374724410847 -0.43466787223351594 -0.32845225820668594
Ni 1.343976913799618 1.0739372163495233 2.6372592586300767 -0.07623783671781709 0.9385778665933062 -0.2744431509800822
Ni 1.9032342413341323 6.571512197222946 4.880183307029024 -0.21345349867058724 -0.742062281328638 -0.510089897918257
Ni 5.981948333891652 5.702796867509192 9.092816092836859 -0.24045496696009558 -0.04447057160854922 1.7059665425018748
Ni 8.54647910958885 2.436452798362323 10.194366831062538 0.09179918149118384 -0.03705473876045231 0.07107994666596146
Ni 2.327147586070907 5.212499063940077 6.939975205846218 0.03240798401706032 -0.32538647479716865 -0.02670399165374756
Ni 0.5033766134022705 8.916838302537375 9.048195436240993 0.9068427402735544 1.313391742783667 0.1638366069744082
Ni 1.3484607684718688 1.0876408846450372 11.278258564933429 0.4767051518102242 0.9751734063291527 -0.2464356100235627
Ni 3.88650258745067 6.895466195430948 1.5897641796328954 0.5203881945204715 -0.3168172450709189 0.3525692058595476
Ni 5.684636355714152 7.8752244562147204 8.066563500442571 -0.4684573099791352 0.47476602580598226 -0.4085680898226705
Ni 5.486113239914034 2.839387465616478 4.816192038100066 -0.7074079244795624 0.19803742122583312 0.027361936952720614
Ni 0.7791309746284243 7.487109919062021 6.912539057337619 0.35927207180101994 -0.47709107439473314 0.10151460900673485
Ni 5.058625416653397 4.589189242151763 7.145339351325004 0.4404870500184543 0.2291680811923666 -0.6284557741543757
Ni 8.18222444167604 7.1157152978257265 9.026887222451137 -0.8782710992834487 -0.8412207313983706 0.39733931098638664
Ni 4.526433284188734 0.4685123923944599 10.354002861863759 0.3828285189647213 -1.3684395756874304 -0.01808539674680111
Ni 8.049113382490184 7.181271414027852 4.474397160307596 -0.6454672211107076 -0.38253361343212183 0.8993366617044962
Ni 7.159077233772635 6.056580204129176 6.992265234750965 0.9276429648483572 -0.28769024579797553 -0.4821049826695568
Ni 2.3687357883422453 5.166535051687386 2.6639309909505764 -0.158345759063166 0.205629117530162 -0.12700863951278127
Ni 2.4453844928098585 5.13858749164187 11.28660051544315 -1.1671803050901899 0.4468070786992111 1.100234692307576
Ni 1.1171821038812921 3.3379146731422944 3.8259543426716487 -0.5454950168904283 -0.15636600962897584 -0.21359799466825147
Ni 3.752022962180111 2.8477879403337676 2.6994713916489212 -0.8375761926672478 -0.8918722350066511 -0.21662469730971723
Ni 1.126365902607589 3.392504253218312 8.133691666897258 -0.30265458041729165 -0.07727476262276368 -0.037075050475426474
Ni 3.8562770851720636 2.6680916119225584 6.896936503599579 -0.7031440069968858 -0.5148394967881005 -0.19462093934511646
Ni 4.094083449837704 6.800251811577429 5.994846168867554 0.37716617847262146 0.6919802770705825 0.694590718110236
Ni 0.680946262147645 7.234996636576689 11.124854912052154 0.5104771060543467 0.15282251525209165 0.4755355569821552
P 0.24875759446053758 5.507515092436003 7.813259025240093 -0.06889270920665554 0.4167843070848757 0.9733278684799819
P 8.577478932152223 1.7418784992027927 7.919406631440026 -0.3657635930626346 -0.7330215112826085 0.7360564414541905
P 1.8342927248172154 3.268883119382963 10.290156552895088 -0.28460055112905824 -0.922555780133437 0.3176903917044916
P 3.9906576694759663 6.150930230455515 3.908263688569873 -0.8942232517373309 0.5139516948665084 -1.4000240353619307
P 6.755296216439781 3.9709755282841184 10.435679245947808 0.4730883809932433 0.3755790364911596 -0.018666208950935594
P 6.271292016115452 7.829665611552895 10.22754825600962 0.1692140692362376 -0.47960458484520624 0.32686974421091447
P 2.5089057673334123 8.518909705961477 5.8706578004049925 -0.48751998303754107 -0.0401554891729631 -0.5242805875963422
P 6.872335627854618 3.967554113072361 1.6065264130532355 0.30583657768969913 0.11321981325880502 0.05873685171957626
Ni 5.276965729508985 2.8779234053699594 0.4504734308766797 -0.2679909675968352 -0.34909230305454075 -0.4035557242097437
Ni 1.6170598700433283 1.0909812663386216 7.099769702194088 -0.4217002563292544 0.5228875639035575 -0.6860094041991283
Ni 6.9623278516480855 0.767238855650294 9.170631679966165 -0.8902915207830925 0.22522580871516693 -0.6609439765900682
Ni 2.883721803781464 1.6381285847683622 9.094569117946673 -0.7059578222965972 0.3792773112783533 0.4447458252948083
Ni 6.160825323396887 2.0471857845067154 2.552735896940876 1.0171114413238354 -0.4740031794980289 0.40916355731482434
Ni 4.03460484749857 6.8497452837327755 10.458213766979352 0.5976773553209385 0.6548903141968204 -0.23228014445878709
Ni 8.109240252974702 7.0991034266002195 0.42895002807745153 0.02599848094629071 0.042077131675708174 -0.27173500802029976
Ni 7.529994657624131 3.9418754915356953 8.338792003255767 0.45951501318418275 -0.46514315800423767 -0.7334621983644529
Ni 2.9907760850125134 8.355348051390978 12.33147280956879 0.11902176465256274 -0.3537997358325391 0.15284256985674968
Ni 0.11557810697044633 4.798165681796224 10.088983641050707 -0.0002702229422511475 0.6559539795746444 0.5090496295792007
Ni 8.663518521003686 2.067822320468159 5.718308483632392 0.892391854955547 0.8923136934194438 -0.45273347148597515
Ni 3.6532701146996946 2.59282047726389 11.45975743893778 -0.521518965690805 0.09456491716177907 -0.3694618678498282
Ni 1.0325020773902898 3.36463772669097 12.594133955003002 -0.06631466406683417 -0.22796531913351709 -0.36928806127612535
Ni 3.255989786269181 8.308024476777824 8.026423997401686 -0.19282348112506145 0.4299666101031047 -0.04105588950004542
Ni 5.498934543233884 7.845728255599673 3.6481190840611513 -0.21234843853186658 0.3396069892719248 0.11993630604703215
Ni 2.96246837599734 8.31186906702893 3.5692896775822547 0.5912570536168914 0.16129789971295444 -0.1295856562113381
Ni 3.5119476590056204 4.395645185857176 9.321662851509815 0.0254588063927368 -0.3786839006687285 -0.6942374485358753
Ni 7.329022528830334 6.234457780243608 11.476045176090595 -0.5486201927829714 -0.8694923246495542 -0.8339409099075057
Ni 0.5018360761845554 8.947189856955363 0.03645517908127791 0.0007528190056245099 0.2331707745938565 0.48643600594474296
Ni 4.549824959768066 0.19084924162911496 1.6582888237174325 0.1488175078577566 0.6572421022584487 -0.15308913864991697
Ni 5.855941213132314 5.5350484811664105 0.43424781942113105 0.30561674836940916 0.54022374118916 0.12392871503587688
Ni 7.975507936816186 8.951250536588264 11.1485230019657 0.09320094693471691 -0.4796637202179159 0.8518936377311844
Ni 0.13301742045374482 4.7523367254071545 5.673187219968702 -0.30377609561624463 -0.15362778476220637 0.7097219173247196
Ni 7.794560090735414 8.803616470200922 2.454837502890976 0.5997522355720961 0.03504696430180416 0.6742509781116195
P 8.329120202675583 1.62234505617307 3.5341049239914475 0.3280966746394801 0.018326052002697473 0.7487435500035556
P 1.8282242146784666 3.1976906718056792 1.6316954237978338 -0.1588203847067394 -0.6538397614451191 -0.1957761359954822
P 4.79065657577884 1.0758279984402317 8.08801757456514 0.6845605875677435 -0.6272298721670747 0.01859241829020669
P 8.37566945700397 1.7771911056778285 12.38973230764563 0.2507679188503294 -1.3092075294989902 -0.09238770700480219
P 6.204016188583207 7.629143668971171 1.5497030089929096 -0.2236785188327051 -0.14345547221489488 -0.9993487180237756
P 1.8878288691569816 3.1774683071593426 5.977925469900564 -0.2916705706019622 0.05151513716015644 0.010174112319524415
P 6.968900570344357 4.004046207423029 6.046358275997838 -0.2841565216131042 0.01980263654822396 -0.378496981468903
P 2.409918823022718 8.551764295718591 10.128964678544943 -0.3030556725104523 -0.45644228779613 0.21399394455508952
