# total energy = -340891.97234669497 ev
CRYSTAL
PRIMVEC
9.05191127881830 0.00000000000000 0.00000000000000
0.00000000000000 9.05191127881830 0.00000000000000
0.00000000000000 0.00000000000000 13.24838713776745
PRIMCOORD
 96 1
Ni 6.49695489352101 1.9011819440373046 11.292382225771322 -0.22006354778793713 0.15292201694443341 1.1466305059632962
Ni 4.375938236070494 0.23864639509876306 5.979924213515199 0.4611903440040767 0.7523940022719493 -0.28485740433487067
Ni 2.7173203542638493 1.6843524651152901 4.599747643655645 0.07765400033905336 -0.17711738324371432 0.894731301722001
Ni 3.103284792426819 4.569902587508289 5.073522861192694 -0.0315885734395585 -0.47011875684195803 -0.4106833363934605
Ni 5.146455014262016 4.480741262995395 2.7184500327713836 0.5362853253667023 1.1085797218381617 0.00013524002628363804
Ni 7.266421650022836 5.902724084353711 2.4611929084138886 0.735693658798133 0.7707879313981048 0.3347622595851138
Ni 4.9078737929233025 4.894042472734907 11.20833432584902 -0.6472086292818466 -1.1780087631642615 0.6976390180182566
Ni 5.76310740726875 7.8554747660306035 12.530470041619573 -0.6009187450763716 0.14706658660492092 0.3583081652258539
Ni 1.7872093311498085 6.580567396518531 0.3265567454951402 1.7877407356568886 0.002905860792885318 0.22152007772880558
Ni 2.987293603359995 1.305176960290866 0.43047177993935964 -0.30129189574181015 0.30999225172928546 0.8828800588103698
Ni 0.5501968823423831 0.13598595553550677 4.478007585837742 0.7110504063281561 -0.6663152682043106 1.461955996980037
Ni 8.69484943209721 2.2389540074077217 1.475619015497269 0.06090017791948221 0.7793887856932384 0.14056580937192564
Ni 6.930994031631997 0.6627764061088098 4.675315713242547 -0.36182234902669946 0.1139788029120166 0.689730047583825
Ni 0.4676742294434753 7.414275566225232 2.1713706286180603 1.4243433288335856 -1.013883164194525 1.2494018701952674
Ni 7.514887558302471 3.82359061964646 4.005782055484105 0.5323970460558894 0.09558924466123538 -0.42026300966209557
Ni 7.939042009472535 3.6762436104666762 12.552448987005333 -0.07379811692807291 0.1321171643839402 0.29522023562643346
Ni 8.296963626991754 8.822354652106206 6.694780790241768 -0.9170973281220269 0.42728186418208997 0.7518728396611568
Ni 7.092805994778441 0.8156559433639523 0.41720891976917784 -1.29696239358305 -0.6753665797733014 -0.2893164685474888
Ni 1.6440533568176863 6.38038438214263 9.209854294394798 1.192943272986907 0.5237910495544335 0.3297452659864966
Ni 9.470562007270496 4.690437835956379 1.541873573734799 -0.8374450664060222 -0.35672256590628887 -1.4724103595441416
Ni 6.325022893744573 1.9006207255479848 6.888181207616907 -1.372329654770456 -0.4718563083583551 0.8288974339463273
Ni 3.499514097797668 4.125209350011345 0.17646700724658385 0.18454170073224346 1.0594523681838917 0.841907215942434
Ni 6.300944810170534 5.733136529556853 4.723672832817448 -1.26457832082539 0.04469631446611012 0.5179068228595145
Ni 5.068355125135392 2.8324697155966936 9.544668193211832 -0.5420381686900794 -0.3363709988331304 -1.4595949529470282
P 0.10679173179753897 5.678417726848179 12.647387241193773 -0.33401715388897313 -1.6103204764607753 -0.8554247908128945
P 3.9847961047479945 6.299034856924623 12.548288728655473 -0.40280007699064174 -0.6705794427973032 0.8500141613202845
P 2.6862179876621943 8.32624655945868 1.5747691239289416 -1.2720959693586738 0.6485651433097411 -0.027524173562197756
P 6.369132856622881 7.855248468252653 5.827581454589357 0.2744390372150241 -0.21411838594809574 0.188645695598288
P 4.789293757276714 0.9645535449182602 12.691782339272299 1.9902143382772046 -0.1015619173049025 -0.20091782809742173
P 3.9061349971320514 6.280351712376946 8.099135919888772 -0.5156159699428088 0.5377017460982546 0.14453610687358334
P 4.883496996282366 1.202220523234049 4.032080572855405 -0.46357915595122734 -1.265912466255781 -0.454112868332005
P 0.20079582875859428 5.5232046069068 3.552740240362974 0.01118635563412267 1.7743954246982345 -0.08350763090635295
Ni 1.4451376099983129 1.022847852518568 2.5706504280356963 0.6727918770675897 0.0697548000966347 -0.986714574199533
Ni 1.7858787002154535 6.859692127755036 4.5449781502447095 -0.7018885373232299 -0.8324962070411791 0.262979887535489
Ni 5.755186985040447 5.559330784178978 8.950358632417807 1.2048562223744088 0.8755868675830663 1.9861124002936892
Ni 8.740570635154532 2.0496875978402005 10.197177016539428 -0.13383877506073724 1.0360753840208479 0.5029401742473532
Ni 2.263195025381887 4.931734630630509 7.197517597401049 -0.8161573606718396 0.5761495085514916 -0.38247396383877996
Ni 0.4787926918697887 9.056527592730424 9.166559003517117 1.1012327945547873 0.4316869352283211 0.10910939063485724
Ni 1.6491405308660358 1.1551143777756638 11.461974306523738 0.4497797881742899 -1.1150871839393761 -1.4137316147560104
Ni 4.1765427379618645 6.747611364291214 1.8896308002595479 1.1531791057150913 0.6428148710895251 -1.3839474415150421
Ni 5.674688339467538 7.988012848621242 7.868362877080498 -0.8362870415421791 -0.5773245026961993 0.2534428945793313
Ni 5.067314155356816 3.1313457168928056 4.895822078460718 0.5510324017688897 0.4488351648728334 0.44271799623150204
Ni 0.8903441671901788 7.1599802271855655 7.026149531687269 -0.2855675430280179 0.18842483783673353 -0.42668331136614257
Ni 5.1188557372630505 4.878328355033954 6.8886310875994745 -1.4191689837214978 -0.7876754511820628 -1.2533986500594865
Ni 8.38747368626124 7.117300466263911 9.119606740547738 -1.857182632498795 -0.6204218481063057 0.01812550595611717
Ni 4.60312310131157 0.4896812357537033 10.598497116723074 -0.09052057188907636 -0.6089310738578868 -1.4267627369083555
Ni 8.18079139970257 7.383109836245749 4.682987207915103 0.2759719289197828 -1.2113022351100686 -0.7082715580314383
Ni 7.24652554938534 6.157834095394001 6.9653921990717365 0.5793986116164086 0.15832493312755958 0.5995892276316706
Ni 2.4543170767286098 5.2802694163203 2.571313027929538 -0.18564418976780286 -0.9704880850383415 0.29159189484522685
Ni 2.1717526192672425 5.264410468041459 11.450103630283513 0.03237018880058941 0.10931173645365044 0.430549222079452
Ni 0.9037337541160135 3.480007229338249 3.695227278463472 1.7585471448120684 -0.24923939802094497 0.1465305115957928
Ni 3.9655698455332344 2.64074118620506 2.6690329344045574 -0.04303023961759686 -0.8455792654773825 -0.2590759244953926
Ni 0.9148223452356373 3.2869209132789066 8.388798886048923 -0.24154871424490662 0.31207638795182385 -0.14108362954860865
Ni 3.6387958541712613 2.9166705928168897 7.213495125715538 -0.10179717324416017 -0.2760534328899955 -0.8015727779894454
Ni 3.8895881036082374 6.977891983134667 6.074954797197043 -0.0758467719269855 -0.7575871164371146 -1.1787060463416024
Ni 0.5731715379511317 7.325937965624082 11.266176943084536 0.6302342062110372 0.354413458157138 0.18125480245085557
P 0.09217561091520714 5.393753226007421 8.000806819795509 -0.44511837814287863 -1.1396810712286565 0.3416124497377278
P 8.337380410133893 1.6718246201278948 8.026468987815209 0.39815023692345625 -0.7028460161404928 0.471408165077343
P 1.9062781699967726 3.294153390262237 10.494378414278698 -0.9243650654280338 -0.29228994935351593 -0.535457173038452
P 4.057030355470115 6.008387042834827 3.903822233841387 0.748892416876594 1.1510360912301596 0.45710794640458696
P 6.671539103255037 3.8925299747216067 10.445439256818906 1.6541436442933126 0.7836563027203407 0.8096987495306894
P 6.53227545070368 7.630552878569044 10.226058949343821 -1.2118123419772677 -0.2449112029592363 -0.917493020898549
P 2.1304125411910615 8.543926918025791 5.97245186088724 1.0172921898760738 0.18854259436152046 -1.5973842280150812
P 7.058553563107701 3.944153023827904 1.624887745407417 0.672862582404525 -0.348616906080019 -0.8457240185853628
Ni 5.615126764310702 2.832415404129985 0.41239963939215246 -0.7732271369672167 -0.3898183200189932 -0.3557198356733874
Ni 1.3677256661166621 1.1469586058582915 7.082680527001779 -0.0766857228885131 0.9015246704947506 -0.42158507090762876
Ni 6.808757023893712 0.5619028138002585 9.114903367530793 -0.054650854575660726 0.5111828738721196 0.5352774529274781
Ni 2.7072546291005666 1.676359627598043 9.096859287908053 -0.1137826277408105 -0.504975459509827 1.1493386489230786
Ni 6.419036042616747 2.158319583168041 2.7232855636906512 0.5661574303357862 -0.9066213682913676 -0.3758826837745075
Ni 4.28044057377496 7.065251977335066 10.297361758411894 0.059156198645181984 0.08674747799988931 -0.27535820659518384
Ni 8.091602919456323 7.356623944314306 0.21707116494886655 -0.28906835709242473 0.387676591085642 -0.05652416033897362
Ni 7.254310192946871 3.786170019084399 8.293490408695755 1.3761914517187073 -0.12327976859796833 -0.04597003897221115
Ni 3.1915318739167877 8.355909672192563 12.263502027014622 -0.04924356751716035 -0.44504972968847223 0.46196990248257863
Ni 8.922034297338284 4.805722975955994 10.374917627680322 0.20380697671975864 -0.6714554176443532 -0.4449589697468789
Ni 8.357593327660522 2.2957004382068407 5.917140158000333 1.7534424765956513 1.1455087336540273 -0.011229035946600017
Ni 3.6850239642511946 2.6174777746316455 11.549308050181894 0.42980231661109847 0.33410637116866976 0.11298352887828284
Ni 1.416008560020395 3.049362557896534 12.824054295676065 -0.8567080284006923 0.8705349069814555 0.2680205352831901
Ni 3.0827460060999403 8.433566017674401 8.05561523642425 -0.1093526169939149 -0.46506525357845063 -0.08292347626810881
Ni 5.71826423958988 7.858633883010807 3.708951786100675 -0.5825325292597 -0.14304281015750847 -0.14746536470523636
Ni 3.2975750126648635 8.484501121535727 3.718278875316724 -0.07291160055806152 0.1905549968058589 0.15663289013711734
Ni 3.3371861757174948 4.705536423701304 9.353970676496546 0.4181909576244153 -1.888822113780947 0.5683148429984213
Ni 7.084134263927339 5.945358585719775 11.539212453711922 0.5779053149003338 0.014836807902516383 -0.20279756161863782
Ni 1.00272545410312 9.01173873651826 13.466720070853881 -1.1086311439013876 -0.6667713819051226 0.19225835265021082
Ni 4.779879769713931 0.3212134023621493 1.8658233688279378 0.5270077567195182 -0.2929964885022373 -0.5805214123669421
Ni 5.824461260826962 5.295965430199016 0.4058415297871178 -0.32027717859506133 1.2258176551174242 -0.49618742890455186
Ni 7.77681365841466 8.897974317586481 11.400475622387637 0.9152543613760173 -0.03627466606131816 0.07503841709307722
Ni -0.07786997058422479 5.0318578195073735 5.674085482187075 0.6855214088191162 -0.6247749828686788 0.4063687681785066
Ni 7.913597087319668 8.925419712096438 2.5244929228624833 0.2054666238103687 1.383565118474959 0.6150122470549602
P 8.594400374420095 1.8659881136102863 3.8046847980852796 -0.9613604117054604 -1.1197511650739491 -1.9532994675287263
P 2.2320564511357595 2.9553494090243606 1.673615993338159 -2.458110376436231 1.7156518881104388 -0.40074885088856793
P 4.564136520126085 1.065111225528791 8.047308297591206 0.9834965814828676 0.57094353887052 0.9861185924867467
P 8.784454300254888 1.506790176623421 12.490287702975392 -0.37126781071031545 0.7260553643774205 -0.08295330106477972
P 6.441195121033759 7.74807384061482 1.5941121527971245 -1.1241588072233415 -0.07693949077053201 -1.097567172777742
P 1.653639330691712 3.0457689491826643 5.880998592479254 -0.10026145332592411 0.7033754062814015 1.1429481720157024
P 6.8259828107513805 3.9432568846272162 6.093754711398142 0.23021374884806162 0.39070175106521104 -0.5107673836012558
P 2.461377567400697 8.292709228766267 10.146502607718302 -1.5656737842856778 1.2773415340283292 0.9574937296612027
