# total energy = -340863.45435408247 ev
CRYSTAL
PRIMVEC
9.41088770038965 0.00000000000000 0.00000000000000

0.00000000000000 9.41088770038965 0.00000000000000

0.00000000000000 0.00000000000000 13.77378541662939

PRIMCOORD
 96 1
Ni 5.109744873422682 7.437640820607805 1.988052802013411 -0.5194497418666021 -0.292815997060315 -0.3961766581368532
Ni 7.9129376924498205 5.849657079240616 6.056209119683403 0.5415144349761254 0.24752138688857372 0.29156618381361404
Ni 2.577369163216406 -0.2695202885270339 3.0059635648831287 1.1047091831391618 0.6299626977172055 -0.8090107223247293
Ni 6.081578990134085 4.497604286830548 5.0099800553176 -1.2193878403316805 -0.1392000393726506 0.38833685037746024
Ni 8.016400989331933 6.760301605600237 9.519090093173077 -1.1070116060200934 -1.238613521330512 -0.05512779421207925
Ni 5.066106588208714 5.23061831213051 9.356311854723874 -0.360379960153218 0.2844642826615101 -0.793350390079653
Ni 4.667028494013437 9.27726228212515 12.063507974990262 0.05031263221162303 -0.5394886627953484 0.4068307954165897
Ni 3.294610541111018 9.413710739601386 9.059941363146597 0.24263423399960146 0.5991997055027357 -1.5425713939402594
Ni 2.5721555315561653 1.9650780024246985 4.8301634050978794 -0.3409167092222838 0.7316793954324173 1.00187276999721
Ni 5.238259952758877 9.248502610006563 7.440075417197163 -0.10603923634996576 0.4816951488256478 -0.11698853627261789
Ni 5.912371233363084 1.7690680381295696 -0.23410994223102458 -2.312705236694133 -1.0616282927892877 0.1381857391755233
Ni -0.015001895721282186 2.789763482602654 1.569040565972063 -0.07220686118155306 -0.0513708982728083 0.3350795337152165
Ni 3.65417231880566 4.449213503442533 6.7241280363301374 0.6789910638997662 -1.671314242535328 2.427230399027923
Ni 5.3383823845879474 3.0155212622010725 8.853885276473658 0.02581053330520071 -0.5158360563734149 -0.15603048066642808
Ni 6.829010495043233 3.1600724937918727 10.510761419589572 0.7229294171539291 0.38455372918594416 1.1022558365026631
Ni 0.806623163850337 6.7058596215668524 8.733929399294482 0.9729033793480535 0.22909737585543127 0.9231967561515455
Ni 8.369836279281417 0.9542734006861144 10.123373529813703 0.11626811316682557 0.05918088123553033 2.1761027828453297
Ni 4.157240719581559 0.08557696415024617 5.208474493905696 0.2747077174953785 0.0628704142719756 -0.32492264778687263
Ni 3.2956927931704545 2.3407700412486783 13.164047270964822 0.4768676455300175 0.7450943832867426 -0.9526466859815464
Ni 7.660716497276315 7.95137175689102 1.4415089243768335 -0.7193003050417741 -1.2978741067640422 0.19401235922684004
Ni 1.81509668876177 9.10436545746459 5.37688608959645 -0.6854216500164583 -0.14039123146727434 0.9532400965911711
Ni 2.8035504327511256 5.334533331611344 4.885314028958008 0.9281566712599822 1.3909285008185657 -0.8438381144165596
Ni 7.6299993605632705 2.029975482440985 8.233789666700293 -0.1691366790310829 1.4411280044910924 0.5055166767252778
Ni 0.37882398217511376 6.633894565058074 1.1988181349476 0.2159122446237249 -0.15141303649907473 -0.01329903110175129
P 7.586624580198557 1.6335324367382478 12.495440418443783 2.848936054673816 -0.2838428470274273 -2.1648557491766005
P 4.11068505925085 2.1372784214122285 3.446697070301737 1.269772977652452 -0.3861395856158253 -1.0975013525368131
P 6.084910444299654 8.927854852014262 0.4275130906960332 -1.624290565487622 0.6078380979040242 -0.06380783848458044
P 9.325888337699997 8.329981170831742 10.109627987570112 -0.522860310210048 0.6532633201163589 -0.07943911726393416
P 4.710892640526764 4.058878123710007 13.387553966279611 0.8191943477259506 0.6180055253553292 0.14811585380504166
P 2.5442334284227077 0.29560538642569145 12.668590395977375 -1.1153478937999308 -0.6030720439739485 0.1308202999493876
P 0.28409398886827825 2.5619917730849373 9.602228696378974 0.02166514367825946 0.412076102975929 -1.1982394883888396
P 4.567781274719389 1.8153413718360774 10.976673754443153 0.023569302679507794 -0.12142857432184248 -0.0650522524146428
Ni 7.501446637677181 8.672650405511703 8.045075022374512 1.320839457310964 1.0465516009618232 2.1002806935086924
Ni 3.9742366017746127 6.730901993133462 6.358254376407114 0.4615438706887535 1.720854772467617 0.3917160512623383
Ni 0.34445259785616333 3.1865641420293795 4.161349513052428 0.22762721906780797 -0.6585862749911691 0.18392052220847682
Ni 7.1625323470990905 3.8873458777330856 13.123799728507507 -0.9288876358887356 -0.04747541987314405 1.1499117478177294
Ni 6.967369362676563 2.4938569477778154 1.722191466536019 0.9790339177258236 0.7250719174182287 1.232441331081529
Ni 8.95064802147474 8.42365714474156 5.9251521596406524 -0.9494832006519003 -0.19734862268892464 -0.16622027671523631
Ni 5.824482955249381 4.978604156481419 1.4506967738170744 3.3097093657451326 -0.14732266847978498 -2.4292831677918936
Ni 4.630514250616802 2.874753207374563 1.4110825840867154 -0.7622603535430679 -0.43119199786977347 1.3861994707740126
Ni 8.465987316596731 6.927326036477419 3.7318281389695795 -0.08608619026680658 1.396801414659575 0.3178816817796913
Ni 5.143821696963716 8.053498707751915 9.841907060727985 -0.25245816206855876 -0.4987379632405475 0.8854344498011073
Ni 1.0086589193946582 6.759238175315747 6.471337482464494 0.4580093751729338 -1.1737882973250109 -1.7916907214435724
Ni 3.510119864250948 3.610044667443078 10.450927938122701 0.11637249995517378 -0.5977627159458931 -0.11302235253601825
Ni 6.104852114855702 0.7711497646082562 9.889288055890109 -1.0759261974691987 0.22258734265105537 -0.542913115095865
Ni 8.967192361652904 3.152619070912972 11.699246400091425 -0.6616651710268089 -0.7874926457472954 -0.4377346840842977
Ni 3.045513760578669 7.500439672717532 13.440817707201333 -0.025535168156626993 0.08027112624692627 -0.24139341961396493
Ni 0.9722952501975977 1.871863162001074 13.275077862464263 -0.22329516735135738 0.7109534757389755 1.539357257878336
Ni 1.9543778233674889 8.576546422633756 10.643747611564363 0.29188602904687794 -0.6320684312062985 1.2185586595621658
Ni 0.18533048919036094 9.441096422148862 12.203532569706377 -0.188321736599966 -1.4142913439142224 -0.744223293535699
Ni 5.260648454058 5.049722233117596 11.557004600286588 0.6858775066069543 0.2238286712573242 0.9794506935482681
Ni 7.611864580402107 0.8687867810556125 6.326519922758198 0.019660197433088722 0.22249889670230713 -1.1226379997034408
Ni 2.3038040752533226 2.3894902056982597 1.9221596501024432 0.7416514190434647 -0.4011378587968705 -0.2838150791132854
Ni 5.651595541476295 1.9273685763189476 5.212055336589308 0.0479958111529883 0.18218605601587332 -0.0589944762563371
Ni 2.7678643474521474 6.090349937259256 10.283466842066755 -1.9754371799680301 2.6670492750659167 -0.6959009522812273
Ni 1.352137490397329 4.121121733458806 6.166179104164596 -0.6093329372819958 -1.0949053096748627 1.4018729156452114
P 7.232765800312771 4.486010073463369 8.591701715820856 -1.3732141142579382 0.2506941281896006 0.43325736503923445
P 8.459493804240113 7.145743323846617 13.121885553995424 -0.7551782498853059 0.27279790206717536 -0.2814126403193799
P 2.4195768129505897 7.863474067889843 7.646778031839523 0.6516931474157616 0.9762604687457445 -0.056591780352115435
P 6.261562213062082 6.008004671867361 3.5248629605667126 0.31565484933170157 -0.08539327796484003 -1.0381206965856509
P 4.027953947472548 7.005775194455342 11.444610371192256 3.3895002099215303 1.9100807660494072 2.496859986400603
P 7.611346981591072 2.4294300121351973 4.030525943019017 -0.5772440271672511 -0.4266604285480071 -1.072881497105604
P 3.482828290578206 7.662739838083088 4.2734134199964435 1.2324539294870194 -0.6513715024102846 1.2533760243516672
P 0.6317961661689926 5.264026962660936 4.502581705215207 -0.9448048213396244 1.5253432029874312 -0.09353647589726471
Ni 2.830823184648921 4.985436460787078 12.197403258694976 2.8493489738415185 0.2808518827199034 -0.2458072324109444
Ni 3.893302969503722 0.49701437686428684 0.8745594194317712 0.04920962895543138 -0.8705053392951009 -0.3660482141825889
Ni 8.063436604923783 4.681483617172517 3.5337750710039844 -0.9746805258531341 -1.0880119249891391 -0.8894512842699842
Ni 4.300323852726515 5.11540081679417 2.8592995890545594 -1.5572565067562598 0.15916259853750653 1.95688949887283
Ni 2.4628763062155166 2.0549990322326477 7.553007007966222 -1.7480431599569508 0.18277458152949166 0.26498174845686623
Ni 7.419571916658954 8.495386929063505 11.394583975561373 -0.1740048057566616 -0.5777119679426052 0.22471210230354202
Ni 1.3823182065243922 9.209729753616323 0.8576772283933117 1.1688798042797999 0.3882388913470152 -0.7491994065940517
Ni 7.89484055583855 5.493436166599017 11.586136002460371 -0.030709770379030984 0.43098656672718677 -0.016258627950707483
Ni 0.8186643943725005 1.184567228046692 3.33696141691863 -1.328348106983183 -1.822538302952048 -0.4895526971968536
Ni 0.8046666403446258 6.12772998230344 12.380015883583031 -0.2941488569391257 0.555669900540901 0.13155614967414764
Ni 5.596588904194509 0.29657564892419486 2.674868780706652 -0.8981069030624532 1.6357391736441957 -0.5650906796341687
Ni 0.7590868890449042 4.6877418573423 10.364855961291356 0.432498632496339 0.012168517041733882 -0.06214793428365427
Ni 0.3603297061124679 0.4127869339777204 8.35786374823781 1.0099591465497704 -0.02353022191145625 -1.0544338319233775
Ni 7.925021271965613 3.2692481993703146 5.93249359295862 0.6048435340520745 0.20313411902245018 1.266437742631632
Ni 8.414697979866922 0.5540904683014642 0.44945833919515993 -0.40118208177124454 0.8225043859357899 0.44439049883791854
Ni 6.162559676842342 6.831767885072928 13.000634738699915 0.0754816752780829 0.8970401523608357 0.5282285165004966
Ni 9.291463311322449 4.400126314381491 8.139467164821053 0.17401406172804224 -0.2342511521422288 -0.4165004572958698
Ni 5.9757723822711055 6.879292866813393 8.139480340063516 0.26719186873430756 -1.195961233877624 -1.1478486946411133
Ni 1.8835891277928796 1.8766909472749074 10.945820159861745 0.17880942623415655 -0.5071493272326943 -0.33343994122926446
Ni 2.0723715305084687 4.534796114125264 2.840072204857739 -1.482066394576667 0.07514768897743188 -0.03843927781280477
Ni 2.3803710557365747 4.869193178716142 0.5638203848601704 -0.26243764187877383 -1.0673058027900393 1.3001279357952256
Ni 5.973551412827392 7.976084747396062 4.241582034206553 -0.315381798175973 -0.15205838339255748 1.4603035489782787
Ni 1.5216558064549515 7.099620564339682 3.7362766654782367 -0.8566648338675827 0.007148952339955429 -1.1416441084922984
Ni 7.572884684487453 0.23976494451376626 3.9120438108181697 1.6195185980202753 0.17044279943701615 -0.3587141424150209
P 2.5726260759298336 4.766172193545278 8.903925788435751 -0.30151583882715816 -2.679618112869863 -4.561063474570765
P 6.7054831860679185 7.720437989182254 6.375224088699076 0.052853139245289615 0.4237111161116961 -1.989815560176889
P 1.2096001887258279 3.9283491144545124 12.725352163772945 -0.9280193743511695 -0.5129584777153037 0.32810207395611884
P 8.212203914102648 4.571131550659905 1.2956891051546247 -0.37365996509157584 0.2938200128447972 -0.6053050470695253
P 0.6270333160187254 1.8619440866041532 6.082613246667407 0.06084695608404359 -0.4296421368841504 0.336592113705001
P 4.478424898159841 2.138671232758286 7.231773892773079 0.9805778651741757 -1.1992003096402122 -2.3065939815900727
P 9.399020344255474 8.787011510087964 2.3234304810790136 -0.40613248379798444 -0.7101140105568158 1.9870148575033006
P 3.0051881077553237 6.551398725466605 1.6642175764338833 -0.512453255944111 0.5595874904277524 0.8583656186087735
