# total energy = -340889.39365323615 ev
CRYSTAL
PRIMVEC
9.09937611595581 0.00000000000000 0.00000000000000

0.00000000000000 9.09937611595581 0.00000000000000

0.00000000000000 0.00000000000000 13.31785672473382

PRIMCOORD
 96 1
Ni 6.476917778229992 2.118180089252445 11.440652061976872 -1.269045098347492 -1.34396524469515 0.29200018602723904
Ni 4.57516635182178 0.36997426660427074 5.919214281306637 -0.40896866769519885 -0.8142424030373139 0.3412897762909864
Ni 2.6377635694739556 1.587668258218409 4.817614680901166 2.448696282211183 -1.2074880035703013 -0.23787023695205486
Ni 3.7996174191803282 4.155703307895208 5.0491856156747295 -1.3192867681118632 1.103639604224067 -0.43680368762959615
Ni 5.273898350608659 4.594320538716341 2.648455336505361 -0.21185478672489966 -0.5087673224520916 0.17084209175796383
Ni 7.27725341163191 6.096318170040552 2.596995634298802 0.14815673434530616 -0.0021193603358479625 0.26212730972720666
Ni 4.890132159502685 4.454508623450346 11.416133792814215 0.5646168253215438 0.7519746553463437 0.7263307295259943
Ni 5.6951266735174375 7.966940630479029 12.523859093275465 -0.8111663352151512 0.371246984774709 0.34324638579672495
Ni 1.754923892094376 6.712819106135679 0.3182434029870431 -1.1368921956296096 -1.5039349125149841 -0.9189521219425786
Ni 2.7369922669015936 1.6056759237121547 0.4855518132449523 -0.5017726363018133 0.3305667334465275 -0.635220603682035
Ni 0.8320897265163826 9.176265925804842 4.83416917601626 -1.931596528633996 0.5015456078926717 -0.5971379378777006
Ni 8.71878568812745 2.6066528022566158 1.6880917037407055 0.054233821642900144 0.24048222065360522 -0.2934330618190236
Ni 6.7718376601490355 0.7783442610091523 4.8065880568257136 -0.029024926477440337 -0.37360468637360816 0.18029398119948303
Ni 0.6922405038079813 7.393197663133328 2.721783569526027 0.47368873358140345 -0.03762680921383842 -0.4440909653196287
Ni 7.542718612801457 3.8381259792457807 3.6525824190892027 1.5388700338292722 -0.1619455605992824 -0.6457312734053717
Ni 7.409494645902049 3.993734411589664 12.444458846518579 1.4234637544421096 0.4223150070951178 1.0241493220072233
Ni 7.970935256629486 9.00226765416694 7.095114838048227 0.6243204118297635 0.3088758787366552 0.271275551885378
Ni 6.951450246900448 0.6414605250033342 0.54177321901537 -0.12896422057725532 -0.4845989527360042 -2.028224756082707
Ni 1.9857932649631551 6.286003766241978 9.299779948364495 -0.3228349120199085 0.7217585367742796 -1.8412258520592224
Ni 0.21756881468171102 5.128635909000698 1.53855892488352 -1.2109065423335468 -0.4686930801390251 -1.520314382314272
Ni 6.556792102486736 2.1894464036268846 7.080705065902751 -0.7762666951244889 0.03573884816250619 0.4190072828781235
Ni 3.2025436512656706 4.599962151958444 0.3245001340600596 0.010390856316020814 -0.6205491177127893 0.02764810073457174
Ni 6.1270103659528345 5.586762202388071 4.808904758005455 0.13546216959677315 0.6694964941457695 -0.6395588260460727
Ni 5.173022666089374 2.966833410260119 9.292947226778212 1.4950378671356703 -1.4168102536813343 0.051959423786426644
P -0.18852269592345663 5.749186067503462 12.419248114827337 0.03903525952559084 -1.5102204884133799 1.23527442965495
P 3.9433693643395973 6.3099533243923265 12.611184896699886 0.6316282583450864 0.33529679193234513 -0.5742268376074819
P 2.2106661489181505 8.339569185119947 1.4305511493010734 0.8212561153509856 2.4855520175869517 0.5442200068327466
P 6.746131922392679 7.851788024706745 5.74529699411689 -2.503955459794804 -0.21173805864137726 0.7289411705656478
P 4.896110449664075 1.064454126894319 12.875743800000217 -0.2685851495374084 0.04059977579923331 -0.9361661718280199
P 4.168997496518938 6.142961572426071 8.181439315631893 -0.6478897145092714 -0.04409467632636922 -0.42638223518595597
P 4.681192283268533 1.2580433554842323 3.845038775342597 -0.029741750038806844 -0.7873545775075343 -0.4527905499761557
P 0.022619229350355173 5.513830702169591 3.712605544234702 1.2878732867975884 -0.5974220447770227 0.08614378297761939
Ni 1.7316931846635863 1.0788584394140763 2.700741262070602 -0.7056528894616686 0.10417621499929801 -0.6795821605165457
Ni 2.126933689153902 6.291208609426628 4.951059762642161 -1.741141804851427 -1.0795141719307733 -1.7627267301110545
Ni 6.179541064737772 5.937725142304073 9.262516182962782 -0.31362547760649856 -1.4038922600680854 -0.9008543839006034
Ni 8.649985304702383 2.5103996008453766 10.49008936731394 0.832841763306056 -0.231336292488279 -0.20478759546547312
Ni 2.377539608993846 4.99975234454723 6.925125751562699 0.30569105325077034 0.5430802368013485 1.395303232847494
Ni 0.4290920038181747 0.15483043567904434 9.181650026700572 0.5694900942534451 0.8544050912991286 -0.5339019127361901
Ni 1.7345503887894256 0.7984748109696442 11.483082453183204 -1.246488038982582 0.7796942327487991 0.021483880905388806
Ni 3.9757540442245087 6.746031829254512 1.4453066977420324 0.5399661166523991 1.0941486340144964 0.9794938880813775
Ni 5.742006659684075 7.751167122720975 7.893040956633196 0.9933243662065667 1.013005646685578 -1.0413348326475742
Ni 5.642832558513619 2.991529117258616 4.738653024076974 -0.44236781198093494 -1.1661624053486368 -0.38013246018979696
Ni 0.9174173069279544 7.461597674005731 6.997721484799512 -1.323882357902346 -0.46435125823056156 1.2506408848086912
Ni 5.441781841442214 4.72001932150088 7.135387767158266 -0.20919523761486553 -0.49285656475910605 0.0009145413944693927
Ni 8.329905647598796 7.278700212447223 9.220311456286133 -0.4013486892560959 -0.7695455743505715 -0.3579219855310287
Ni 4.468248681507727 0.2355118746044584 10.622868374717319 -0.07599769568255298 0.059427964249329904 -0.4251334503805195
Ni 8.414739131882875 7.306808185519572 4.674487862886628 0.3520968942088194 -0.38243205485725107 0.3939361988421087
Ni 7.62126442813345 6.183035225197398 7.02776671506419 -0.6237519409208032 0.34901825528349567 -0.2343786788590286
Ni 2.256099334269475 5.037997022702972 2.6744386052357254 -0.05606676108658087 1.3295436699531813 0.5198397782161691
Ni 2.326182729738312 5.431344856944324 11.408502145997838 -0.1493463837780331 -1.7821272461248532 1.0810290659134028
Ni 1.1882784381822882 3.128838704070451 3.850192662020544 -1.9274308272920806 1.0139847227693954 -0.35135770204994976
Ni 3.484296735827742 2.955286301866201 2.6655694432565666 0.292821910597586 -1.0830517527703865 0.08130316705586643
Ni 1.1262570900239404 3.2730274192871733 8.46549545230941 -0.11102383404875071 0.3044618088293595 -0.45353462723103183
Ni 3.8360968183538633 2.859260584859886 7.20203068848704 -0.6614882791293124 0.10554352766046984 -0.6088593400796869
Ni 4.287535070236485 6.662717940795323 5.754898655879901 -0.07557629187441822 1.0533120596141086 1.4282544909625337
Ni 0.8190776185547574 7.214531411506398 11.334095636897835 -0.11772541443864241 1.1166727832589411 -0.033216853071600855
P 0.4161754393066174 5.471655093496771 8.011609468229812 -0.18216882962469272 0.5630939609191141 0.4135362324612233
P 8.452055673666528 1.8749719622606142 8.32569809604533 -0.011838387395824773 -0.3307243420703143 -1.2355775627176657
P 1.9727174613681513 3.349025409284022 10.524569633537007 -1.549194298573416 0.10610659925279146 0.40608774660297803
P 3.931321790254848 5.964450010194488 3.6078608049564784 0.7204243913438882 1.311519979682251 1.2796802094638347
P 6.819936962726064 4.0846371797971015 10.345910661411034 -0.4855047523797251 -0.05409935294756489 0.877787731889127
P 6.262090605596419 7.980999166703303 10.212252654267031 0.2438781337090316 -0.36806447328166936 0.2805747177991168
P 2.341160302958477 8.188219260836235 5.750943157047092 3.424571085482735 1.4959794051133333 0.9861800418523017
P 6.815560162775336 3.853285539989884 1.308423871673834 1.135535424491399 -0.8881924721622189 0.6180119531132324
Ni 4.897475356093616 3.0662076977069086 0.568280611814678 0.9833590274637388 -0.918756718102321 -0.4271476525970708
Ni 1.737416692291462 1.196586168650095 7.114784959573154 -0.46151764543650836 -0.27435547636228236 -0.4820466186277956
Ni 6.669460578557256 0.7548323828538772 9.194807724681349 -0.0843093008720419 0.2051184964423306 0.1362468702815976
Ni 2.731732827459762 1.6176234046587377 9.285210027197952 0.7035579546058528 -0.7117024380898581 -0.2476591980180186
Ni 6.416252237124987 1.7511658497250395 2.3757988983273712 0.2554234153444698 2.194216718837221 1.9786508018093212
Ni 4.106548477679334 6.7274782011889505 10.431011667355303 0.7699250691771773 1.381499237084866 -0.07903493984698003
Ni 7.9805259991410615 7.379903474509598 0.12953507978916892 0.8890481352942946 0.2623782493957481 0.2445545909507659
Ni 7.793433725155764 4.095902207528914 8.4933695714135 -0.2275968800505048 -0.5651675556186911 -1.8297993553898357
Ni 3.211797716857959 8.469571972845639 12.629056981488297 0.47301304767061764 -0.5431167464662389 0.6183559667162125
Ni 0.017865715225073357 4.956348320087823 10.332233389049412 0.194418079305691 0.010875766372239333 0.39128230615902937
Ni 8.543995770760418 2.155041662226252 5.780189462081679 1.324976105187157 0.6100739292130783 0.1977242608607885
Ni 3.632234394037604 2.469052035406478 11.440052413085493 0.7814451540016348 -0.5791497288303961 1.0942465930449414
Ni 0.9676185654064763 3.332309855210242 12.629563816742465 -0.4312043391649477 -0.1460594854966452 -0.7549975013330674
Ni 3.4480812185639182 8.24774737991662 8.01652404131378 -1.6231178853357597 0.7091287638254109 0.2359892178792581
Ni 5.514149180336484 7.825772908159691 3.872726357234648 0.05270478659288342 0.31274641743565496 -0.9805356990823306
Ni 3.0600383206453823 8.367704456320888 3.5098150264344428 0.4642882662031101 -0.6021081373987824 0.5376001875233838
Ni 3.5008212030013866 4.368883493437135 9.367886959323357 -0.7921478851311197 0.8305964189153049 -0.6853627717540648
Ni 6.858764000958411 6.2319625710083475 11.425975678108825 1.250630086175414 -0.37433462256109723 0.5935813308746938
Ni 0.26273811812332465 0.38442862569311104 0.9572125187876549 0.5599618430480356 -0.7145820736304983 -1.0325786837214992
Ni 4.526584782306314 0.5592849685063824 1.7436006283549028 -0.5652215487850781 -1.4327523788328873 -0.1521242036334864
Ni 5.979955347234075 5.610839151805176 0.4414525964440989 -0.5315167003334653 0.8749672317211964 -0.7551060018864738
Ni 8.254362626411796 8.798832900531938 11.150815091601437 -1.6118096594117919 -0.030241572493360822 0.19943533001462427
Ni 9.170806300086676 4.760666234972613 5.886825961671247 0.7629195843936215 -0.7920985199504229 -0.8147154860189905
Ni 7.783369815081947 8.79651255960172 2.677448678881673 0.1441249874780937 -0.4172450487713782 0.4946241981824901
P 8.516615747783822 1.486273909255899 3.681601239718866 0.42531059938833204 0.8846014123768507 -1.011987489833709
P 1.6820014912520933 3.4466799146295894 1.3589144903154182 0.06454163132681143 -1.5296048064772625 0.6969810727192836
P 4.701520289692499 1.1217256006778638 8.039217885548949 0.3021511584183119 -0.9632902817383215 0.8664478813962755
P 8.723763046907179 1.3069889000475765 12.378295462315386 -0.22031705855963996 1.1653779617741282 1.1666133768431262
P 6.329844560758839 7.664713949473842 1.507781194834988 -1.4948437488469932 0.6231711287166686 -0.23662376613946343
P 1.9417067872889775 3.162861271670812 5.882178000309849 -0.9740390356143935 0.9991633414858471 1.6681438152271464
P 7.08734033102556 4.041032969061361 5.839547422827182 1.4137254441084233 -0.40146901688404407 1.8403740455818887
P 2.1687999190360263 8.305783201300708 10.081311720855435 2.0143135453182537 1.007381358520265 -0.358510253934331
