# total energy = -340866.3583974592 ev
CRYSTAL
PRIMVEC
9.32774682834439 0.00000000000000 0.00000000000000
0.00000000000000 9.32774682834439 0.00000000000000
0.00000000000000 0.00000000000000 13.65210034638089
PRIMCOORD
 96 1
Ni 3.9582200500125544 3.0429348899026407 9.374146798576966 -0.34266248826879697 0.3153895114854568 0.20838688278095724
Ni 0.7822472378211635 7.899491583990258 12.0628595689006 1.1709323159334546 -0.318510830723258 -0.5400661325653731
Ni 4.540402042197015 1.3196429862578352 7.576451189371572 0.8071518147391195 -2.58896178673387 0.3457285287886304
Ni 6.138814070952123 1.9744881264398115 0.7660710592258756 -0.7909281537914057 0.4561862059212659 -0.35351357205068795
Ni 4.156854419281758 7.597748300990049 3.9016342064936675 1.9285896234868722 -0.1924876950521975 -0.9144524343000122
Ni 3.9427733012212984 5.115765451430746 11.996946911301775 1.9367153379178 -1.6259031613903807 -0.6032368516865869
Ni 7.777661882322024 1.0904789015334493 12.56726307671247 -0.37640230372340333 -0.35492253658307266 0.1229882054994785
Ni 4.947576847895032 5.651952323875059 5.164480542153701 -2.0103771863783244 -1.8693223531851224 -1.0370966261965107
Ni 7.698450656032562 3.3888730375000558 10.617948673483914 -0.2919845022979552 0.059991035841651524 0.500072622891571
Ni 1.1905469697898485 7.746488552333872 7.42621010355884 0.67876300704936 0.5004873418314865 -0.9779527688465028
Ni 8.889174853012648 5.658798890066351 13.470022005571309 -1.7321951371811006 1.5194672038226282 1.1846740909995792
Ni 5.917177477939418 -0.03913736025262856 11.598619473495368 -1.3039863903093671 -0.8366912189591332 -0.930233865503985
Ni 6.184715913223725 5.794564245535395 7.019541794515028 -1.3669123404096264 -2.739724848353772 2.3996805144341122
Ni 8.706015215775265 4.7559942552479235 2.174970322360916 -1.3435397271219571 0.20591528131201312 -0.893035916297449
Ni 0.23815509991755734 2.277201495112902 12.027678106089018 1.3834401628613207 -0.5388482009978719 -0.8688904293994971
Ni 6.64357576424321 6.308961501327307 12.441159401435446 -0.23741720857503631 -0.11907061561262719 -1.1917430820312185
Ni 6.363752686351365 7.404981084492403 5.465522378590443 0.11501778569949224 2.2750750850461854 -1.499833488752101
Ni 5.946485258556645 1.1545698501715662 9.657495764779858 1.3082793612577663 0.27451591319954655 -1.0450675602171293
Ni 8.843860658792888 7.296023673483548 5.149818256872919 -2.9529274073558174 -1.0046619027065729 1.6101800942281688
Ni 1.10111253294772 6.898484430286356 3.7965403482319973 0.023575730437411013 -0.785876193189795 -2.1579433383274833
Ni 2.2652806346326937 5.9696926927309475 13.059490143780314 -1.1406017832707132 1.4595610143852993 1.061038738834405
Ni 6.731415156373198 2.3099791975600485 3.1060576184172475 0.9037605018038048 -0.0256359554005494 0.3041265369771278
Ni 6.167226387871306 3.215843333346793 8.331508045111509 0.5788802772190934 0.14772710300705524 -0.7629607220442022
Ni 3.447805742127566 7.86923237319386 11.846678775023165 0.5860911931452358 0.7563172485857556 0.3401356080818852
P 6.087968522847571 3.6867359778087425 4.902346603396964 -1.7589176407776095 1.7909684985655674 -0.699725211123324
P 2.9696934216001383 5.67951581583047 3.578037878162446 1.3306736697925663 -0.00017714900781259815 0.7192414267793806
P 8.51779061199582 6.045844418052092 10.967755970476627 -0.9262743666356047 -0.8102314821057077 1.1213581045497527
P 5.6964923151058855 4.290576998189638 10.134773251963798 0.06862222915408826 0.5236354978131756 0.48612618801380797
P 8.933920054674276 2.6895252170746717 3.177990403836046 0.46628575624911306 -0.2142456555545794 0.09183414849417733
P 8.426210793377129 0.868968233103282 10.386026374014618 -0.568504333301408 0.7964940779149572 0.15403479039263793
P 7.040518031641706 1.17590240722809 7.545174321393335 0.5989068568526653 -0.07995539477872035 0.9086725943934416
P 4.852433829977874 1.144150756934952 2.6888358965821153 0.3872996673621975 0.23447432389662845 -0.4195472145419935
Ni 8.658984716134254 2.9399658923744534 8.448247595321176 0.6242265665643765 -3.239944795456485 -1.2679287253548615
Ni 8.026078436554352 4.678965721722444 4.719804463001356 2.619056035016089 -1.2450564487423783 1.7018077831384948
Ni 7.436257019695955 2.516252991503189 5.9223627724159025 0.8394834369922897 -0.11508540571263405 1.3637084887603483
Ni 2.0128904602402957 8.703412774402825 9.717059957869427 0.13535341193305075 0.042305959857062626 0.0246224265343705
Ni 2.5171577829480873 2.817529887160668 11.65531724997651 0.8241367793328903 -0.19019838479738857 0.7682960182141865
Ni 2.9118613911014735 4.321806294658917 1.7711143289937734 0.22984839508884286 0.7929133025422345 -0.2617177329936137
Ni 3.826987979514859 8.129336594235033 7.5443693368397815 -0.7913223039060308 0.25771298270959486 1.1055699884775605
Ni 3.418339389813811 2.0826620067128783 1.1996126069578568 0.3192546508678179 -0.8925666899705144 0.4885849339669457
Ni 0.25984584245329845 7.10181998397029 9.527691772325605 -0.32331982207612703 -0.22452312622118753 0.0365330619290274
Ni 1.1087985963559297 4.494910620787016 3.5912534299060765 0.890656360321679 -0.2201262827050725 0.7216891169889248
Ni 8.025201628350016 3.278357892766479 13.451837563078222 -0.44998830464067024 0.785448361623757 0.20917492589989134
Ni 3.7494464199123754 0.9514115236778703 10.600336954647702 -0.7636934864451687 -1.1620519827246891 0.4204429868833856
Ni 0.5956978973768097 4.604035931239255 11.964059141441744 0.964098893682546 -1.0391943892658038 -2.98953451705589
Ni 4.874978994125499 8.513966235785425 1.3345925661417402 -0.5536356437196918 -0.11202039363406516 -0.21871217596636525
Ni 1.7224337509341798 5.665943944156994 6.0486856497440105 0.159759351581241 0.15695479225291034 -1.473090673440618
Ni 4.613839393183465 6.051795520545342 1.908495250218037 -0.3452587882410635 -0.638917592917648 0.9362124516849232
Ni 4.096214736979852 3.233416808420903 6.856221342062744 2.058281209148455 3.1720489029454595 -0.32653241547615375
Ni 1.248752110162698 1.863012223780208 9.6216455025188 -1.5687369965920337 1.1979936909266207 1.9308804764035774
Ni 0.7164446476352231 2.605090452546621 5.078745489714117 -0.36206686093733775 -0.014927310733793648 0.3098045611985116
Ni 7.914098835564598 8.204257056971366 11.296744669264509 0.4077587065474978 -0.2818944650518048 -0.5147410235370232
Ni 8.530784163364311 8.651494535409991 8.264285771854295 -0.530960313609363 1.3329159288595238 1.4071992129541313
Ni 2.437526808050168 7.965597325948973 5.209300365790167 1.3205931456281128 0.035527246372332365 2.216668105862202
Ni 8.039799552177502 0.5256176024833391 1.6457466129435796 -1.443892197499791 1.5059704548877741 -0.7881364499788814
Ni 1.794714461310656 5.519433024311424 8.337720324516688 0.24632685235984028 -0.7938723240213941 0.29507368274624024
P 1.74509084804406 0.5652642577142301 11.915007319057338 1.2589959416416059 -0.6278394807266156 -0.517909908183308
P 1.2262629124962012 5.593495334337135 1.2196224895103949 -0.7752953323501551 0.6002520580266502 0.794969927960947
P 4.764836959266106 9.054583787985683 5.828546160101473 -0.24243625905618246 -0.47505578913225927 -0.8651433036522391
P 6.543227863581172 9.061896741519709 -0.0525581224270606 -0.25021076079527876 -0.6111566207542958 1.9001326536977596
P 4.02323444558928 3.2432016148714036 13.260558122203888 -0.0953755859885325 0.5659301448163286 0.27754801515765104
P 4.441033554954712 6.6642460512730555 13.508562390025244 0.21086388356654007 0.4048209640754125 -0.5523763173912938
P 2.0814400718749226 4.092548932465985 10.021501758034681 -0.2262092556743588 1.084422407865668 -0.3190813585147472
P 6.733607176884035 4.530253453619185 1.0091250917914811 -0.11713200382901763 -0.04421963194000771 0.38166149523981363
Ni 8.401809407605434 5.01164914103944 8.581901148902332 -0.6617317625986862 3.0837721327852377 -0.09865040008506236
Ni 1.977668888117238 2.8718640125888486 7.350372723306696 -1.338365382009869 0.4709679922161308 0.10223014701652071
Ni 0.11433392429585998 0.908227786839706 6.867034066216623 0.6093290806272539 0.7739704428911445 -0.4249316187823585
Ni 6.565418573348321 6.788323739933254 9.551309627361512 0.286109788684733 -0.7329621187995828 0.7852974378681895
Ni 6.271949001808162 8.404831597586332 7.843227547737857 -2.2408387895711344 1.5422705748703889 -0.24387119173049612
Ni 2.988712697436715 0.03706380212684579 2.677531600168997 0.12027440611274126 1.4987433410117155 1.4955014370356503
Ni 6.631804147712676 5.56895403236262 3.339727004872416 -1.9080341679330235 0.7938391567906135 -1.282915685681997
Ni 3.037599418701796 3.7987995285201874 5.036915208944558 -0.8653523343392516 0.06608532166484747 -1.602922641334807
Ni 1.0954599183538183 3.538760601706998 0.5607067206010611 -0.3807875772752926 -1.4936489572079437 -0.6255702250764646
Ni 2.1408298360983093 6.3209010173012254 10.561332981175093 -1.1429304314038897 -0.8590269063418562 1.2611829219905957
Ni 1.8979912744850456 2.2427914369661965 2.858831284683569 -1.624464372061325 -0.039987596136531134 0.7068697925879052
Ni 6.648948546431472 6.763595883021648 1.0748903709900028 1.1520632469430934 0.4928614498551125 -0.4143201618150993
Ni 4.643809443827369 3.5262614209218026 3.0618655521440985 0.5803465773519747 -0.09241393225704729 0.6154585905637594
Ni 5.281584807265385 2.695187159415428 11.684723904710395 0.7988612925955532 -0.15014085465487045 -0.6740509462856713
Ni 6.617262190366317 8.306144035864417 3.0678455706525973 -0.2262244251830104 0.4400571615698872 0.5916218931554778
Ni 2.659182056556582 1.1206448348613012 5.128029572995205 -0.17399529267496486 -0.018509885878729412 0.1231805240159427
Ni 8.249552595697418 0.8624052304163689 4.50014162122309 0.4969651876108409 -1.0025610543134864 -1.0762982360966367
Ni 4.974291514886673 1.766115589454381 4.8905647263448895 0.25139912467642506 -0.2482883469615853 0.07582646021201134
Ni 9.144354023714579 8.058464373633605 0.5276221352823977 -1.1115051230150728 -0.8634052379152097 -0.6884051581248144
Ni 0.5542146087902433 8.916309268612748 2.4403810985876833 1.377636668805666 0.07615093343096563 2.566232206346838
Ni 2.135065288542152 9.136220228457347 0.4925544709824412 -0.18195054296629953 0.9227172454119658 -1.7196077874343934
Ni 4.396223059065102 0.7470219345993638 13.136883392207809 -0.9089345898055765 0.14714911901639818 -0.3297606926054643
Ni 2.409478273258316 7.337149709365582 1.9249055552593757 0.6876448829200221 -1.898553739246414 -0.9963731803352196
Ni 4.183382531336307 5.901450896742523 9.798658154578986 1.2394470729754008 0.5123470693835499 -1.8442533260316365
P 0.673779533522176 -0.3283702691714178 5.095059718962853 0.1360684357222044 2.2155761583496036 -0.030060309720490164
P 8.251725960714545 7.003514859869415 2.642500314081774 1.0779249730667821 0.6486736438631474 0.5183403108525073
P 0.46493221422184516 1.3564782585867428 0.442040990665914 -0.330883750466314 -0.19004514704897593 0.6901231692571856
P 2.462599791595396 1.0120698614734858 8.29113942227407 1.416538488077186 -2.248724362966798 -1.474273123784493
P 9.635749055762991 4.129710675934804 6.621992290796296 -1.3116837589536248 -0.0036838766094904295 0.614909917149141
P 7.758362774079808 7.009354029400409 7.179598468342881 2.489099625728894 0.13291137815046142 0.04653208212326825
P 4.736629852777726 8.28934476377924 9.935316175422015 0.3423261879753008 -0.3758549158603656 -0.4618138365206886
P 3.700447765685039 6.017245546195817 7.088553129618959 -0.052865737650779926 -0.8178306346092044 -0.06388265758657385
