# total energy = -340885.9890931886 ev
CRYSTAL
PRIMVEC
9.13572674918582 0.00000000000000 0.00000000000000
0.00000000000000 9.13572674918582 0.00000000000000
0.00000000000000 0.00000000000000 13.37105955084837
PRIMCOORD
 96 1
Ni 6.762922873251451 2.2178621643038077 11.285041031067085 -1.9790547221159591 0.08983588711722591 1.870567024225501
Ni 4.53177736193775 0.9139838044049233 6.162213195841677 -0.2980211954103384 0.0694570663505578 -0.6772797376356142
Ni 3.263418708486228 2.2398975377480044 4.307607634341702 0.2114117856502101 -0.4137738023933261 1.3031266134122332
Ni 3.870615665615208 4.652789201341495 5.162766492806664 0.14273839154321225 0.16179103729928912 -1.3090874589813584
Ni 4.055248707616543 2.7761921178867643 2.1525535929354285 0.40960964371330744 0.8425970429206069 -0.37114799730299947
Ni 5.305034428144328 4.866939777172929 2.7263594680003376 0.22220527672128826 -0.4996103385431719 -0.8286500938222116
Ni 5.622089832531084 3.532557224931518 0.21397608344636587 0.890854335265098 -2.281316695080523 -0.35046347237045444
Ni 5.943228906872048 7.922100453721383 12.218287515781745 -1.0776272393207054 1.256444893084978 -0.29847782333178274
Ni 1.982598923451835 6.1595720571755415 0.4578086361933038 -0.07454476528611033 0.6173198121422142 -2.218519557248644
Ni 0.7727180583155303 0.3858309841390775 0.06772497115112777 -0.19485593817405797 -1.2005444823729323 1.422628403025008
Ni 8.462469568087386 0.1708362671359007 5.908550600878339 -0.179931969874374 1.9776971796468006 4.636565718674138
Ni 9.005625079178298 2.134507791457683 1.472755013600382 0.3433114347067055 1.3647886091984045 0.18846546126668187
Ni 6.694989607525478 0.8507837588205082 4.685446684530123 0.015987376567191822 0.8945017022096983 -0.21296396062867842
Ni 0.6590102326218337 7.356023403670483 1.879061902590404 0.8364235671200433 0.38997027221582514 0.2802690136332399
Ni 7.900074216004152 4.286565314418808 3.8087466954498725 -0.006110226662795929 -0.14431910576677082 -0.7875273556399728
Ni 7.711905647666622 4.2062531386526665 12.561068213734632 1.2496913764112283 -0.26250346211970277 0.27653808583589795
Ni 8.860823806752709 7.537577705683967 9.772934787129415 0.415555062663465 -0.32505377404809827 -0.9374751204474305
Ni 6.998487593093332 0.8617082611275441 0.012495847345345135 0.02493738667162802 0.21408701848952805 0.505793327425432
Ni 2.2075387928311945 7.045006714808858 9.080621175422394 -0.5278526212183168 -1.5707306299832948 0.25906178342800545
Ni 0.3754674154678101 4.740665759036242 1.7802763733244649 -1.8595112806319716 0.4971415652877051 -0.462296689694378
Ni 6.568176581497743 2.231876369471054 6.746368022414705 -0.12607738594776352 -1.234832457021525 1.2105545583107666
Ni 3.7479319881765187 4.628780510872445 0.39929430497021884 -0.37286703687663525 0.2599511280114942 -0.5548869996282896
Ni 6.042232780012497 5.944297786927177 4.749908374008668 0.5812402928108377 -0.5898036089998164 0.794445937136677
Ni 5.607819827008763 2.839721963214685 9.241007084480842 -0.8667926663302039 0.5415913109606479 0.4366098264512352
P 0.3534923378215949 5.818992155848983 12.068879096246741 0.1614231124369091 0.5135871124382381 1.337760915656651
P 4.134354967423052 6.424919246929562 12.580482547112021 -0.046592503047558465 0.27724693897746444 -0.3507928306854152
P 2.497990960290295 8.601670639882256 1.1022126685404352 0.2018051157983815 -0.5878860802621295 0.7504021686529012
P 6.917334930446233 7.747288318209481 5.680053279418064 0.054421769283990146 0.326027193704961 -0.046392214111294294
P 4.928167419305187 1.5307001890334282 12.545971424921806 1.745040111464569 -1.5515113767423667 0.2839485193673561
P 4.2589936904326615 6.445602532782656 8.008048459453413 0.14991331202509667 0.45989527934173696 -0.39632861033368516
P 4.94929835577966 1.2301073646410525 3.4128024615584214 0.00565796961672574 -0.918245068573225 0.6363243782691751
P 0.3449778402884309 6.054145767977352 3.6556474422202356 0.5454464230406799 -0.9190729637911591 0.2520385580326369
Ni 1.1789929722611683 0.6020763821640249 4.537643412223206 1.2270900940719447 1.739506069020217 -0.6834403579203714
Ni 2.0070369930883305 6.694660721354669 5.160640609141464 -0.6410456950042444 0.433222398036241 -1.5972752132410426
Ni 6.197192980825294 5.919010094682759 9.142141160817593 -0.13295431557325488 1.233893490147023 0.32007560410721647
Ni 8.52951666829757 2.375800612107819 10.020780664732918 1.5127000603021237 0.962027355865498 -0.7134338189586682
Ni 2.605920438677419 5.425589481199728 6.984253216906183 -0.7329158389426796 0.6468453324051571 0.837916606725802
Ni 0.7973406696367572 0.5866205592813996 9.265235032397097 0.4618598592672755 -0.6901308825666695 0.11269685087579946
Ni 1.5356334815955617 1.3732093918507955 11.400807136046426 0.6702745099623747 1.1956938391488503 -0.37816530916109714
Ni 4.247254281280177 6.994221208599782 1.6062919346757656 -0.14970119601429058 0.6820966994082833 -0.5858957893049781
Ni 5.8269676454910995 7.95127082992674 7.603119238090002 0.23555418722436855 0.6515712771259166 0.2713758249086681
Ni 5.830375271649758 3.0950198533051005 4.564277710622547 -1.748811148471227 0.594951214639027 -0.21105774474490105
Ni 0.9803457250925875 8.157016536948612 7.440686926190966 -0.7614388860830371 -0.738990841492166 -1.0904819837961865
Ni 5.432788434049655 4.499080595123164 7.545302876407189 0.5406320323711721 0.1030053346196484 -2.1944936266476915
Ni 1.2581175035216114 7.8934051353183055 11.870493130869415 -0.3770931591428409 -0.6990448972268478 -0.7446644948381757
Ni 4.957730631770121 0.31610072091871205 10.19919044952439 0.06265315605484695 0.52652747464899 1.2778873792294703
Ni 8.921722562714159 8.040006145956376 4.366319297267272 -0.6219812221736256 -3.4154089593674923 -2.9045104495050107
Ni 7.687211777675054 6.441199112384603 7.3597252002374765 0.9182018740401154 -0.29926458089913627 -0.9552280735554775
Ni 2.6556462005583326 5.192363507461377 2.5628043752570675 -0.04712266451941562 0.7348724484484184 1.527162772694673
Ni 2.5349906545062972 5.750638646682532 11.19037388751783 -0.8291691995504752 -1.0724007008144434 1.3507038489705643
Ni 1.3152614756996595 3.400746956252881 3.5856504157724363 -1.4533852245918906 -0.6085731762978358 -0.7730484452975074
Ni 2.141058107692961 1.197958741444482 2.3545098004114253 -0.6676707537909404 0.41452225052357644 -0.6328017098278973
Ni 1.189535601180987 3.6727358195118485 8.314833479583964 1.2528512621964487 -0.8450683872792348 -0.03449469134275994
Ni 3.467382948749553 3.340140543554373 7.096543177774614 -0.014863290265077626 -2.435255840435561 0.2148354666197784
Ni 4.2395254562661675 7.533156013831981 5.740263201566208 1.1074255536290605 -1.055960810090865 -0.18487388726068163
Ni 8.081263088938961 7.560535787551822 13.186966917537584 1.067274949552104 -0.09951197675440926 0.7922597281186355
P 0.6490239694742999 5.877415129802399 7.79439212645089 -0.7540125117119788 0.416494800868915 1.0119270689094184
P 8.714816618367488 1.7383095843565515 7.868681117427746 0.8653317655139613 0.007954993181018558 -1.1172682507510951
P 2.2776829044831612 3.45398083728909 10.435831358002975 -2.3056799544162354 -0.032217208162492905 -1.508947535238227
P 4.048323826575622 6.401988572242608 3.7372651133699497 0.4817691965966928 0.3043093424118953 1.0797322014788502
P 7.1347926394396906 4.209861750804597 10.024871643268703 0.8808905391841667 -0.3869075741301014 0.7416578468013678
P 6.634675538089911 7.967377116569409 10.160788421218967 -0.06207697183640277 -1.3571686307593014 -0.03067043250066331
P 2.538663216746997 8.755543689185991 5.837657359615085 -0.400707199017355 0.4613456386350183 0.4320214357496043
P 7.127191714603217 4.379219857317252 1.446454169235333 0.9890257388312128 0.1440509397070487 0.7664607647776606
Ni 3.0209656505112945 1.8832844355945118 0.0957314557408997 -1.0041062873134192 -0.030818528042753375 0.12574828474311892
Ni 1.7948231913738821 1.283487417308732 7.1163585695658504 -0.413433645445088 1.1119285837057367 -1.1081984272393428
Ni 7.4014736453308805 0.27865885751751124 8.857016949325596 -0.3590471002744074 0.9381086402663714 -0.8997122998763603
Ni 3.2287760318276897 1.6561885346509604 9.029597226739481 -0.6675092885124118 1.1295360123748548 1.2428663830695947
Ni 6.645665817631108 2.3058300792682234 2.436434431987228 0.4608162484941095 0.19443222037307803 -0.9528911978921848
Ni 4.3443944661193745 7.10871013894915 10.327833361663599 0.2879265301784977 0.10596981656461105 0.1397505125594819
Ni 7.427921574900097 6.195210528073474 11.199866821409149 0.9006584658397133 0.19371796791487284 0.5312266798968722
Ni 7.974667426689006 3.793455315652652 7.982228154326824 -0.4560062286999759 1.3231701623266698 -0.011939945970695566
Ni 3.5112435739177075 8.697486144311252 12.512611404329423 0.41159427824350403 -0.057922069127764764 -0.4318586849194949
Ni 0.28989397454142224 5.113238976200933 10.02178285398119 -0.3540581317002483 -0.6769591210714019 -0.2820749564937271
Ni 8.861518122002195 2.5961817537306886 5.697007361523262 0.035916768501267175 -0.7057194810335459 0.05012417034990077
Ni 3.938905224692891 3.084486360112248 11.541043285706646 0.6965691819928455 0.4449204031994596 -0.34150960561127636
Ni 1.0805555141926684 3.631734676884338 12.886813521612316 0.08551797646816241 0.8118206809696986 -1.7684875438542318
Ni 3.5145963857145652 8.653799097955469 7.946100008463466 -0.18834976162442402 0.09091395067275311 0.03172535612773891
Ni 6.029835598518393 8.092171146937456 3.628691566231659 -1.0934215260404847 -0.601383600527932 -0.9269413107956422
Ni 3.3451651933861757 8.53910918161283 3.4772778546274177 0.08325463435528242 0.24536011757119677 0.34285326412336437
Ni 3.600207283121517 4.840574069146414 9.256303032141545 0.6916113237669379 -1.2576473980335114 0.3845372741257119
Ni 5.496820744360757 4.857420349673404 11.379172821016077 -0.9254248741511159 -0.20705762244657244 -0.013932036700059875
Ni 8.281490816872818 9.036787043862443 2.05784625218752 -1.0807827542305515 0.7267475053484388 0.7201780796610371
Ni 4.87031086042372 0.5014088931429015 1.2675501416149502 -0.3993038909119252 -0.7381552329647482 0.23381817836986826
Ni 6.137746805451584 6.030392877863377 0.14765892782083959 0.1532284924412587 -0.6613651232878868 1.3234992635313143
Ni 8.146492179482728 0.14200117211022967 11.246318338745121 0.5967635852574175 0.3693842205343573 0.7202516132114499
Ni 0.1141353777157482 4.937421910722671 5.822855654783291 0.6016329975345768 0.8344402181414274 -0.0783332857942651
Ni 7.59331477590911 6.422607908006933 2.4527471860593497 -0.3657149992128863 -0.5674221559808227 -0.04124537980303219
P 8.494143133481678 1.7601987861692778 3.626351906555432 0.024334720090622607 -0.3973061437556061 -0.36457420074022373
P 2.105392229614128 3.5481153679561728 1.325206628075842 0.3357061115556218 -1.7386123535613542 1.175986076307278
P 5.222748935353333 1.0621744315352373 8.213480811040322 0.19735145090240205 -0.38901767849456875 -1.6080036554021404
P 8.84302741062116 1.98290953816871 12.548846438198295 -1.8429376925440069 0.3313231519965778 -0.8976250783300284
P 6.382173180451371 7.949416277352455 1.423643172571645 0.6173444947325626 0.517031876453729 -1.3224445970145549
P 1.8314483207842411 3.36809586807313 5.598315930245082 1.1978273405520854 0.15527611899890678 2.01718675310099
P 7.074862270536734 4.146094376575537 5.9018650758839515 0.23641447834213475 1.5753930684559707 0.6355473908938345
P 2.632925647591617 8.740917390311962 10.28635624766111 0.3648860755536877 1.1581986704168699 0.33570251201119605
