# total energy = -340892.4071911399 ev
CRYSTAL
PRIMVEC
9.04394531246096 0.00000000000000 0.00000000000000

0.00000000000000 9.04394531246096 0.00000000000000

0.00000000000000 0.00000000000000 13.23672814079274

PRIMCOORD
 96 1
Ni 6.612191282858634 1.9888811677284524 11.40093957825513 -1.1015390129412965 0.7710661247601559 0.8308085349261111
Ni 4.763672147948366 0.27812121814635293 6.070005850922198 0.046182926313965623 0.9828046976221654 -0.374877896659077
Ni 2.816935765847024 1.3888515653215374 4.760231831113055 -0.21020825226041218 1.3012792757908491 1.4291078401017645
Ni 3.433235426052902 4.177868671676954 4.727153600763021 -0.6655171977830474 0.18453964384971444 0.15161306832502275
Ni 5.119497136298797 4.678903247587229 2.8824700031026382 -0.2910871872946664 -0.2601987252459261 -0.8822138859812806
Ni 7.3294665936067185 5.9851655033922935 2.5825519721151053 -0.4240862400629278 0.03717943726377468 0.18049452724606335
Ni 5.109657323688862 4.87319432690637 11.236248427879975 0.651498257796136 -1.5728623316143169 -0.14885221775043397
Ni 5.628454208391336 7.829081270087067 12.509872893476643 -0.2878848783072849 0.48947582121233124 -0.44014432196705494
Ni 1.8498576388314714 6.325941366574588 0.35339126263964615 0.5544825651010192 0.09091909287907567 -0.6221707124766123
Ni 2.763250905872233 1.6142266850270257 0.3304693829890218 0.6933938695886575 0.8786940457534803 -0.1545091589258952
Ni 0.5588986430606634 -0.18072606559336846 4.5338971487991895 0.9686533458224479 1.6422630908056426 0.047192341415086464
Ni 8.758699375199724 2.46916893286006 1.639091204152479 -0.6117456604885465 -0.5702115458005018 -0.39510939321460337
Ni 6.7831037632837665 0.5963948407452122 4.657713283483298 0.6307846793978685 0.5395331428800385 -0.07906707863649608
Ni 0.7277246852788922 7.34292398438207 2.6698748826610275 0.5268192948577959 -0.35096303771469234 -0.5164950301136524
Ni 7.20982423973096 3.734000874725684 3.944902064191338 1.1510682300196757 -0.3325297707101692 -0.13653843338008745
Ni 7.6714453015290145 3.9237247616109863 12.734381603211514 -0.03186162459528706 -0.30221800710050534 -0.57800584503394
Ni 7.850063223446486 9.12579311953543 6.849742266274375 -0.40906019896774065 -0.2980703034807189 0.09195473323244163
Ni 7.183280259942211 0.8079019745535737 0.4319831482833337 -1.2722234960754732 -0.5123750944080079 0.1725955841139608
Ni 1.7887296117813354 6.567667939587762 9.309206141311162 0.010527639004201225 -0.1011482268062516 -1.1761706815142583
Ni 9.296814127305526 4.850521155754619 1.5321384100864623 -0.3172589605940278 -0.11697259543301788 -0.5256409582789786
Ni 6.324412939799699 1.8136818571773 7.041383469587348 0.6569199430323396 1.4241692651495665 0.5577607216316588
Ni 3.606571683848865 4.443362733236919 0.48212911241780476 -0.964234647929462 -0.7229875240853743 -0.4056090071943466
Ni 5.861254407281343 5.688912983480869 4.854424522595104 0.23532124527795603 0.40586380351762996 0.11562790847966538
Ni 5.222860388430178 2.8795379559995675 9.476133859387087 -0.015030411970561208 -0.1784687550652862 -0.5142221749190756
P 0.13318294894891497 5.508685239279788 12.465714925600478 0.4572341875698061 0.06626349911392458 -0.1838593299532382
P 3.9918347145203774 6.125572755937546 12.508416818265063 0.1390087492974509 1.6250174163513176 0.8167962798074192
P 2.2967913332779326 8.192005755587129 1.3540115744049463 0.44330086531816554 0.8976474469275315 1.3020331232377382
P 6.375891077093586 7.67929544614797 5.736863982063474 0.2586853739251932 0.6981349838180686 -0.3781149155391359
P 4.920358502237997 1.040044678612016 12.569914742682613 -0.24543776488666766 0.5715377208110931 -0.3577947159245451
P 3.8004829174606374 6.41480717420806 8.156670156461875 -0.21038462993727639 -0.9948094353925254 -0.39132087270644866
P 4.710141035045606 0.8667445965977078 3.7330349813555177 0.5284432036144641 1.1273919694486585 -0.6764163611940543
P 0.13495556224996935 5.434325920089638 3.591084831722714 0.1961720858823202 0.4223499740981113 1.03324871320533
Ni 1.9044197615113756 1.0712915100158067 2.643811136373738 -1.4944678535648133 0.21309251578674268 -1.1452693639497116
Ni 1.79065597215442 6.436919620744172 4.829976024958674 0.669427588581047 0.46100213925267053 -0.4260335935972856
Ni 5.725269644043312 5.462018480945906 8.961224966817896 0.7739187637176026 0.05984011208608403 0.5723054522150531
Ni 8.832687892627918 2.330064008454357 10.293382751525558 -0.13883005762774153 0.9112670945934952 -0.24856911142679775
Ni 2.322810764232696 5.321258514529524 6.848246397702975 -0.1233335046540392 0.398439743139417 0.46009016896136246
Ni 0.5247776458044489 -0.056601532370658035 9.391140669179695 -0.9367513549075287 0.291282334024608 -0.7793638459925739
Ni 1.5834863145663933 1.3473217679825484 11.51293527628374 0.21871911794490073 -0.6047275772995004 -0.6419592079574492
Ni 4.081044192079564 6.664727561765904 1.5297417645518736 0.6540588194344606 1.4571228372574516 -0.0005245050449023225
Ni 5.70811327959382 7.687389777293091 7.890691339427745 -0.3621987585295117 1.3142947142139105 1.255179396108993
Ni 5.21456709048596 2.6192170312161496 5.178658105221488 -0.32305705533304363 0.1113930444627114 -1.488372796410669
Ni 0.4553852614354172 7.629933592080853 7.162777635689709 1.397209191620955 -1.510626979823179 0.18683563897274275
Ni 4.724973105523816 4.629188679648983 6.888764177550188 0.21040545587288279 0.06368751085663225 -0.11803754636242252
Ni 8.027333597497341 6.8617951323270026 9.374819965286415 0.37238675480610706 0.5051436096565752 -1.4588408483898232
Ni 4.17050690011033 0.39279754159553515 10.418351084855352 0.8901920190907507 0.011694662729108891 0.5827708705227512
Ni 8.417525578419234 7.07979039257504 5.047508235201537 -1.6548499263317178 -0.9352300331669958 -0.6237912787991708
Ni 7.166340950182645 6.064300025760794 6.978377015074818 0.9200319852703187 -1.2624821004179934 0.298612292027118
Ni 2.608346208829071 5.040823855146388 2.4485957658333324 -1.2906503353220935 0.2500539235024403 1.6832210212752432
Ni 2.485520386167745 5.18424274151435 11.31646279733085 -0.8387547863563812 1.3703470771227884 0.8765286626710451
Ni 0.9644282510093841 3.336365726728445 3.62320983022616 0.3333144713949937 0.14794564677576458 0.9318066093077436
Ni 3.9080516042093163 2.6425684982739175 2.4033796563437835 0.014280935399046374 -0.28799723551543305 0.7053968075868045
Ni 1.292235096468659 3.5978171446885554 8.117211422622587 -1.0298224611326006 -0.9490700243738815 0.3904973483638888
Ni 3.635394737881826 2.4868679340343633 7.0979569657272235 -0.27231967687917613 -0.08822611942794484 0.21798892464709554
Ni 4.186451375874406 7.110603114598981 6.033181618381875 -0.9055610453476532 -1.9079608914929267 -0.45716553911539975
Ni 0.46729975512321853 7.336213376885221 11.290121401919365 0.5319031371386066 -0.20490535199026003 0.569863932653096
P 0.17144155123182536 5.57644247831805 7.8634500714476125 0.22406238453468505 0.3230830234749726 0.6022456914179112
P 8.768493968082591 1.7128780415979512 8.216037327339995 -0.32230835009247716 -0.44260358214082485 -1.1203666871707607
P 1.858295639902307 3.453204457526005 10.50965785335594 -0.5354340331100005 -2.796874043871254 -1.7107505941540795
P 3.8191044010671225 6.279066597496196 3.8728679433670106 0.7104539103947377 -0.8467241777151031 -0.11950461782625227
P 6.951339235866492 3.9220425877640674 10.317195459799416 0.22784010640956243 0.8460868012414202 0.2929062427812762
P 6.256890843342188 7.82865620465263 10.182498554388275 -0.22196205036223063 0.07429074029377528 0.10431762567316873
P 2.4351636981051388 8.423404142938036 5.860151045940889 -1.1245393304912117 0.21269065236263368 -0.5487721449798033
P 6.767403474045856 3.980321772008937 1.5849794699541693 0.7747425451704787 -0.6647211842443134 0.75431461633343
Ni 5.351429116429103 3.1227025163334945 0.1534431954643337 0.7381076675562643 -1.948030762930619 -0.18345258143312276
Ni 1.1595513733065714 0.8601316637113252 6.830482280121693 1.1584665793662758 0.9724593498320994 0.44786663031197704
Ni 6.986203645435698 1.0290653288799751 9.317425278902988 -0.7209206142540165 -1.5653570243762074 -0.7213551306882738
Ni 2.5139364626570972 1.6387357770977267 9.161642414760172 -0.33880763329908103 0.7115234893098327 0.5131582524309356
Ni 6.2646143727253545 1.8906277447557227 2.399356005029299 0.6209774634994596 0.24341996312569045 0.6552636383758392
Ni 4.045148772733213 6.883681480227776 10.293515697523137 0.8388550593796714 1.188527146197082 0.4779526510640801
Ni 8.474963675740645 7.134370603145771 0.47747238492437155 -0.7859872648463625 0.7099911118257064 0.30377866671940584
Ni 7.700340707125283 3.7253458189649233 8.212331118509525 -0.08389535326307487 0.08068121720115137 -0.5938309849916548
Ni 3.2833682066050836 8.411972595935318 12.656337780659888 -1.034246044121593 -0.5763996768890848 -1.4763917127893929
Ni 0.11235112508336031 4.7452858069226345 10.079424708510127 -0.5619323365108452 0.8617209082342514 0.7340119002203359
Ni 8.730391826055335 2.3828173420515526 5.786528808301944 -1.0987632499683724 -0.05325346000750183 -0.1554715228391645
Ni 3.6393831178091984 2.7906902362569226 11.502531121479997 0.8050285977485296 -0.14758337834033938 0.08803971444875161
Ni 1.0260265632210246 3.423531272624171 12.847713996372244 0.9279900637751308 0.4047937103819028 -0.6421882932491199
Ni 3.211278917713733 8.775656772850116 7.871657451910402 -0.5510516850425994 -1.3527401626743027 0.8817464594265589
Ni 5.623688049158398 7.8693901347952275 3.4112504991471213 -0.696534214989852 -0.5802902701927426 0.0038119175469224667
Ni 3.1243666022895864 8.37472962872235 3.6501074282805774 0.06980545082891204 -1.4508184923059788 -0.40495183322632194
Ni 3.42853257443786 4.343445224308097 9.127756560084709 -0.31144415368446365 0.37752381892235626 -0.2014384764875821
Ni 7.267135721816581 6.2896841894116955 11.54769568048069 -0.14679070723571494 -1.0806966222746486 -0.2161593276375245
Ni 0.804561141117811 0.26280710537760077 0.24456004111123672 -1.172841102920393 -0.8372008116057001 0.2756734238427575
Ni 4.469165109501756 0.2966812029240256 1.3334284590382641 0.9049419237064157 -0.7033774631639306 1.4634523790199054
Ni 6.028305123014892 5.522468212090026 0.23440640359545215 -0.3825672948835347 1.1368276609402614 0.7731988548324426
Ni 7.688484094688129 8.914526554675067 11.55072630658877 0.766501645317925 -0.8615543007494001 -0.6964061740524201
Ni 0.07562999352075223 4.784156684310041 5.712363029543645 -0.26626678581687696 -0.2880314311874781 0.4460720003053995
Ni 7.774871861278291 8.671072588087908 2.4812778713742523 0.6977937984285659 0.7471921463560358 0.654139552073725
P 8.604563413516713 1.5663480380077297 3.6328334925407106 -0.5686907382806012 -0.4131942757407723 -0.02868322686730544
P 1.9500102903410452 3.1334648113756103 1.625470117965142 -0.41203342266345167 0.05457140748797698 -0.0931685510348847
P 4.836738182944378 1.0146402359453741 8.390643355072019 0.1343465679350912 0.47426440357921545 -0.27916472482546756
P 8.563232582976822 1.8387245420274 12.423172206375172 0.5420062870108794 -0.6244741637988083 0.7592657896911181
P 6.369894941284407 7.546702162440018 1.28467616689202 -0.07589228045294028 0.2152170183289132 0.2213375294043543
P 1.7934867270688588 3.1869597484967165 6.009726145951851 0.6594218835185869 -0.2546587692643033 -1.1781884832752354
P 6.699555795553458 3.9854406451130027 6.096638461375998 0.5519569704656881 -0.30414839135399874 0.33628538109785955
P 2.1934190372011377 8.3916598945365 10.488637915425782 1.353422790563624 0.5001716103632806 0.44613576366379937
