# total energy = -340887.6354579683 ev
CRYSTAL
PRIMVEC
9.12605959382907 0.00000000000000 0.00000000000000

0.00000000000000 9.12605959382907 0.00000000000000

0.00000000000000 0.00000000000000 13.35691069181325

PRIMCOORD
 96 1
Ni 6.600988297343366 2.279105577434555 11.472357443683444 0.1462667164114449 1.143474733943134 0.6706694314079481
Ni 4.609390096144109 0.7422096368362749 6.10382795785726 -1.3733097592955381 -0.8150808397782092 2.117526625073334
Ni 2.900955266892185 1.956015695487557 4.85408804020628 -0.6199181689970098 0.660625931129017 0.456048394791821
Ni 3.7548897736758637 5.08815229982237 5.247195787906519 -0.3288525789688982 -1.4377313201047173 -0.38188620965611003
Ni 3.8844341872633463 2.824314619811686 2.640581490549688 -0.29590774861176133 -0.6586477243567237 -0.024512383319067462
Ni 5.216966628655573 4.523513876921974 3.3186312791798738 1.1363082981016819 1.200889781527493 -0.9032892185943412
Ni 5.680543069444819 3.019685300056901 0.5270007286053984 -1.2684897400646542 0.43221581114859753 0.0073340717675680145
Ni 5.587265616026174 8.16228367042967 12.83772727211128 0.4622547807128491 0.16477711651080654 0.08860664269581514
Ni 2.694459920203635 5.598052618270655 11.603655885893085 -1.3546119257757188 -0.4892277097572671 -0.6251951011252329
Ni 0.8957720136276698 7.917093831764303 11.693908050611181 -0.25863060942785776 -1.3545270793713962 0.5010954077291305
Ni 0.80024772437773 0.34610397861377623 5.108470558533971 0.09144874013030058 0.3561196422149673 -0.22795734871371706
Ni 8.78892454108726 2.61216111627747 1.8477149230377246 0.4337168211741562 0.9398389926939168 -0.6869249740348621
Ni 1.54458555827273 1.4426839786941579 2.799715326622179 0.15988816384962143 -0.11597346474454219 -0.36159943438261594
Ni 1.9831200919901861 6.365581594385346 0.46289472414993726 -1.4647906382153548 0.6372396909945929 -0.7133271181774747
Ni 7.77918994774032 4.093795116612443 4.073416625908615 0.0018231692516678278 0.105339896290096 0.005572608991771047
Ni 7.37037898958147 4.394371009949345 12.864535071682484 1.629012910663956 -0.21545741647449346 -0.825613620988733
Ni 8.100600634752475 0.26191334256808396 6.916167710977746 0.8119662054086274 -1.0501290339004368 0.4785712584846854
Ni 6.956338799370093 1.0346213574084455 0.4997849941777414 -0.10211367604331445 -0.6302591459117016 0.2988794296455756
Ni 1.8460284272553387 7.088922190747264 9.452484885162825 2.038709457664115 0.28656255995143554 0.4730279600689531
Ni 8.96643552303091 5.261072873873488 1.6048859959465087 -0.651788021122413 -0.7569417695436319 -0.07292111363975828
Ni 6.844754470737889 2.2142375470168147 7.238697252875834 -0.9514236122077228 0.7184369286002144 0.5294497905021075
Ni 3.7216617912967145 4.665789143412207 0.7833991934608431 0.8209118446376895 -0.651724000653697 -0.22036822351254953
Ni 6.133551533415868 5.975369545341769 5.224449084780996 0.11087008207970583 -0.3135028359857053 -1.2206607935068332
Ni 5.366442356034887 3.3653165487922814 9.42649295530453 0.37551887267718553 -0.2957506542086068 -0.08953121139261355
P 9.217502543968228 6.048451029245155 12.613278228709055 -0.5241247787447684 -0.008023641635424891 0.027709035879494213
P 4.221468688017084 6.358016091119123 12.824891469525102 0.49122725668579914 0.4684606524132448 0.08122629107134398
P 2.2312211436132436 8.519276863153527 1.7329255223342324 0.19840920274295507 0.803235767514165 -0.5897159343820166
P 6.445033067769821 8.073633129141273 6.018850655488833 0.8706333802325329 -0.2754646502660611 0.32570966246454225
P 4.901168468191941 1.1432488427858178 12.753471841043647 1.5396634762648451 1.6589626629485108 0.49136378226366345
P 4.29673130012388 6.594800829050847 8.418086203604435 -0.5587806782557408 -0.5255643394047723 0.5339767318381836
P 4.822921634652028 1.303977001440467 4.049828500103784 -0.1781208848075642 0.48766884991057946 -2.4540848002166062
P 0.1573515166661058 5.695856597165832 3.9912455868144483 0.4316673948442953 1.446802172057734 -0.26835889245921524
Ni 0.5421572881042424 7.3485768336067965 2.3388082582157677 -0.11844249511032505 0.643306466013963 0.6674486104778053
Ni 2.2220768320658917 6.897694741482587 5.077215630203262 -1.1625371498912236 -0.22319000923206078 -0.8243105859065932
Ni 6.268005766975881 5.736257662255778 9.180417888874597 -0.24447103009802415 1.0000747975565227 0.1076610882241049
Ni 9.089838098623016 2.3819015108371198 10.509190393782285 -0.40659579658764816 2.94904144203785 0.09238744989448604
Ni 2.4126837092894324 5.538076155706587 7.306898120196862 0.7273697123134699 1.0718417429871798 -0.6346996981815585
Ni 0.5662646866905541 0.3258523401360036 9.769431103902559 1.3567549402606505 -1.065601932725055 -0.7146880030807433
Ni 1.4016714676225028 1.0990422109141895 11.952150892077125 0.5085773179284725 1.8487075051482484 0.44515540202840104
Ni 3.8875918038256048 7.083391798733597 1.5004355079695582 1.2451909174377138 1.294636830773667 1.2730069112087172
Ni 6.039708264312656 8.13482335760933 8.308118100097015 -0.09446310147659215 0.09001972099325786 0.0219595349902267
Ni 6.615936782687241 0.8356686988375465 5.1184882339686295 3.3752866374253094 1.2346691919707833 -1.3233830496684242
Ni 1.015319741717179 8.199052563867076 7.59834521628744 0.016357358312100858 0.8830070713065373 -1.3484356217616777
Ni 5.174329679005646 4.9375175628956365 7.211676816119947 0.3889186910228592 0.5137141249344055 0.1997531183653592
Ni 8.292047109443436 7.608423123714326 9.3620191706541 0.05255720527142561 -0.4111877868337047 -0.835696973366664
Ni 4.703023465880465 0.9574605249405226 10.535676956061604 -0.13549893637197954 -1.3829295417734893 0.25351411413689884
Ni 8.46893751934595 7.78906434404195 4.590289253760269 -0.3281979761040347 -0.5691406813338263 1.1756135234592076
Ni 7.699847987068987 6.550530314763219 6.917156975819794 -0.02569046278756866 -0.03675057725647218 0.7077341974707294
Ni 2.039546517436569 5.4941068013801 2.776767850189229 1.657867630112119 0.5419736340007312 -0.045840455372882345
Ni 3.3077858701550507 4.694353709423395 9.369645818518492 1.0855781187366658 0.7990081025860627 -0.15249084294428578
Ni 1.301193553314776 3.640275593313399 3.938151085665409 -0.549059594313235 -0.6558416223664962 0.6868136452679784
Ni 0.5116005033198135 0.34095140546044816 0.8096785941911364 0.8733474367295861 0.4245462104184818 -1.3440308078257626
Ni 1.2327207294227802 3.73969488472742 8.284664127365785 0.39659189129740086 -1.3527753867876122 0.3263123290455477
Ni 5.4281801480686545 3.0398447653344456 5.186140625118003 -0.1097475384394884 0.8825733262032284 0.13825901561561996
Ni 4.43987354225982 7.350666701215922 6.24376786573974 -0.8929603258645072 -0.3964965033701171 0.07167515704779914
Ni 8.06050072962367 7.701563686241544 0.39445749188971263 0.024952556180279604 -0.49811652760646463 -0.673972270528936
P 0.4112430529965429 6.23350926233617 7.91985994037708 0.1820058216842672 -1.578484562897101 0.9930099202899414
P 9.092557664332707 1.7970123620648937 8.349003758942615 -0.9234250701122677 0.3781953910680842 -1.1155319847862788
P 1.8363730563799914 3.687721976282142 10.606989809647748 -0.3332067421725358 -0.08426122124292586 0.3828562868788632
P 4.157257733878196 6.478151537435828 3.617144683085936 -0.5201128293718978 -0.3346038796303785 0.9683185881908486
P 7.23967556644657 4.227656156309604 10.365229544115609 -0.2168427268577943 -0.2809835232017613 1.1628613659998617
P 6.648817974808107 8.438766766875347 10.623285301363268 -0.9365150705270066 0.34548633087083724 0.1000357104683632
P 2.5773451995577625 8.730116214130039 6.055929834946806 0.9147684228785342 0.45936923163493787 0.4361025477975135
P 6.9205098900538236 4.387407826605403 1.7701780969213476 -0.029908100413342038 -0.8365480085130497 1.1916991161671606
Ni 3.147030333322116 2.144751730528256 0.23775940107868704 -0.7748024518741365 0.6832395547634749 1.3421042802270111
Ni 1.785102854510708 1.3626758156845449 7.149967314870409 1.058735544622525 0.6612723064637643 0.6253894765242262
Ni 7.154283028374143 0.9909805412213838 9.368790706750044 -0.18043616320430217 0.48088036623383634 -0.21900271062359059
Ni 3.0027473337576147 2.2438972401594226 9.356663086375516 -0.48832859498176545 -1.243094182809685 -0.14135282404959526
Ni 6.672372334193052 2.303745937891491 2.8940952080197855 -1.6376608161469408 -0.39376727736441214 -0.20607288993579992
Ni 4.2329766489564165 7.411163349167413 10.8471466265383 0.5404546262530434 0.11109505360631834 -1.1210341455514308
Ni 7.210399167799959 6.562978259823686 11.321330286201286 0.7839352674133402 -1.2403816689745284 1.5594607134964305
Ni 8.137953595993304 4.3351520103178425 8.344408788020369 -1.1740402654348168 -0.05213734412518763 -0.6667166174077873
Ni 3.181517711902398 9.048332780342221 12.994617922776248 -0.7361729124273966 -2.389829846892278 0.07580640560735331
Ni 0.423416303668212 5.443110381293671 10.196905766198624 -1.0062971243171508 -0.9735191585551816 0.8584244968711667
Ni 9.111494237646834 2.540548927942072 6.060537582352253 -0.9389187948724926 -0.801914220489264 -0.48535614261700283
Ni 3.6786050429130763 3.100742959900791 11.596269253391661 0.4290680095482352 0.17215309725990352 -0.5625000360888571
Ni 0.9806133377106138 4.055429162775051 13.104678199483894 0.2885831899258901 -0.6806404265777309 -0.8833449142619304
Ni 3.647275280895054 8.686429767645835 8.101580773535096 -1.2499340885496537 0.6436031713187755 1.5341476886529386
Ni 5.426218045291528 8.256172569830024 3.998404067830159 0.24294585170274935 -1.1485004692924994 -0.9641174056253075
Ni 3.1220431826068977 8.972513478610288 3.6671399744530584 -0.3174139981146533 -1.0151779717465486 0.526613606604893
Ni 4.0587693005258805 2.9788188059361014 7.1832792569963 -0.9572173360713644 -0.5996051684712705 0.12174276312815165
Ni 5.296500236574904 4.942208357441882 11.527681441150865 0.02081796518661576 -0.3027934199880011 0.08813535948635144
Ni 8.153239745536032 0.08933408313959187 2.5648205955980963 0.4528021199403815 -0.31669048968506747 0.13327698901999627
Ni 4.643968735318675 0.5497702468794927 1.812251968704537 0.5751218386179257 -0.41188249890788425 -0.34554829445702423
Ni 6.101783720545277 6.072434313423238 0.7221040153093583 -0.131137059858858 0.4511008209785586 -0.08330348531534686
Ni 8.19962750561107 0.46524650966466036 11.726525499614565 -0.35290010683640516 -1.11557775042255 0.488161730386598
Ni 0.28414533594183994 4.822593096512602 6.054273455160534 -0.2347851702688279 1.5298575459180168 0.029438874086407364
Ni 7.210910227127954 6.6274538696860015 3.066853338213076 -0.1720386831692263 -1.7373293730838724 -1.0161714460080693
P 8.50573379096164 1.5759700766473232 3.8889442858329084 0.9794730621457711 2.314009557327853 1.8378757046400669
P 2.0958908083480954 3.549763335901588 1.61169859930988 -1.6464532176275901 -0.5462730327070334 1.242470176072441
P 5.0273453658503096 1.360230031757708 8.413304148463903 0.40866579174279943 0.22156095826907002 -0.9185947386031599
P 8.611231037955038 2.296554603061837 12.999639993279748 -0.1858730179491573 -0.5762176427852657 -0.6492637120386625
P 6.485707914642622 8.246088274161538 1.8663475985728823 -2.2361400985438844 -0.5811996693808894 -1.6006032491730111
P 2.137021958192321 3.549416545643305 6.176943208180532 0.10110400383187751 0.08291190630388301 -0.3149650223535285
P 7.057501168134958 4.122314052326489 6.217734868614017 0.8867552254950598 0.8902457551468216 0.1471051531523402
P 2.601620517637558 8.925769802217538 10.62096089402683 0.05420476817717762 0.3146981418453871 -0.24212412713240236
