# total energy = -340891.16116513766 ev
CRYSTAL
PRIMVEC
9.10413221731485 0.00000000000000 0.00000000000000
0.00000000000000 9.10413221731485 0.00000000000000
0.00000000000000 0.00000000000000 13.32481775983047
PRIMCOORD
 96 1
Ni 6.153637529909484 2.097774075281053 11.183999070734497 0.5873551474593239 0.22310104906268027 0.8650525437106457
Ni 4.314502738130989 0.38705761619449836 6.079781170182421 1.2340981499586616 0.15745615736936108 -0.7595434688325371
Ni 2.54282956382421 1.5644813402418278 4.73023017613118 0.9273339182483705 -0.7293237507160472 0.7498239275519281
Ni 3.4855442151010196 4.332073712722138 5.0467480678543435 -0.5673324244804939 1.0794246975407604 -0.17936607006857497
Ni 5.306297764548152 4.312381475395375 3.3072598206846764 -1.1043754539488269 -0.010653623059104233 0.5085670335158273
Ni 7.483787618855162 6.1707441937730945 2.5863200019702806 -0.7854388485420601 0.358182438281267 -0.2337868109113006
Ni 5.269744674919416 4.485988166835069 11.405563597849731 -0.029457643139484752 0.2568740317480672 0.12231483358153775
Ni 5.723968024298473 7.822106264856027 12.446378912136623 -0.4238818373616054 -0.29779185300835165 -0.29243984466781897
Ni 1.6745320868002749 6.555375558812909 0.42874725704827416 0.9608665027881773 0.582198800069365 0.24949573700612515
Ni 2.8119477031580695 1.5558051025292037 0.5734829253670101 -0.24102883718569462 0.6512025809325881 -0.5704277755763659
Ni 0.5317696137702618 8.990585179299313 4.762142889724109 0.1424727965866514 0.7778366107147701 -0.09876172885194603
Ni 8.563947349615168 2.6523704789955564 1.5101415080956164 0.20486267167778266 -0.6171840578952984 -0.5835139193363628
Ni 6.88977032395948 0.6289544011099466 4.773668720725349 -0.5919952173344966 0.571135343166352 -1.449560708639478
Ni 0.7338476569399555 7.5727896124318805 2.7399158114662736 -0.1311162339232516 -0.718422530422511 0.0704939922555044
Ni 7.85680211157461 3.8656326183164897 3.7546532503029666 -0.22390194769742083 -0.16562146678897285 -0.16993243545950087
Ni 7.585335106207323 4.023962576406989 12.845044296519577 -0.40781578503767824 -0.6625758557665363 -0.32085670524761517
Ni 7.880764186768342 8.813154752456363 6.597423902464038 0.6100626163591687 -0.21857076529249453 1.168266339065517
Ni 6.490927409004235 0.7755636997762775 0.07217482656282267 0.4006555198438132 -0.9169551461172079 0.6883745619971952
Ni 1.9030549019362426 6.618885983034594 9.16406350247904 0.1890753269365389 0.275496531945261 -0.19062981590785233
Ni 8.993653271753828 4.912689725442601 1.2768016967647386 1.162955982596197 0.6192820780749076 0.008466899820430578
Ni 6.603090314166384 1.814326032316899 7.052559485860728 -0.3583634439438215 0.6861163620906376 -0.8609678321183107
Ni 3.851475693192534 4.737262207620405 1.058622996307767 0.532905867371508 -0.6194684830541008 0.2640936894249581
Ni 6.2016436174841605 5.692495040276918 4.842744500785153 -0.3517338544424458 0.01125397564726449 1.680765360645899
Ni 5.509456468175862 2.9964884570246912 8.92341671487518 0.6232814290422879 0.1021895235865724 0.9075641918206111
P 0.25489566446013306 5.61476396200789 12.394438929162552 -0.880406914679529 -0.7299297597311623 0.36789015248733414
P 3.945694354355122 6.057679979551606 12.630474473952725 -0.10031930314705303 0.13013201563311136 -0.37170644090963084
P 2.21702909920305 8.572632691459704 1.530821543734888 1.358603820543931 -0.7195887828164704 -1.2158582299118674
P 6.097191912051909 7.851312320031365 5.7001170195140745 0.31701033491833147 -0.6398470467104529 -0.7499815361757148
P 4.377767350791037 1.4569251258274092 12.373731581127544 0.01920794038701853 -1.5770820261226193 -0.9227653250410818
P 4.034323078523427 6.028164383891242 8.3386710679192 0.8584396663798184 0.11805631541549991 0.9576605942563701
P 4.881599114961372 1.199387442286265 3.8278732312093458 -1.2266254957307006 -1.6751343876123668 -0.05420888194223567
P 0.20394256938537625 5.498267490055384 3.773615336250347 -0.045754066306663135 0.9306683819382423 -1.066143921271454
Ni 1.4800496208851899 1.2117690616872816 2.4691953449158115 -1.0448305045056587 0.08058968592860959 0.9717083305986878
Ni 1.8271355459178038 6.6327879924649995 4.857028883755885 0.4647238110786319 -0.7155904602903547 0.2022198347382969
Ni 6.326961993259891 5.746200314428827 9.180785971975942 -0.897644361603738 -0.055834847581432874 0.8706853165163909
Ni 8.616296108112113 2.3611839239057675 10.280376651476823 0.8948500866880525 -0.06948252027185452 0.024812431057989526
Ni 2.4783541016197987 4.964155383144033 7.321800530975406 -0.990947638444274 0.39086090235089455 -0.537428694942526
Ni 0.564850387487566 9.011315287664104 9.380565221837728 0.6310718716209842 1.134423165263827 -0.6107745548245288
Ni 1.542176217056173 1.0903654626339319 11.579705612245883 0.31316833546442197 0.5603410807643252 -1.1863717904169762
Ni 4.186198207087956 7.052661452138148 1.3580915801983684 -0.7841453265416173 0.685463044777355 0.012206826478837042
Ni 5.8365861360562485 7.79678767400733 7.851009152438678 -0.23420332962342894 0.6034659369782575 1.0133943974835644
Ni 5.0871431011501596 2.771589086389903 5.2442749554809724 0.9982403154509453 -0.6402525096789877 0.1530559714191364
Ni 0.8018737305902465 7.7442750411359595 7.144460235038391 -0.3164048401238486 -0.7588513278615189 0.19067146777906516
Ni 5.378393385163336 4.622031210003739 7.229126840998371 0.13775225118253048 -0.08787953472180349 -1.1164886922725932
Ni 8.441833628272642 7.069813636661321 9.234697909922266 -0.6040999710178305 0.19457723059137458 0.029469213103710538
Ni 4.626929232972669 0.07081102760232837 10.584968130394595 0.09355704472255501 0.5801779129845944 -0.18079046121992734
Ni 8.143846286644207 7.047836262224517 4.8547901777185976 0.7702469712929703 0.8193560701147954 -0.49414802987702
Ni 7.470486482130981 6.342748557996187 7.024536967834015 0.4031086093699961 -1.0760956331675273 0.019633715070527476
Ni 2.040053878955726 5.337534041139982 2.6382608953575453 0.5501641402313234 0.41330277629417855 0.053073997006844086
Ni 2.179611117042625 5.481051576608824 11.261642749337165 0.9152949848059656 -0.6965594118008327 1.3419106761589663
Ni 1.3074625922196967 3.292336327653686 3.781450352174255 -1.3520660194254133 0.7073791281241559 -0.19274686225085513
Ni 3.6589141991109884 2.702333954931423 2.8399319838307497 -0.6739334468712006 0.11312056867677937 -0.9421696977096226
Ni 1.006926093655758 3.0049461955714154 8.170045247048842 0.2287137672637674 0.3713752828224572 0.3275775689112165
Ni 3.546541898914851 2.8263413357117515 7.113334118442704 0.48356819747864466 -0.9140132898800645 0.6931694122826771
Ni 4.099872828293515 6.752206890761422 6.30438374611686 0.1611120089543935 -0.154218881378986 -1.8782263405429718
Ni 0.8019866218259616 7.532294433685027 11.540744479726287 -0.42113178542029406 0.661041678510197 -0.6774620288497494
P 0.38192561703541533 5.648776998833035 7.816191310352467 -0.20819353582322853 0.0958512400733704 1.8303428865981315
P 8.620074322855805 1.3112408069633894 7.896619942907173 0.3201702207035518 0.22917810849469564 1.1324164192464432
P 1.8257426137351893 3.0611642101311776 10.505765824408506 -0.415069381276298 0.5927773469161597 -0.7196648874700445
P 3.8821384094738742 5.994032993351234 3.75802451035017 -0.5335969799012616 0.5531795300188795 -0.5474441701969991
P 7.2512771939415135 4.05506229102013 10.521382141878036 -1.2919857663040653 0.24215600881160235 -0.3255404838765297
P 6.541946964241953 7.813502860198702 10.254273284457268 -0.3136846129792082 0.2633771229739077 0.09426821185696668
P 2.451924806677776 8.387363607040081 5.916152607318839 0.071281006933174 0.39372408283130256 -0.7473631247162613
P 6.54708169464061 4.045757868205543 1.7742924330580094 2.140904894787958 0.48649951219282667 -2.454165018635238
Ni 5.280460238180443 2.7101726125080963 0.4504651637255719 -0.2980636186124996 1.571168488851662 0.8952483505677357
Ni 1.7011434643805479 0.9311524037479191 7.038288759087866 -0.39631909725198844 0.7770503673680489 0.22099094469821293
Ni 6.689370172301263 0.7850483844027326 9.175055831350207 0.8197962429760074 -1.118393879715106 0.5436337953119734
Ni 2.9128032764848792 1.4548402796194437 9.295312309782581 -0.45179758993526703 -0.006217955885253808 0.21182239082506746
Ni 6.473010477400411 1.957524923168803 2.6050553950330393 -0.025810276194884584 0.027329798163204543 -0.1996235347660304
Ni 4.13866553437273 6.786092469739792 10.44910899069056 0.46769292100928483 -0.19061567484046527 -0.05087364692141561
Ni 8.215113431255352 7.289377985995377 0.14902098320995538 -0.4843161313882626 0.133166431584061 0.6907430622293717
Ni 7.8028055052015 3.8908874802417985 8.420232254483825 0.07447765949360076 0.17957664341748428 -1.6334817450685868
Ni 3.0707144445074026 8.438364954013975 12.609461227085456 0.5266267192310156 -0.2302597715946486 -0.11287451410424432
Ni 0.19170752650815115 4.938946041878286 10.143823776921055 -0.2980703034807189 -0.9993530888991499 -0.2572908075705117
Ni 8.70283088194054 2.407469330548979 5.9285979556432435 1.0126114965709527 -0.712367839587999 -0.8225938603258026
Ni 3.2630756476868723 3.3807465526560923 12.18980899781778 0.13538452228130232 -0.023401923863708082 -0.04464206418940699
Ni 0.8722368349024792 3.274528645632813 12.65255381466695 -0.34114425185205766 0.469666756906204 0.2706595155679339
Ni 3.497452419642585 8.255563089342642 8.04022123638961 -1.1712950985895119 0.8407828725300036 1.3447998247813033
Ni 5.37213884653944 7.483623744480737 3.4508747703649822 1.5398264842052707 0.8898150953673063 0.41043213961460284
Ni 3.1719068707149756 8.376511481800367 3.545987457281379 -0.6945284974137329 0.416454948769915 0.6813899031492459
Ni 3.6619094585102054 4.107984609827564 9.553827777091128 -1.399186369951984 0.7608763287113477 0.2590173033433152
Ni 7.26376806292548 6.099249445864136 11.534721186052968 0.8202024772754907 -0.03519660250579099 -0.7172958730172356
Ni 0.6014890559562799 0.06506632036553318 0.10567074869533744 -0.3199827872830941 0.29488753487736313 0.6529110789832626
Ni 4.5766106958922155 0.2999702215589808 1.709334451862235 0.3950060348675197 0.46382546763407867 0.19104890572314195
Ni 5.965737351367146 5.665228165198944 0.3094676519701135 0.6823916049408829 0.13396270223311124 0.5771810351397995
Ni 8.080290341762959 0.18267440682455657 11.16534379403257 -0.5973564816464099 -0.6621148569697177 1.5227049940336355
Ni 0.09861049439718425 4.841422580831456 5.884985522129545 -0.31763048500083363 -0.6898411192403926 -0.5073781554140488
Ni 8.153168917722619 9.027811974689575 2.1095848656111547 -0.5805836330634453 0.6883858748511048 0.18294890232382685
P 8.633020398435397 1.7471193305387342 3.4736469355177486 -0.05943027824217507 -1.4222239684977378 1.3640512168117476
P 2.0581802055935374 3.6632295576375196 1.2346213432008786 -0.8265762420123185 -1.6311296998966422 -0.07166795795894754
P 4.75649013421963 1.1491963630525854 8.154682024446478 -0.22155941560717327 -0.8172089418648054 -0.0673724159073872
P 8.209623639712106 1.8403092247952089 12.797327720339716 0.9322336695428332 -0.5904618114091056 -1.36446413597945
P 6.365144722500967 7.946668997683018 1.3872867104154125 -0.33612597270185984 -0.720591513049372 -0.2884962866390386
P 1.7910103504889556 3.2985271373541947 5.953288361389977 -0.5559218686507071 -1.1718748823523817 0.5083767718818922
P 6.984507920641082 3.7564285560259068 5.818521717515442 -0.5757998385215567 0.7920609818442682 0.8091919850975998
P 2.46781151686511 8.463546982883983 10.347892893740013 0.3896175168620967 0.3463463648782874 -0.06730710988709053
