# total energy = -340872.25004275335 ev
CRYSTAL
PRIMVEC
9.24580732569951 0.00000000000000 0.00000000000000

0.00000000000000 9.24580732569951 0.00000000000000

0.00000000000000 0.00000000000000 13.53217360168914

PRIMCOORD
 96 1
Ni 4.620971360314277 0.8054540650723891 5.409161653682136 1.724607811752146 1.0588718130900732 1.8997472453338833
Ni 7.207384295647157 2.4344211063639585 3.3810808414129254 -1.1908275121954845 1.4381208422336522 0.3989182254377323
Ni 1.7325441240342692 0.06616947030731084 11.851558934383505 -1.2246652866805359 -0.4369044748735185 0.40746457234584665
Ni 5.410322927100136 4.14251006964497 1.5963635504166314 -0.7050034288031277 -1.6813430875262396 -0.34680942055763503
Ni 3.9473865488371276 0.562078524249764 11.926338100605157 -0.4021133353362623 -0.16491544186088372 -0.49719298735093087
Ni 3.5504825258443744 7.092597595930072 11.172473792043553 0.15615569339038268 0.20252939555891572 -1.3806777696248351
Ni 0.03901453377335357 5.357215009003081 0.7932791857983289 -0.032939688150814245 0.015456186654070156 0.19138392046505748
Ni 9.055094197504706 2.5089885435945907 7.606299281764234 0.876078205397188 0.1222901509911894 -0.7253876488864346
Ni 7.293425779945764 7.736466382204587 6.280511513160779 -1.709846080061939 0.21184578786383518 0.5233002259609439
Ni 7.780846258051708 3.825887392898166 8.971871759903138 -1.9611469885976032 0.32042141748240943 0.9347618352813256
Ni 8.86034050899559 0.9987136310946528 13.14776566657336 -0.2932050049686176 0.27265751983456915 -3.3122233904162375
Ni 4.711349128315446 0.6944812609359159 0.9582659971637358 -0.29180143975287165 1.7319508823807785 -1.7046295688580064
Ni 8.771848885717924 0.24798180210325763 6.651199049077593 -1.0853438912386726 1.3011121540853656 -0.8257666016268295
Ni 0.7851345539996354 8.235712248062296 5.0403556395850915 0.2346627857583507 -0.3409701881680386 -0.8081504312069632
Ni 4.242216857381503 8.496582705776154 3.8092532606822163 -0.2792403152584094 -0.8679756308947115 2.4452330062529306
Ni 6.899933459908757 1.392834666039493 8.41029990590263 1.3643216968643148 0.6775599878801944 -0.7460156095494312
Ni 4.61286278716471 2.2169412230981287 3.2900096378516457 -0.26886745666451756 -1.126415207357686 -0.1127780977356961
Ni 2.420358233204902 5.461489225628879 6.786899765287634 0.0774807079859827 1.4404546325731515 -0.008668474308275394
Ni 6.870883132843829 4.40307541571238 13.086355937950653 -0.5077170268107062 0.09992746702527307 1.039138596327204
Ni 3.187445895607455 8.961517380119558 9.518151972932074 -0.12442725193885024 -0.06654812023387893 -0.026971900603153548
Ni 0.12677758742252931 4.035767222425176 3.0410043248616634 -0.7198016701582248 -0.06933699583292575 -0.07569970482615995
Ni 3.7279835376179227 7.315227393955662 7.7888891859682525 0.15420191209812154 0.2500858051816403 0.90032396531843
Ni 8.38618776460644 6.223038649358011 9.426931911870557 0.5875052998839431 -0.6857911175407351 -0.9224835321346048
Ni 2.7169359993607576 7.187515055398102 2.1270544074735187 -1.637483152918496 0.2756896217926736 -0.8589258619876177
P 1.1597293681524892 4.378037769088629 12.65512685473239 0.08710151890519838 0.35210666440083227 -0.3754965040796823
P 4.076892574043508 2.4930580173269674 10.465742760793084 -1.3279812105620679 -0.3074707708590124 0.3670478590916969
P 6.102038767022328 0.5672293635902704 2.622711050872091 0.5277538908569233 -0.19902421061913464 0.8150073062277964
P 5.9539301771900295 4.062968387996474 7.518258853891013 0.01593518317301772 0.2695806806814583 -0.7775797575089576
P 0.17169187094130955 4.696398657639447 7.809160618842172 1.202393362656213 -0.21430376248602448 -0.46066969561391635
P 8.123745519622997 7.734071718070336 12.93713692664143 0.48623057480215615 0.5758011240731373 -0.6268714603863914
P 6.921929235875487 4.580853801709973 10.99238765250191 0.47959404332224503 1.0128907183742686 -1.749573480558548
P 7.953668891246372 4.1087721181936905 4.745639054472575 0.31319841737140897 0.6103845184749617 -0.7277584631114563
Ni 4.511676670233274 1.6537975818280337 8.346969823068788 -0.5299892079453453 1.7926494858124158 0.8004201524422409
Ni 1.2824767080996518 5.758261153741566 4.46262673703399 0.6374284099666312 0.8393584813786511 -0.6333516687940963
Ni 9.101175301925968 2.228600186315466 5.1435517950601035 -0.5159674397449565 -1.0517058914692534 -0.8581704718788318
Ni 6.886896871378665 6.464890481109884 0.6572289780659917 -0.4661628575180036 0.22885723482016715 -1.2651809874063953
Ni 2.749527470685987 4.80009963420222 11.152689613223204 -0.09485750870153341 -0.8065391208557853 -0.3316676798201901
Ni 0.8587968266791352 4.01005463185625 9.794655241913082 -0.4059494212529009 0.05450507302641581 0.10720831695740246
Ni 6.213996249654159 2.3952281285064694 10.46976191329949 0.565734998086387 -0.19472455480251624 0.8167453719648256
Ni 5.065269392388769 7.883650391290071 1.8997277392541085 1.178779322781699 -1.6052435761585 -0.7433547748878165
Ni 1.9977138822208182 6.6200628678478495 12.849353532215824 -0.4786954427673756 0.4751475775151172 0.5466131896552715
Ni 8.664125982906505 8.462280760069318 10.71619596723258 -0.4450371312829819 0.2664400781699476 0.8051242427861295
Ni 8.344267273545848 6.554870679389923 4.382259404778587 -1.6275350405668487 0.24590673410328617 -2.1387120009016973
Ni 8.473560645180461 1.3745649504824282 1.8158285085458732 1.230555684023042 -0.0886665493994731 0.6613993189599318
Ni 2.410788822475366 4.479658438971069 2.303649330115188 0.48559499810068624 2.062459766006177 -0.4594756753058151
Ni 6.811672981817796 2.7201535403596737 5.968839041732422 -0.8371969549509581 -0.13642350506877793 0.7435352663297389
Ni 5.871069250660467 6.412836585064199 8.358309805928474 0.533313644332888 0.16087161080881326 -0.3806081142746348
Ni 5.145541492827249 4.335433088275393 9.418149319356562 -0.9283816427865947 -0.20870210002853087 0.5386368563180143
Ni 4.738864651340662 6.691865808645504 5.823909160507673 0.009146699496274571 0.5592182800137917 -1.1886829550486562
Ni 7.322254207631457 5.176487210423148 2.5667831614972507 -0.059786633140329296 0.11732020858042376 0.8832017038158467
Ni 4.546542610195668 2.671751738263907 12.679389702690312 0.7810309492823517 0.38790130550193835 0.2777840424278571
Ni 5.487922989180321 8.923313703661162 7.915198935532893 0.20868178831355677 -1.6649793014562357 -0.2884242957505226
Ni 4.718828986557179 7.842830151318187 13.104043167637224 0.36115463353571353 -0.7022436066698035 -0.23284141627889576
Ni 4.364880985061451 5.908829128360393 3.1514944978482995 -1.1863728188582408 -0.054118893331590666 -0.2557455745705789
Ni 5.445438503864171 4.1746669880191964 4.077704355939212 0.6329922285721485 0.033410971360277944 1.6947866146256554
Ni 1.696716620095187 9.097023934372768 7.179156845446895 2.108583299837117 1.0259709485969946 -0.5058681465274255
P 0.5298744522574499 6.775457153965051 2.5758625444309744 -0.45840892460419763 -0.36132355501341 -0.04380105634535037
P 2.9132060002946503 1.745941299055619 6.934007958751879 -1.4266398381772463 -1.217175406061394 0.32017304891702925
P 5.190152513861074 8.2895320933344 10.15578816039231 -0.7339807898720843 0.8429099461753353 -1.1930353184800808
P 3.0132641287149724 4.570859083836903 4.523548287022378 1.5575794373133176 -0.9784142818639537 -0.08019784980682962
P 7.838327443081199 3.4494443418324288 1.3256426094262048 0.39953451886549257 0.3676656951813539 0.6612499378662612
P 8.551465818907095 7.945865429743254 8.194841156149337 -0.6294927000593223 0.08944713631923949 -0.6536376727366421
P -0.022118745206055824 1.4246217521149935 10.897974089540892 0.9051504401727959 0.19763864312551768 -0.14235041207617422
P 2.6845571816072953 7.564346430377502 5.880812482570403 0.07583263085959843 0.041834162426966665 -0.5736025737599219
Ni 1.6715125489370095 1.744776327314632 0.8773919946590789 -1.6638091924075347 0.0889992501485435 -1.3701830407410984
Ni 8.964771904348346 6.032713702626137 11.735412176387854 0.23692689920217905 -0.32049340837092544 0.6651215050065256
Ni -0.13259597406223625 6.384831034243171 6.3985259242649954 1.771405231721659 -1.12561533716421 3.017076945450533
Ni 6.1649749784580266 0.20366942065065397 11.706440438686405 1.8136230027402895 0.1593610877015578 0.34762188915660136
Ni 1.911912788916384 2.608695331331122 3.280415263441946 0.5641589118485187 -1.0650625152818174 0.9154837037780039
Ni 6.870698216694466 9.097430749901367 0.6057945511206719 0.431294841996225 -0.6643116075107205 -1.044667753675549
Ni 2.7695816270844045 3.6929234356986966 8.308524831035474 0.1414736658981757 -0.23376752763759095 0.5585747328925219
Ni 7.996763599855421 0.2753928475040826 3.940528008857254 -0.030150812551767426 -0.69886543422619 1.0201990791102236
Ni 1.9978803067552449 1.8079529297445025 9.565176149715088 0.782566926310904 0.10558826485547623 0.32738833571854586
Ni 4.969871150932395 5.154251043462247 11.732936149147886 0.20230416692198705 0.47185142326234863 1.1795809927473877
Ni 3.9939299436317963 3.3240434551419065 6.21419041161099 1.846297867265491 1.4231698773507746 -1.1829632789560593
Ni 0.6055652550954619 8.743538223250447 0.903673202387296 0.6157691798256427 -2.4160561275786585 0.9302184388850174
Ni 3.226722085732157 4.476579585084175 13.622027511490634 -0.32483574450002123 -0.4976467870588977 -0.21342675919770981
Ni 7.637314342916144 7.779311454011996 2.3207272610896084 1.0232044415954509 -0.2250705140842253 1.544180133188276
Ni 0.2316222703691126 0.5814614350259942 8.813396770737551 -1.3846956325349766 -0.18076732129147577 1.7609377565314317
Ni 2.435484374222796 0.9338912749354514 4.911718720280716 0.4587228563001906 -0.10739137950248602 1.841550582388493
Ni 1.4740683304546611 7.2610746996147055 8.514064678536933 -1.0009248042616439 -1.3498029344228495 0.3059131965639054
Ni 2.8771196137464603 0.43860723757784525 2.439093012877615 -1.0953891912898166 -0.2765599402127689 0.0714941513852446
Ni 8.551169953068113 3.3788433560056332 11.811300839505686 1.0254199611895307 -1.165890896854805 -0.41303229624161125
Ni 6.673633076318312 7.047357859988413 10.888744924526184 -0.018374645852445772 -1.2548757488256452 1.1072067527500353
Ni 2.132351330572022 2.4092632642431218 11.924511129049451 -0.5105475542809659 1.3105535020039234 0.2123620653786214
Ni 1.3715323256328749 3.6834279914289065 5.817210572996998 0.44786971563577055 -0.4370242882808344 0.4236139284121995
Ni 6.794762399958549 2.059059814771995 13.634476991246498 -1.0531040573683605 0.5954291827167101 -0.7998830489918483
Ni 6.708314100131344 5.448119788029935 5.943155113166647 0.475733017704942 -1.1088725704882323 0.5028846384190694
P 4.789836787912574 5.871355870691979 0.5884845503788011 -0.46197375913732047 0.9424471197407253 -0.3262259399793285
P 3.480131176819219 2.4824623219684674 1.4152215396621253 1.4609756353446388 2.0771055409438097 0.21366278646791592
P 1.3980030724141892 7.579222934593756 10.615367663050161 0.512359410678724 -0.6764659834850673 0.9677442037446172
P 0.8754180147646288 0.7653402047910726 3.6484501771961475 -1.9612428907455188 -0.3984947647470685 -1.9552658472264777
P 3.1828045002584435 5.722220996230716 9.193907977089273 0.4716765882473812 -0.3881908117178992 -0.6172719896234143
P 6.759378694777938 0.5279790617264791 5.785180322185085 -0.5719560392954344 0.211135649170688 0.4254638371367446
P 2.8241781201838316 8.681166006070306 0.38081816715966577 -0.35206938340499366 -0.08133402029380186 -0.4857178968317958
P 6.1103784853586 6.710570077153572 3.9540065469843233 0.7758419488822444 0.48892869045960957 0.3301921237159281
