# total energy = -340884.46607135335 ev
CRYSTAL
PRIMVEC
9.15349711294472 0.00000000000000 0.00000000000000
0.00000000000000 9.15349711294472 0.00000000000000
0.00000000000000 0.00000000000000 13.39706827446239
PRIMCOORD
 96 1
Ni 5.017324763817028 2.797034159800138 10.072197173422255 0.8062560423977276 0.09239567742460215 -0.08099772000030567
Ni 4.648228293529955 0.7798431838373024 6.395452428555416 -0.8441127082341849 -0.7858720794247368 -0.24226039559995055
Ni 3.2873595478880193 3.1465879134227044 3.5700241202338265 0.7728669254143206 -0.8119870313442339 0.058041882535080684
Ni 5.02655148906191 4.88784854497888 3.2913111126580747 0.4417579463110779 -0.9203788270867763 -0.8390293801740065
Ni 5.266034438051833 4.989141145732711 12.184406027762567 0.06545514428001631 0.7356378658595331 0.005531728451506603
Ni 5.962414203111476 6.021765479389069 5.169620651341178 0.502485860318754 1.1093073440328056 0.3975866511105024
Ni 3.6452338305260596 3.109726779929511 7.1127982791045445 -0.2898353171654363 -0.8661321499280695 0.31322335707207344
Ni 5.192028412650177 8.082446551565678 13.374293851909739 1.5042722412497447 0.18003404266987702 -0.9911332720925188
Ni 1.9824278240431803 5.413433204538274 12.403234110170075 1.4127785068141216 -0.3488773588302572 -0.34611059471839745
Ni 8.120497639703547 7.819365886622077 9.86668651418814 -0.44793219344258983 -0.9859093046894183 -0.15454361170825642
Ni 8.430526592128297 9.274689570559582 6.989103409140074 0.14673337163521827 0.1102962118541068 0.16635474541057155
Ni 8.361088161862748 2.5696979016831882 1.5699218083182824 -0.7187948261602652 0.5526010318075902 1.2548988887540968
Ni 1.512908335242617 1.535654775950485 3.005739389580349 0.1412019002940278 -0.40079538785578717 -1.7366266905898933
Ni 1.846901143511712 6.907439567925056 0.8928641606390181 -0.6871903118811069 -0.8969892445182422 0.16893201921944453
Ni 7.573914857414233 4.128126578833342 4.138019678679243 -0.2716133948407709 -0.325845159601142 0.011879525046405347
Ni 7.449747666990798 4.3285607084833195 13.178173765521578 2.055388975202325 0.4781395702639055 -0.2691489924606784
Ni 4.368158737659271 0.05941901215736693 11.223153342994497 -0.12566832343480291 1.7405998163050282 -0.7791087925589744
Ni 0.48318016812145825 0.6777542288212638 0.7267684606355184 0.5982908205352211 -0.7751526361247038 1.6698893371633434
Ni 3.251047624230831 4.176356355931836 9.675041572613694 1.2078343311661264 1.30019272759489 -1.4542342028557471
Ni 0.14160551806631577 5.107450097905427 1.9860086721739323 -0.8136659617085535 -0.31257980995080364 -0.33667387478552985
Ni 5.924710947869741 2.3439543520906536 7.645974849296979 2.2623468388462395 1.0346815889971148 -0.4647770329140706
Ni 3.430941306014226 4.59392059424634 1.172963923050682 0.15924924471404187 -0.7335259617228528 -0.10909756356031533
Ni 0.5870888383941265 0.08691154119804409 4.503705555884727 0.12662965890680772 -0.6426912010274672 2.1254078275936235
Ni 6.871200872246002 0.6675874394070869 0.5210024188276603 -0.7359263436342294 0.4248192615742103 0.746655042905643
P 0.0444173454868939 5.80582532536922 13.212912202998615 -1.0575150419518626 -0.0002853924509027343 0.22533919436457964
P 3.7794973284347173 6.373149932464985 0.05310126834385758 0.6543974337208021 0.1646202792179681 -0.9001005364537144
P 2.1798962205787316 8.788098809356534 1.8700302004053304 0.1631462657756029 1.090409221576722 1.011996231584457
P 6.337689284053603 8.074263325009204 6.350170077576815 0.47895409574540093 0.8331760067170232 -0.5238954363427816
P 4.5849959344112605 1.4146821560731455 -0.14745094142086096 0.43978899551016515 -0.08201459130059424 -1.3597435905753292
P 3.9118019779282904 6.452821972674758 9.017714288292904 0.6002685130868822 -0.44369321566057773 -0.6560964186897797
P 4.618836413806427 1.2996776164137258 4.148335670098868 -1.4075565962935501 -0.26326090911101757 0.7868982066964061
P 0.11277200167606008 5.710674721281376 4.3197907427520486 1.0466742425826168 -1.0023695071279706 -1.1490599413403952
Ni 2.3237342766284073 1.6023471570360097 5.322641495848855 0.8600589471507961 -0.0941424849123798 -0.6247577564774982
Ni 1.9570634831170222 6.630573736097735 5.368513332051435 -0.10436956195702671 1.4440323226220808 0.10705919297404787
Ni 6.444602132129218 0.7239848821167004 9.5931452325681 0.6793785291461719 0.08752909336092023 0.2863231902471198
Ni 8.239090350291532 2.149964284516466 10.438392900425496 -0.5747533995349133 1.0456972233813282 2.679814802261701
Ni 3.7290890189867367 4.883756931700644 5.511339926653135 -0.30905637017857746 -0.06541143552627444 -0.13770699976689188
Ni 1.9108749359090127 6.212094148056557 10.011803313805979 -1.0833618278116375 0.22229218000813977 -0.7326988378358672
Ni 1.2703406576737988 1.3376005555898622 12.095034026499222 0.05235048857725822 1.1115753141313758 -1.0776092415985763
Ni 4.07296760430392 7.496869870920016 2.074147697355447 -0.6784575599937992 -1.2723916462222216 0.2208644464226777
Ni 5.341459255529836 8.058711533153 8.37011351016776 1.3615757586880617 0.3563333008876702 1.0892208576955755
Ni 6.8427792632327495 1.066647882996859 5.34612662378615 0.06949589000829322 -0.5263361845737903 -0.23039989671693867
Ni 8.328062343724321 7.352821284433206 5.21983307594765 -0.9890815317698128 1.5097214372897743 1.1155314705656465
Ni 4.958925451255177 4.698197235109131 7.955166256721822 1.3356379557763771 1.4115220086992013 0.058649691322408666
Ni 0.7751730695318076 7.726265665921985 8.268537150998661 -0.12776197273903803 -2.1923297862271536 -1.2165706825978597
Ni 6.16696740653149 2.510767686279866 12.138681562865981 0.7535083183820507 -1.3957287504206866 -0.24028733103397973
Ni 0.8023086121790818 7.29471488378389 3.0159080096939785 0.3184671219695161 1.0065629763840278 0.32393097329756465
Ni 7.17250654177554 6.4058004572154745 7.505828398694983 0.8282181484911156 -0.5114309853271837 -0.31271170754297756
Ni 2.496140397647603 5.375986247220009 3.291672675800111 -1.5577488730116462 0.08149651401359513 -0.40210613624741076
Ni 1.9998835433308688 1.527087102508809 7.583665162702773 -1.2744027631149795 -0.25522055530504434 1.2083228407667705
Ni 0.7666420100791986 3.31108541280343 4.407408018589359 0.12954117612664787 1.4264308074902339 -0.016311078455197716
Ni 0.7742641272532197 7.405408126230673 11.905948402760558 -0.3624936640621112 1.3849334595773954 -0.5376775777285385
Ni 2.5579905786790182 5.564172997527078 7.575010531037063 -0.9829587067015266 -0.2952336053628722 0.13066140577402013
Ni 6.224542904339334 1.4709578572691115 2.818810329797731 2.609985440173389 1.2114991816122231 0.9727370289735182
Ni 4.143092546864475 7.440996923603788 6.5605577201546526 -1.1489378139402342 -0.7958433317048359 -1.4548468967390817
Ni 8.53735705872851 7.777488636626706 0.7137164888828627 -0.5790049757224157 -1.4025825401177265 -0.2884638907392064
P 9.133853861613401 5.598059244408578 8.72288471807959 0.313870246627453 0.8995261520074831 0.28744290567385977
P 8.45390462414757 1.850315397992209 8.407866194294735 -0.8870786702727497 -0.2501914775215691 -2.009684274076358
P 1.8821970289722916 3.7276885339049244 11.072717446114948 -1.3067485264355365 -1.7533584015222772 0.866700877947346
P 3.9866135110894207 6.59205581959926 4.156748649436736 0.26522548903655613 0.15543167074016456 1.0291022951371245
P 6.853433934051244 4.196484896421415 10.917954691077409 0.07342530696968644 0.3405809231494199 -0.9762365574863444
P 6.259234658980308 8.27740688985014 11.074754099256799 0.3680683299364113 -1.0366112019196598 -0.4481939317444088
P 1.7278873720494565 8.713351350676271 6.592737755145632 0.3574977535094166 0.0677889346195155 -1.3399674363896665
P 6.84767638427046 4.407134329021083 2.019031744263178 2.12929584979412 0.6634747134317219 1.931548706115196
Ni 2.661022343913532 2.019838167372379 0.634178089733184 0.772581790073734 -0.3331486352410908 1.2530458947057581
Ni 0.8781123844439273 3.4043595499515904 9.140873678667269 0.2799211433755179 0.2649256984079502 -1.4941225544102525
Ni 0.46354408578483075 0.447632561486043 9.430075678760987 1.105710627820483 0.0022232329035639133 1.1421498444841234
Ni 2.596471881188426 1.7890235802940655 10.009780390910029 0.8511673010881212 -0.23592674007243883 -0.2997849721789805
Ni 5.64263677609764 3.331085804331274 0.8633862380411834 -2.594360074931306 -1.7959420405207585 0.09049126131303771
Ni 3.953239860054858 6.818696411923936 11.15311352795852 0.43742666592557566 0.2366865010565988 0.8508238017057734
Ni 7.1326064471897865 6.609584766865082 12.083726711325607 0.838866115123265 -0.30272579997485927 0.25512799559123805
Ni 7.605778181399782 3.8558741096284614 8.692098760722336 -0.8091305357320452 1.5688151581281369 0.5029026361411983
Ni 2.986575627702685 8.727530117942464 13.105093158693592 -1.430408561191059 0.6131451119392344 0.10132897535848999
Ni 9.12332733975664 4.726353392701648 10.94457397647884 -1.464107496105401 1.0529089106384188 0.7661182938365773
Ni 8.560542867305182 3.146606220417238 6.581510990747966 -0.5152171918424934 -1.181192560208882 -0.5903731083500413
Ni 3.6568221580657627 3.457513908579595 12.170714226550965 -0.2600771120663973 -1.5213029714797865 0.5457575265231955
Ni 0.9163932253631933 3.3298958496865967 13.393558302257336 -0.9985791868476027 1.5689344573148205 -0.5507796623281354
Ni 3.0401876611940275 8.657533324343643 8.598251614645276 -0.5048908702158207 0.025341306978266035 0.7142635139488149
Ni 5.587734099491686 8.096588704842802 3.9921385620396292 0.99203907173624 1.417555616487791 -0.19198915814922418
Ni 3.1479609380127167 8.539535591077996 4.212238980567214 -0.7146427516651047 1.753196936243748 -0.1746187851915767
Ni 5.350502910829382 3.090339672718539 5.338771788732319 -0.4595188698389247 -0.330345875684973 -0.8874635644159942
Ni 6.355822362139031 6.065629038291325 9.679301610241637 -0.9007985909620035 -0.3493823234911338 1.337969432123031
Ni 8.20990900100514 9.050044440639057 2.7116604061429075 0.4606601825322196 1.0893028758864207 0.5467173193333036
Ni 4.468069160325824 0.6334091959627771 1.811403881111264 -1.5379945732028546 -0.36142614202954526 0.16692013099573835
Ni 5.797568870834614 6.014946123925342 1.111535718243264 0.3256865225360907 0.1671168203875767 -0.31160150519793434
Ni 8.06915567353436 9.140737291557995 11.941021858237555 0.38718962414689445 -1.0436917629155251 -1.1928152320494747
Ni 0.1884723394217914 5.384947521044155 6.40836709784907 0.05057179941028064 -0.5278317952827103 1.5272774438956664
Ni 7.616405391726477 6.5220224120113715 3.0806561879600465 -1.5919892822517552 -0.6621925042851886 -0.6439237878829878
P 8.38736785251558 1.7982319985444135 3.994724425017486 -0.29386809247391327 -0.1698074798458624 -0.3502341299684678
P 1.631537659819669 3.6077044917323935 2.139404810069546 1.0641652002785287 -1.3587022937950084 -0.49352248047787906
P 4.518230325347602 1.2442806509553679 8.66387120585114 -1.670632128866639 -1.02285914244089 0.40756355981755615
P 8.393162016285432 1.8232942740607694 12.801475315754473 -0.8316225461869743 2.298329941809068 0.18943810959259633
P 6.567606828399777 8.033164122281507 1.8883838777748867 -1.559045994556515 -0.12848316717577873 -0.9938537563474755
P 1.6736895147330426 3.580866437746289 6.454546491559814 0.17862662079938915 -0.09658117626085948 0.1343797351658718
P 6.616156977902607 4.452700438414954 6.367640442460129 1.2347319268879187 -0.8791445030273376 1.6811700522834852
P 2.125652595775984 8.980651777859842 10.958212687406293 0.4311896838769283 -1.5859626164417007 -0.8500406436828456
