# total energy = -340865.7972203551 ev
CRYSTAL
PRIMVEC
9.31754662422601 0.00000000000000 0.00000000000000
0.00000000000000 9.31754662422601 0.00000000000000
0.00000000000000 0.00000000000000 13.63717131660038
PRIMCOORD
 96 1
Ni 0.3879472268667505 3.0776042224924804 11.431876617692586 1.2456899685613192 -0.5114759796325064 -0.2774063473734642
Ni 6.396859011770335 1.9858766242786596 9.415539070609425 1.143275216337818 1.0348425400550114 -1.059337696982898
Ni 2.1735320094746275 1.7488382429784899 3.2407097363421555 -0.9918526667570466 -0.7697988280119581 -0.6645118964469846
Ni 4.398496875269103 4.4068733495139485 3.4485674257179593 -0.5102120253184181 0.28687032099984144 -2.4304658752460853
Ni 0.9873990307838679 3.6498320192365306 0.7714611651398445 2.551886479148128 0.5982782221297309 0.7015753769581853
Ni 8.670275119025538 7.541584814105043 13.616578501833198 1.6816349077350459 -0.5251815021440568 0.4947926054395543
Ni 0.6522263869235704 0.2971030126371752 0.7146054967949689 -0.6085950306747067 0.33741589515787695 0.9308555582483838
Ni 7.72543864035563 1.0573644869624441 1.329943717383344 0.06883383094426211 -0.4564548862016204 0.32525971941131726
Ni 6.272488401959223 7.0965415261953995 7.454732236768116 0.23160522987894952 1.3215267131859756 -0.2782928637434755
Ni 3.9613641842825675 3.227225383141778 10.05489047186945 -0.9628783910118837 -0.21733483600286443 0.4234303516464836
Ni 0.8812684498734334 2.3482639577655897 5.103479210106257 -0.5829043107768219 -0.13428923233459455 0.9736914224669877
Ni 2.9688405029595843 8.776299479906616 1.0780634163672524 0.7580589138672106 1.4692995818293018 -2.0519444682971497
Ni 6.33103054620879 0.16846683006823313 3.305105163262035 1.480614749731805 -1.2245097349392782 -0.022055180027826533
Ni 0.8341943417757637 5.147981675387935 12.54558337619135 0.9123094198150804 0.643542236173853 0.25721675979946673
Ni 5.301674603829221 5.123700149378963 7.428207977332299 0.19578102109148862 -1.3584462119201441 0.3108918807254194
Ni 1.4743433250106046 7.2904210324097845 11.822635880073346 -1.9055563958164923 0.6903543114313853 0.6448033622744638
Ni 7.463000627474318 2.77002269713478 11.399856869369549 -2.156601993808241 -1.773878632962816 1.1068712237874874
Ni 7.7050332136635165 8.728463196510583 8.724598278249447 0.20685527662777922 0.589508703467217 0.16123773589898036
Ni 2.7192513866117993 3.42897821609353 12.516917944584828 0.5478483476139533 0.04638372947086205 -0.20264792341465102
Ni 0.6405384566758136 0.45428815748220686 6.9429697258577665 0.8856725339538425 -0.326003025335245 -0.6164605494657126
Ni 6.702418629551694 6.299341570784188 9.638616040331756 0.5420178569751053 -1.1443597076512486 0.19990095679713316
Ni 0.4731123965443426 4.0754202701904045 7.914877403939211 -0.1990262675016637 1.207549710046172 -1.3706854342988135
Ni 3.8526190998425407 7.441896384799598 7.660748778968412 -0.2621774462388517 -0.36942870061904765 0.858386958765012
Ni 8.75973288234562 5.9182259689634 2.940488140913268 0.5858484810068104 1.0008751819706312 0.1458332284184521
P 2.7435888178993797 1.3010276437777248 10.88119378356962 -0.7932737712054467 0.5272895496259952 -0.6781721675428966
P 5.206728805659066 7.807488954260084 9.46134692414661 0.15234583272598926 2.131029287545459 -0.8241054118743226
P 7.062206367583328 6.879871301401605 12.159910562409324 3.0159939967989997 -1.677540683061014 0.47101118674924036
P 3.637216061363872 7.499171342734038 2.493734151478204 1.1847309123794436 -0.8149193744996803 2.077543142701861
P 1.1144996817003623 6.793423105579946 4.4286847939630665 -0.16906520236319916 0.6132574691473826 0.23682842595110176
P 5.811940716782148 2.3358809385538004 3.3285881755415487 -0.9422185486696869 0.07683021888617737 0.6007385107447654
P 2.336952456393797 3.4094206861269796 6.841182053340571 0.20521696969340786 -1.9379993468365464 0.09122068327989451
P 9.029494486724651 4.057260372189067 4.132021569517612 0.28380608025222087 -0.6620132983948469 0.3190944711408698
Ni 5.347069690059347 4.81619316439274 12.769097338841473 0.051837810606897815 -0.3094816306414541 -0.4545509843106881
Ni 1.0773878942507327 4.807164461897462 5.806694006384738 -1.7553129541454866 -0.18623400083300184 -1.6271663443735203
Ni 1.505249626534687 6.846831281743964 6.663503896866939 0.7830855178185352 1.3686077258341784 -0.3120848725922561
Ni 3.7879553275853404 3.8581909926105245 1.0066919424316718 0.3476637981381303 -0.7392932032239332 0.18481166656417847
Ni 6.690221961268599 8.712520874560717 13.30303281500261 -1.4509925559899979 1.883605345466698 -0.8749716025965706
Ni 1.6943212787887378 6.879778125937258 9.115576502971424 0.5088596250555816 -2.2568526485008875 -0.30185239623097043
Ni 7.959560629621722 4.052098451464213 6.054658142634302 -0.6689992427943768 -0.9318683157836144 -0.013206985608577256
Ni 4.272225485985302 2.3328341008696354 7.719402733775197 -0.4610491904405221 0.24809911376891466 -0.5962581063759086
Ni 5.418125299170789 1.2368670190280011 5.341052418571782 -0.9276943869115829 0.2720170580370928 0.061939417817273974
Ni 3.087406281341843 5.544014669050766 11.620601657219263 -0.193004486787616 -0.3719206138029659 0.39896733350811286
Ni 5.1779469047221065 6.958017563349896 11.513113509793284 -1.3116464779577863 0.16651209692404226 1.6666034673232202
Ni 8.788319114807448 0.2211855077960775 12.278895630381147 0.4072527134453567 0.33913364917993205 0.19684134403520293
Ni 5.163150640983716 1.4299172636096922 1.414243286997147 -1.0158120057861213 -0.4782316157570796 -0.4651056198980828
Ni 1.6959425318683852 1.324843292464959 12.75370009335804 0.9341504269495718 0.23387808507352623 -0.7425065679549083
Ni 3.26994633354513 5.266761757338192 5.495275515405205 1.083063065624296 1.6117921759102953 0.02202818344463303
Ni 7.8888590872748 1.8642267380264972 3.957888739462404 0.8158429147552143 1.9819377000907095 -2.4603546923857174
Ni 7.99619722220318 4.81393831815553 12.198149772977558 -1.2463653973617892 1.2864776920016423 0.23055879089230613
Ni 3.019714306493347 5.044314653754849 7.953198608916072 -1.3661561789698922 -0.11818101391882227 0.260928404323099
Ni 4.1660986320934414 9.214606181743932 12.67146808729811 0.4094291522713852 0.7393939904678557 -0.6180554047566581
Ni 5.336056350173466 4.038094179172776 5.378077552839568 2.143552359713134 -0.6098420157079304 2.1724104215954068
Ni 3.2836710794435247 7.803165612714358 10.550342617745763 -0.27829106397126263 2.04693827333181 -0.44377651940300344
Ni 6.058305962063509 6.6224927162343645 2.6549659067398497 -0.8640444141611056 0.06805607223797311 1.8016020670200135
Ni 6.86806597006877 4.538446422719125 3.6537258218916144 -0.42166323244373183 0.10243300705594616 0.8702091482109207
Ni 4.9756536540771386 7.085462963484476 0.5888885015240356 -0.8651443320935036 0.06501677119101706 -0.22226621186621073
P 8.936719676873794 2.3601997347485115 13.615569411554313 -1.6020808621598022 -0.8358026457065929 -1.2656934082664397
P 6.495457288142913 2.4407871938627084 6.947034039612606 -0.10374349833725358 0.6282035489342536 0.7283469886250746
P 6.866239730967558 8.242124542802104 1.6103450280362204 0.3154902987293792 -0.26779813485973875 0.9008410141641647
P 0.509414489208792 5.833669235067997 1.0430639166943818 -0.09119934312365584 0.10951073983833398 -0.5699042989727282
P 7.809399051279208 5.212561589727223 7.845955512961327 -1.092968754773782 1.4372348400842732 -0.5028668978072566
P 9.33487707112375 0.7373524229061365 2.815980563169566 0.8816963229149138 -0.9151777425018109 1.1069686685973001
P 0.17627027520734057 7.962542244480844 7.91924174268925 0.1222955503078281 -0.42033217233713416 -0.09417462370189587
P 5.9589809170690184 4.471406676121062 1.6114090918390696 -1.5367141638285342 -0.35583065021963883 0.025444151104717472
Ni 6.808545483443555 8.718512056918264 10.985873622500163 -0.1022813119694303 0.8376242722963639 -1.4986502670772772
Ni 8.31214590425929 6.7519413888524165 6.239769837653581 0.68944414091229 -0.8209293281391861 0.4818764115985185
Ni 4.412286843992542 7.761013032643525 5.388891497231746 -1.4091707348582054 0.9142673148723997 -0.6243281251392473
Ni 2.545590956160834 0.1997775131075842 8.795334295518177 0.7616137210980044 -0.6349550087254742 -0.5628463636846822
Ni 0.6045922942851719 8.584469833907878 10.01883436243088 -0.9120875336122615 2.2606188004115393 0.7201608532698566
Ni 2.3230879472988817 8.947146011334285 4.610714244621729 -1.074577653861104 -0.5819164929422559 1.112690915793058
Ni 6.734815738505337 8.340797359546162 5.47885613507788 -0.6311772868505969 0.21216589020741522 -0.24815516381783068
Ni 4.2554818550420475 5.808018029733116 9.660571906750615 0.6773938946159753 -0.8534746090650592 -0.5124157178379563
Ni 1.8788925561148015 4.05830393738976 3.560774910413141 -0.7054310032588496 -0.2715671149838678 -0.07470854455748424
Ni 3.3615284974523383 2.9690827591668882 5.032171095486433 -0.3174667057294597 -1.9667262824575937 0.043762489797931084
Ni 7.194226683017373 5.874163291873443 0.7127634178648179 0.8611033292549106 -0.026726360251250744 -0.5695155481747417
Ni 5.804113977776955 0.42380766783019247 7.643920358352602 0.545320438985777 -1.0322408407661061 0.5253846192937984
Ni 8.336548558371915 3.5193770516035245 2.1862840035252336 0.19774662945829172 -0.16358489597491827 -2.0471169650015195
Ni 8.134665279770076 4.233101108505766 9.651980197183125 -0.13694621034146737 -0.7073984113978655 0.7797644238651021
Ni 8.848659545518924 2.0729490957114463 8.074650963183817 -2.4353535423556893 -1.1253168320871847 0.7872730735373216
Ni 4.669423172952477 0.7702564063858307 10.29929623713558 0.4460079798366835 -1.082501279583555 0.10404071786269825
Ni 4.108460289848046 0.4069820424783117 3.4817602531371312 -0.6741974991658647 -0.1128943115985862 -0.9737788399744713
Ni 1.2161075255713667 8.15343081828967 2.2961173773888395 -0.9697686903738136 -2.3866961863593024 2.6953128978973
Ni 8.902449741086766 6.426050884750422 10.43385372046381 0.6026012749851171 0.22952186498735952 0.769412648317133
Ni 1.6817612261946877 2.312885233952825 9.02315669163973 0.5938399838527192 0.42189334617666696 0.4852201312597708
Ni 2.51662270429518 5.6255525179013075 2.1439543900721407 -0.21768604869469604 1.3844179533935577 -0.8757601599361369
Ni 7.79548795445212 1.1035329295466556 5.833327281113841 1.0520743305522655 -1.265495947543653 3.6404805018929816
Ni 8.78941858528675 8.313226739645721 4.446577278381726 1.1763488589633353 0.8400084562578243 -1.0413877973726968
Ni 6.632993591066334 2.8665524781988427 0.22616946338402805 0.16639125507546182 1.2034297743405273 -1.1345005554689815
P 3.8384843819010177 0.16275051533051088 6.885216777791224 -1.4260081181305182 0.3212523980241371 -1.053845306409759
P 5.880331507613251 6.3500010707499515 4.955734603308919 0.9129169714920923 -1.6820658246248774 -0.009783818859641216
P 3.2041551381693245 7.302151823371141 12.994710544703347 0.3529391876044567 -0.4982057448861614 -0.6781089184051289
P 8.62477753978463 1.1388557480808121 10.385346573724474 -0.8982357153308337 0.36589677620638916 -1.9965029994993937
P 5.452106391018341 1.687538104984236 12.34307209495981 0.9264689991449141 -0.23734187525241063 -0.13743137750800202
P 1.306198882049014 4.418520282557392 9.744181046173601 0.6423268757095132 1.1715889756808466 2.2873988967188605
P 5.775574333047299 4.275514579876771 10.211540789549128 1.2650416336150536 -0.47793619600384785 0.6427379951050028
P 2.817085624176728 1.6427113890866292 1.2022243813835818 0.6938075600873084 1.3020675760200995 -0.9554838983200253
