# total energy = -340896.9862399581 ev
CRYSTAL
PRIMVEC
9.01901912159797 0.00000000000000 0.00000000000000

0.00000000000000 9.01901912159797 0.00000000000000

0.00000000000000 0.00000000000000 13.20024614088918

PRIMCOORD
 96 1
Ni 6.330711022972475 2.1520822497112952 11.35891696034337 -0.06551145143924847 -0.6740532602785165 0.44778332656955144
Ni 4.653065251384242 0.24694525110730262 5.944797118730212 -0.3137434912416016 0.007740306067051186 0.633792870096573
Ni 2.8225290688549762 1.685618584428715 4.825811934666462 -0.12224772778902818 -0.6387504712121644 -0.6426086686159901
Ni 3.525931383608529 4.265121165953754 5.016594852245515 0.09328373645651032 0.34191609702107567 -0.416284998850954
Ni 5.037798566032818 4.207498653241255 2.8879494254383817 0.1837857964028254 0.9839490956392538 -0.10327967132695762
Ni 7.13803047522382 5.975668319037554 2.7027763377086296 0.25296929737702234 0.368121808882166 -0.8190524228314475
Ni 5.30371532371247 4.663355952120659 11.544129731756943 -0.8035000769191454 0.23665744759087634 -0.030444432532786277
Ni 5.7718384885003085 7.808179666738841 12.441693488625798 -0.9520540467028701 -0.0033645455968587218 -0.4799020614809671
Ni 1.6935012070786952 6.474239692139276 0.2873639849813143 0.7759856735489603 1.162623796067759 0.35990353473743175
Ni 2.5445268256478952 1.5912255310480599 0.3672228891623779 0.8524037445983835 -1.1345792312257168 -0.750649765887333
Ni 0.724293970481715 0.14735724275366277 4.602688618576772 -0.8274254773864911 -0.43719038154505346 0.47840696499267926
Ni 8.323769928788517 2.2038694570982362 1.3682320888326938 0.29161220656020104 1.0527636433098062 -0.3091036784767451
Ni 6.810991825440146 0.5088287034676512 4.809179961635767 0.8051137012631683 0.3875272099919713 -0.39827699230930763
Ni 0.741934269842237 7.483675361308307 2.6555329121192406 -0.11493602461896334 0.09891265260751353 -0.8942242801785953
Ni 7.6073080744501 3.821863436687648 3.7987007919626143 0.5317570984790455 -0.26306164861601794 0.23777407769382275
Ni 7.542046452601982 3.9746185623429273 12.571333770357011 0.7788475684777877 -0.7363153515425319 0.22905649531516678
Ni 7.817126533636759 8.835680431065663 7.040694515927045 0.5267007670020607 -0.2630451935557857 -0.4105061873856478
Ni 6.6784663595147356 0.7952691408982128 0.3290228339747451 0.4181037972272476 -0.24074267340384342 -0.36508430760742283
Ni 1.9751741910392573 6.558711824564578 9.087749386895453 -0.22932491848520503 -0.3740844542235041 0.2739556698207024
Ni 0.08639318348302084 4.765334000522633 1.3427948475031695 -0.7845217360444295 0.104300142171672 0.9137587506670972
Ni 6.356559531570692 1.9139891658018824 7.054396209668292 0.5529075073044155 -0.6338216664519793 -0.06373224805163863
Ni 3.368874185866246 4.204332977554593 0.39882463001279617 0.582860344912764 0.46129113124799914 0.1425640707488771
Ni 5.927966727280409 5.527585414579527 4.897080223202097 -0.06203274886202865 0.055057860206092275 -0.3909290365846687
Ni 5.397864863578766 2.8496582781583406 9.065242424855379 -0.3412771778854961 -0.20183905436011043 0.5952484341644716
P 0.1521824179455843 5.479793632631878 12.424599741819726 -0.0580789064206032 0.7635196798714656 -0.8307486282224532
P 3.993964358205865 6.156707088434639 12.700537531566189 -0.4219067159131057 0.3189556315701604 -0.6372111517495026
P 2.31397364166455 8.472349248623498 1.4069877155938262 -0.11621900509644502 0.4543375827483014 -0.7476482600568478
P 6.4297308331259435 7.573991818078216 5.822958288477526 -0.6386450559825517 0.10473491571624542 -0.657140543683578
P 4.5269252509464595 1.2003051693309648 12.526888044477031 0.4865537624695298 -0.3504146214103901 0.3403258697158203
P 4.021526480423645 6.192233004473852 8.149198697952418 -0.24302272768727176 -0.10558903618642461 -0.18407221729499265
P 4.568737423263745 0.8768723233636083 3.8015787609415717 1.175024226614641 0.6845122508283115 -0.9722721735219578
P 0.2756131050606516 5.5507462555007505 3.509509553721705 -0.04006755744484712 -0.981100313336549 0.008702155759688239
Ni 1.4456495445568354 1.2502615158506905 2.533483938722682 -0.17457070556246065 -0.6845950403501049 -0.0562595938236773
Ni 1.9334341708743736 6.507519872434958 4.738096562990664 -0.18496259031974596 -1.2999708413920708 0.15611609840169888
Ni 5.94347042102791 5.631899388915535 9.047461428797671 0.08666494558841205 -0.008806542548036447 1.2087061922481184
Ni 8.619377297181824 2.3794787770270283 10.195038707054746 0.12592543375093154 0.294403396152093 0.27477096663314615
Ni 2.3424917799016636 5.20946657463662 6.986942966190945 -0.14938006522944597 -0.27482033181384286 0.15126031297129433
Ni 0.49300122693624365 0.04271317232041324 9.073242294753012 0.11271921947330266 0.27834068626227554 -0.010726128168252495
Ni 1.404279304173015 1.0092913648642252 11.394769364872205 0.29748692017342315 0.8203163771455355 -0.3482685216016647
Ni 3.935394848493083 6.859622376159475 1.6869786525015036 1.0106145207455821 1.1658659571541403 -1.097946667604348
Ni 5.773371721738863 7.852481088314016 7.986294470159812 -1.3054591182001516 0.38434495560924775 -0.016588243375984336
Ni 5.250223521725018 2.618257306384266 5.0780161757820075 -0.1577988854207605 0.2261850873046427 -0.7709064592538402
Ni 0.7835813941109023 7.513627523574421 6.827378481152674 -0.20750190907284263 -0.8851734828302369 0.3816686943286653
Ni 5.077644592197134 4.340772697747842 7.104319185817531 0.04444511768725249 0.8834205046948721 -0.20359974580495904
Ni 8.160859387682578 7.158386401220394 9.044306575933868 -0.22574542866406286 -0.5244716205612258 -0.1681293208124911
Ni 4.692848144415207 0.39464882419249775 10.477695665993698 -0.7620402671124618 0.05776985982061664 -0.24784380322499894
Ni 8.284699538262528 7.064281956449348 4.616878241248641 -0.6023205105199045 0.9487684339730628 1.0824531999544391
Ni 7.202056491462046 5.924972412955703 7.024840884240391 1.0053805260401523 -0.1172253348737723 -0.49798411579365853
Ni 2.3489944926369444 5.332909888378358 2.291074352295786 -1.6980079497764307 -1.2448541029235851 1.5737493622049605
Ni 2.427838757174847 5.249168296496131 11.44029647113632 -0.5672460354142747 0.6358402395439049 -0.25019276307314975
Ni 1.2149069611734336 3.3229042457667624 3.8302628491292112 -0.5052935049708782 0.9565902440103268 -0.3157304397646433
Ni 3.7471228258176406 2.4092325208740357 2.2708906895630734 -0.4813987006311516 -0.01737114428859589 1.0044317889736378
Ni 1.0696105642727691 3.2430318130571227 8.372876683713702 0.01786659586777568 0.551118790835109 -1.3970608389685488
Ni 3.6661410537648127 2.5005861648347327 7.081826654207938 -0.24509889349001016 0.47335603283233313 0.07084880449176185
Ni 4.1572446790928685 6.896546240151487 5.978259483210712 0.0009374242126048372 -0.7088451711467212 -0.10503290657263847
Ni 0.6564880833594998 7.376682738314353 11.195827842660234 -0.021550472477266113 -0.1793035922617557 0.23758355894957148
P 0.2783783363014799 5.3650536722737 7.86906255483803 -0.1290488098712616 1.53374248279472 0.6072395450880769
P 8.540100119729507 1.6328843800414905 7.909970119544569 -0.3857436357289873 0.48200290987405364 0.45867811910518425
P 1.894003019586372 3.444976668612851 10.353639058956539 -0.7649687536131664 -0.4373366773149307 0.6593172396199226
P 3.880974087543449 5.976606297018788 3.6663944882001265 0.9719566991640679 0.30376786808612843 1.439373740804147
P 6.861236780569482 3.9527835172221013 10.28964460928499 1.0029642032891757 0.7093668479781461 -0.09739030242571614
P 6.312050672557361 7.865793160432288 10.20583627666179 0.4764002189752957 -1.1588735849967073 0.15608781626692472
P 2.449051489981201 8.408647917071084 5.724801598447173 -0.2892596471676245 0.7759998146163475 0.6920059881021953
P 6.892929613512308 4.0098558697725295 1.610918559144435 0.0969652990731556 -0.11314833659092126 0.4368610232300928
Ni 5.398126415131226 2.9067035736516185 0.4668397583769788 -0.18070844302908234 0.0927754293615241 -0.11194583164238786
Ni 1.5932457913153317 1.168801735788195 6.981649703910311 -1.0315199034396816 -0.05308916651549567 -0.053495143704662705
Ni 6.859045158940254 0.7403929194865372 9.279244806979479 0.1619231920017792 0.3359699067399698 -0.5941230623107768
Ni 2.704415995371978 1.69278870457372 9.39225221377809 0.4243063264935337 -1.0437652964659379 -0.6863480184854696
Ni 6.2273711026939 2.053495352472241 2.806491449179696 0.3347833426310363 -0.6851663394725426 -0.5719825216579955
Ni 4.200752426991615 6.920500754749138 10.463584508787566 -0.09202389590748024 -0.16595802419278516 -0.2944018534901962
Ni 8.027179487318726 7.225100085135615 0.23728407790059924 0.20615207991316756 -0.3697269485857568 0.31651282645662265
Ni 7.569292909152999 3.769237460529027 8.221509585090267 0.8851138332368951 -0.08475564438084114 -0.3781439690048584
Ni 3.150613924848488 8.324022461321926 12.322139175898558 -0.05017327842028133 0.007046108213503995 0.5805052144170261
Ni 0.20232004674822143 4.986047434722079 10.151199961156854 -0.028726935621047302 -0.6288180425898009 -0.20822875993653817
Ni 8.666943603653216 2.183739006577921 5.601484550972139 -0.3002721962280442 0.3783586561188258 0.7300179485695945
Ni 3.6890674001907273 2.9806595298642473 11.468096695457026 -0.012432826446714073 -1.3569783691253663 0.3847524754603116
Ni 1.2218516058421807 3.431348930827817 12.786827898232037 -1.294036735295823 0.1281782343408502 -1.9220554219127801
Ni 3.0112790995400855 8.391241210303965 7.825119188319152 0.8957044642685477 -0.11073587049468672 1.0498410703463725
Ni 5.501340069143095 7.798330897935891 3.653656927595359 -0.5992066474812712 -0.3699069258070468 -0.08467414041062836
Ni 2.9092379180047585 8.369631640659398 3.6136864389681476 1.1641510313455627 0.2644467018890026 -0.9766021683558793
Ni 3.673437440176522 4.338905760804426 9.412712760395648 -0.48838875879573956 0.8512516332718113 -0.6203678549399186
Ni 7.320918143526221 6.084518859955874 11.211853737610749 -0.27510083916873906 0.30239361344642113 0.34184127791908225
Ni 0.4846505171975518 9.11074247406234 0.18167911974965775 0.10046302781376892 -0.9302755173751978 1.2391593665316532
Ni 4.660325561719751 0.28909563663897586 1.491575291462973 -0.8161784437177622 -0.43768069091791073 0.1483390255594413
Ni 5.88495502542943 5.604761160593121 0.4780657313889128 0.04960712150416618 0.20883785427544677 0.4627291492461063
Ni 7.821500757876164 8.98692938053954 11.431808672308062 0.3586393233130275 -0.476952749044656 -0.20269754570566384
Ni 9.137889721403806 4.74073913557241 5.701569507275451 -0.09351822106481959 0.08840403976670581 0.10863682187381292
Ni 7.717258935692559 8.835824735370469 2.43425759303296 0.49811601338583245 0.004362647844069906 0.3043970170296951
P 8.480601651054542 1.6566855713152866 3.452616679650378 -0.5954944887370066 -0.45131987896790016 1.219278568447326
P 1.7426548609029424 3.241309180418512 1.6413189666573507 0.6544683961680535 -0.12162603504462925 0.5156298538998797
P 4.552070276058753 0.9849309944093092 8.273228247932426 1.1522355108548994 -0.7789552977002456 -0.22745058428062767
P 8.590101561344484 1.7684582744059096 12.397670754739279 -0.9816515578543287 0.6240211354217898 -0.2592170780589471
P 6.177090071488363 7.656010777321832 1.4496242262523118 0.2913471258242724 -0.20412245107764843 0.0725444470266299
P 1.8379137401124284 3.217679350506672 6.0155107375942505 -0.5602572628012674 0.24613556228464062 0.1910872151602451
P 6.897132476389757 3.811969572789446 5.9843184602087165 0.4976897244816913 0.43628972410765504 -0.40028990897427835
P 2.2871059839136447 8.473431530909536 10.141828298461665 1.1586645543096947 -0.07401177560077576 0.3611587473007716
