# total energy = -340891.9676810311 ev
CRYSTAL
PRIMVEC
9.09311893512316 0.00000000000000 0.00000000000000

0.00000000000000 9.09311893512316 0.00000000000000

0.00000000000000 0.00000000000000 13.30869870810364

PRIMCOORD
 96 1
Ni 6.368529341189271 2.1094307636819907 11.237013269229521 2.081541979448609 0.5988919444543299 2.327415289210798
Ni 4.337363049955502 0.2886610523839659 6.021693243448969 0.7320030973204232 -0.1423866646307483 0.12163580523664211
Ni 2.7648354785246148 1.4581543247184754 4.5656157870361955 -0.6734372239610724 -0.6769534646444471 1.2968348668662506
Ni 3.4512931936473223 3.7886478965436887 4.612581745000069 -0.9343725702627069 2.4243687612094122 -0.20752556322192647
Ni 4.9457563412408705 4.612184375713909 2.5379958120862427 0.5930743093312882 -0.1669982925318414 0.2606517536229446
Ni 7.401971371886708 6.202398062970495 2.774530561657448 0.23006976707102955 -0.30491869386112 -1.1051863798858967
Ni 5.284365894514586 4.866300670246034 11.43293087629675 -0.2819685128228499 -1.1612850226516775 0.49734673931997575
Ni 5.317946781786723 8.025622916311162 12.81977696435449 0.4573316323796188 -0.20194498381035542 -1.3835242379346948
Ni 1.8233521570021372 6.2949387317407455 0.63831147035463 0.33268712222363994 -0.0027863044958855235 -0.9713650883266562
Ni 2.7223706143055844 1.3969394497886012 0.34130930020875483 0.018463348911510136 -0.44303424192034024 0.4345992237791096
Ni 0.23315029079982993 0.053382971813846235 4.996391372590693 1.2153064711734554 1.3174540857784987 -0.6070266577463224
Ni 8.640054038397693 2.1432753513957445 1.3197506932798038 0.1919120250543856 0.46214653726975896 0.13605943686113986
Ni 6.8453906708197625 0.9031767404741889 4.803575428304001 -0.43222583845092655 -0.9358897782381818 -0.43278171095439655
Ni 0.7262746631831553 7.433006185929438 2.5715330523887325 0.40648781025487407 0.05319278197289549 0.4552726929680611
Ni 7.792138908055906 4.07709071407942 3.8358466383456795 -0.1381001214402525 -1.8277830962907553 0.5197752435268209
Ni 7.755284498060247 3.9077495649678555 12.702540294570865 1.0495487359169344 0.1990712618069862 -1.0623695418306864
Ni 7.779945035910783 8.897716649213635 6.776469377811595 0.1391514455229023 -0.44158696795085234 1.065085655210269
Ni 6.88276338857998 0.5912563998277266 0.3396843599012728 0.6281428708996473 0.42489768022062957 -0.4826001771384205
Ni 1.7800870983395787 6.6508070242623685 9.162373686915503 0.7391258244081336 -0.6980426812145785 -0.36231960037809213
Ni 0.10983305255725968 4.707743959884742 1.6954347100211498 0.06399167236061237 -0.37618684527848756 -0.6833241440574812
Ni 6.382205391678656 1.8446118684676818 6.991205193979742 -0.9878085785946601 -0.728555505091455 -0.36523600269393874
Ni 3.3767205273817402 4.131513029357984 0.7337728488437575 0.584841894119167 0.7663952016470478 -1.0921251758265644
Ni 6.14800302704796 5.672296523489378 4.728900009797375 -0.9143524183870382 -0.4719419260936259 0.7915413618953723
Ni 5.364067079713688 2.9935001338813514 9.380489415295688 -1.1359275177234953 -0.04457701527942645 -1.1942139121692144
P 0.3170188522883488 5.555277179242118 12.441170419270534 -0.517517814951212 0.03298005447044643 0.6877595541210155
P 4.006891837897211 6.007396132953984 12.763095009084827 -0.2512677413048834 0.1443317041722611 0.8284315500535022
P 2.3128347353555436 8.448434748528822 1.3715414600134033 0.6755799813356882 -0.4055727546397725 0.2363779686772445
P 6.300785607049705 7.672264324544241 5.643141257077071 0.16756470655827269 0.5994647862386644 0.7671680752573304
P 4.744298296964079 1.3514738564063418 12.827575222931415 1.1950040121706775 -0.4026455536906485 0.8098329611157086
P 3.929736725927516 6.341713734212415 8.348506830145821 -0.17790671191422908 -0.18964688316929273 -0.39014459301016036
P 4.842122067685348 0.8883285869874106 3.834675444660153 -0.0237986450814945 -0.4251573616399194 -0.24620009697398887
P 0.26378409830892874 5.572563197846053 3.7351658097362685 1.3866848950508635 -0.5043252275203379 -0.08011351762313944
Ni 1.3934295059794906 0.9804473350510743 2.5719322402986284 -0.20989766299852883 -0.34040480258287187 0.0433390291072673
Ni 1.9805085270872553 6.214882914913264 5.022143993994272 0.08511277060994374 0.9310702453623514 -0.5885586808491219
Ni 5.873518146680582 5.677506880490985 9.244873734043216 0.33750022734156715 1.0402446849071891 0.6613862063338093
Ni 8.711389554414458 2.286355573769715 10.175258904221085 -0.1551709608796102 0.6519232611486967 0.07124603993018053
Ni 2.575289419713975 5.035805495493773 6.981117288120087 -0.20244352071332877 -0.3853602842476396 0.8686698287482587
Ni 0.6839261908831834 9.05836477687051 8.969516823594766 0.12868731276678483 -0.3058571465149894 0.9305064024390812
Ni 1.6905835312072626 1.2391647476334842 11.478605611408568 -0.37126781071031545 -0.19298983149959664 -0.9515773641767675
Ni 4.1392058077582625 6.994899728097985 1.3969076238732334 -0.26625315897012214 -0.6301475600345019 0.9220305037575863
Ni 5.713324674957529 7.971664350085096 8.230471784542402 -1.7530375278477486 -0.04296107694255827 -0.8614409150999874
Ni 5.392392144390835 2.90239617786198 4.532290416398867 1.9390712397444863 -0.23038524142891934 0.46479271664335436
Ni 0.7408291089366842 7.412710345043598 6.999856387088519 -0.038495842082353064 0.31524938636316674 -0.2390192629548335
Ni 5.204091842838869 4.613457412328612 7.275359696747659 -0.7378526141226647 0.6022950565986079 -0.5452427916703061
Ni 7.8863527106626234 7.5512349149606655 9.038043475252376 0.8285400506069086 -0.8640230740048669 0.5003194487950545
Ni 4.500702740740608 1.0433717162921214 10.68392978160554 -0.740534274719886 -2.8092533913722137 -0.745475163664929
Ni 8.47704169988494 7.078247253886343 4.911188850592338 -1.4433455809677014 -0.18246604915013737 0.35867043366127904
Ni 7.052877452779042 6.117322844633611 7.128112098084269 1.0482660125497687 0.008454044304624151 -0.5969672166277912
Ni 2.3816878299736373 5.320220061455837 2.7971024101480046 -0.05138323956798247 -0.3387446412716295 -0.49821345819564516
Ni 2.284400553254278 5.1962808538957965 11.52422851574393 0.044809957225838956 -0.42722401436096097 0.5112898317636291
Ni 1.207975350573254 3.250389829609794 3.7585496737246324 -1.1398330234254888 0.23362534563277185 0.08714317077641122
Ni 3.7039091235978328 2.2497193986222905 2.5551772598253986 0.2882517747284003 1.3703349929379303 -0.6203028060299381
Ni 0.8934652897277383 3.477154023163152 8.293994492992361 0.1449621386674084 0.5219359986235657 -0.9878350609572212
Ni 3.9340286779428015 2.7841856350681047 7.260520636379557 -0.7771475550675454 -1.0894566278554658 -0.5049353503005111
Ni 4.079363993748532 6.832078345077436 6.155565773851165 1.0563379909246258 0.5229065900669511 -0.1671402174263444
Ni 0.7508424512231929 7.4539112657666005 11.160647439960943 0.299798084805103 -0.2636704858446104 0.5801084931992396
P -0.027310272632855664 5.755744073583178 8.113860721323716 -0.1900505463656146 -0.8625194928761468 0.350186564559984
P 8.682209736581724 1.5491491633137295 8.010611996000074 -1.0902498131807223 0.44503276040760775 -0.4646356222401998
P 1.6530744166668987 3.305203148991446 10.366743615933544 1.1143189383147842 0.17854794504265378 0.9897235362291857
P 4.0365444979011205 5.9672500139974485 4.038244911093617 0.1843272707285922 0.3155563760806243 -0.4318633129051852
P 6.96772039637407 4.123056428988884 10.310860945795541 1.3920124779113638 -0.23757558852977148 0.8556803584671263
P 6.170599426958943 8.203993532268443 10.460170863774747 0.3294411044825165 -0.7855699748032858 0.8552432709297078
P 2.2239767796492553 8.357048905830482 5.717629357338961 0.4680978697571874 0.8745149746751261 0.5558179960829911
P 7.033463644404817 4.054412476100349 1.7028346900000464 0.657188623312694 0.6289229435987814 0.24983332285120197
Ni 5.722799704618392 3.2973466944549914 0.2871243153276455 -2.16952461540718 -1.5512619797357219 -0.8410680078705902
Ni 1.508311967337784 1.214713351512505 7.023625799308764 0.3881820699671508 -0.05363012662063022 -0.9193503858222618
Ni 6.835460985225077 0.7850280308873139 9.17722547764975 0.05566001256646543 0.6620132983948469 0.11566056148981371
Ni 2.731218218777772 1.8217335818777285 9.226587472384871 0.03368247985410973 -0.763116530895776 -0.39085190348983007
Ni 6.404383508130522 2.046251775118003 2.3588731952144193 0.004699462358198359 -0.11351806122551417 0.9377749110760366
Ni 3.8838528490861397 6.744002397577323 10.670568353022361 0.7570811233349736 1.143438995609192 -1.1346849035656459
Ni 8.452026530406021 6.9678477000355405 0.4780461629940328 -0.06665070725001425 0.1961772280886428 0.2647369794359118
Ni 7.405335825796995 3.5668485457876735 8.142621346385464 1.6645432423600817 0.9369238759296509 0.9881312520414015
Ni 2.8728435421635106 8.102759842043502 12.451684792396113 -0.17898888923481432 0.46766258199198163 0.014730621341955278
Ni 0.1936352342794405 5.015937031185726 10.313482491909962 -1.3349710116163396 -0.5467756833750648 -0.887505216287207
Ni 8.594888517931757 2.495042647394287 5.798147104595208 0.39502043304522294 -0.02373642438499138 0.631033819294197
Ni 3.584852920767048 2.910725474569609 11.732562776363855 -0.3026293836063111 1.1575062723355354 -0.0205809094751452
Ni 1.054547159145481 3.2856347575997216 12.932674397905714 0.30552804531034483 0.689795867824754 -1.0881955017548548
Ni 3.033800835855386 8.516333065685888 8.044402934313638 0.6425171373434483 -0.3570429253601851 -0.5281007326733808
Ni 5.826979565294502 7.939847527836191 3.4229835872719248 -0.8201567116392198 0.08450316205040286 0.9124991672283833
Ni 3.2903722724301527 8.20100189622389 3.8450297788970285 0.08193385866132986 -0.4856536192527636 -0.8850030186906437
Ni 3.4080736005781467 4.416109457693576 9.35794484616116 -0.19356961526246663 0.14033081054298413 0.1297219246788863
Ni 7.474061616753618 6.554783691039036 11.440875534084366 -0.4863830412196204 -0.3036861070055996 -0.32471644531333754
Ni 0.6061463816604167 -0.1352228585256487 -0.002677014138347442 -0.1638576900203307 0.08452141688284798 0.45821454920520444
Ni 4.721774642002507 0.25090005845626406 1.6296105332341821 -0.13107715315520005 -0.0020139451062352416 -0.3813120823201949
Ni 6.276416048996814 5.669113931952619 0.27440122367555403 -0.6124110619866872 0.9232947151819904 0.6621169138522468
Ni 8.198728616554776 9.097392442229841 11.227204522113231 -1.1153111270247245 -0.644402270181303 -0.6672012703536897
Ni 0.20828697640280744 4.927833804329584 5.991589564758707 -0.5348185110131886 -0.704703895284838 0.5293238064472044
Ni 7.987895566922562 8.946701279523682 2.6759802507539296 0.1098203006589528 0.08279080734498645 -0.3370536267224518
P 8.522607317572641 1.7409139430814242 3.682011075201202 0.41558900122519393 0.169088856512283 -0.47115311164374346
P 1.8391014385497515 3.0143688412438085 1.599266796210862 -1.077488913970628 0.1970622017967574 1.2815298610780639
P 4.716391515746047 0.9645980291980185 8.275534552767295 0.1933148189391832 0.4220648387575247 -0.3979548330831985
P 8.704087780117268 1.6501191530970516 12.368904677213166 -0.5667320718923337 0.944483947665096 1.4155804950392912
P 6.571333167030178 7.665926420826754 1.3998492477650657 -0.9283358771503238 0.7346865576898574 -1.2356395263038527
P 2.1252436970603403 3.0689639257772257 6.062085785921636 -1.7917922800184434 0.17331960676417893 0.3115379989498505
P 6.773382264020939 3.8264388977630226 6.0890750714652135 0.5059095412883223 0.7558169119105692 -1.9091310005416278
P 2.552574809260198 8.614802447833187 10.155215852034448 -0.6783739991410576 0.461079015237193 1.5443976485157207
