# total energy = -340863.47157399036 ev
CRYSTAL
PRIMVEC
9.37656914841583 0.00000000000000 0.00000000000000
0.00000000000000 9.37656914841583 0.00000000000000
0.00000000000000 0.00000000000000 13.72355674684327
PRIMCOORD
 96 1
Ni 6.104709190907529 8.622486818966554 3.444722762625823 -0.8299860390248158 1.0991098346745134 -0.3729413417579964
Ni 0.935658780392238 1.7961662333748893 8.007351994319388 -0.31516839661358625 -1.1253489708767006 -2.875980460386118
Ni 1.591803906068912 6.889218612275238 9.39716396979455 1.0792871435216316 -0.5046957234858792 -0.5047085790016856
Ni 4.497658983200649 0.6208207762543381 8.188009416846185 1.005285652333501 -2.7647733066819673 1.9082377993033977
Ni 3.1499365518783256 6.26865850464669 5.135561055699689 -1.6250492980305173 -0.4069567794714927 1.2672324706187854
Ni 3.532753745588862 5.932771040147736 11.153848282931433 0.5932285755209654 -0.24525444523126796 -0.6018392000081119
Ni 3.522570791358337 3.225080378032494 4.414140943028725 -0.4816825504201575 0.9360808112030654 0.08418717347188082
Ni 8.819797966179202 1.9231156047626217 13.138069114332623 0.5244819049738709 -1.5101538968415023 1.9702978018589354
Ni 7.730943859347056 7.3208689787597825 4.444264109475304 0.7805064442374493 -0.5362878964698634 -0.052402167750800074
Ni 6.255756345326983 0.9289901643252497 0.8072429135702017 -0.32655555540460535 -1.1203242639685995 -0.13516649273322529
Ni 0.9717126269040166 3.7901874549802637 5.375901279306334 0.32899296120150434 -0.3302456026616829 0.07348212834955085
Ni 7.346232598643365 7.124082919426424 1.9579401830427041 1.1237893396990646 0.4981802909648646 0.2945720605194733
Ni 4.837869046134477 5.930126847612738 3.0916564855617255 -0.25585536067556586 0.21029618398852815 0.6640822651087337
Ni 2.7654315756986416 8.22535160397608 10.902748446083972 0.10134774441156738 1.5806759141214648 0.06276474193204674
Ni 8.974886421955338 7.978794714941408 7.710182259662683 0.2910558198360988 -0.3472719620163503 0.5314915035224846
Ni 3.5822432782119837 1.4765189868568454 11.889829270026508 -0.24974976199846022 -0.21909629877866135 -0.028536673987112147
Ni 1.8749106621299063 9.20406852812706 7.573921017329892 0.6984332317847778 -1.7040143038715105 -0.1170366159017339
Ni 8.864655473581442 6.636379421827627 13.575891138712688 0.3432188749928992 0.028972733083266228 -0.6922507571231498
Ni 8.964956635095184 0.14693927942093327 3.9320868284169364 -0.20374012803756525 0.17100869924281514 0.30013824175334114
Ni 8.186907669956602 1.2980828735908325 1.9637452170796454 1.1817355771965454 0.32414026109489336 -0.6881531900150085
Ni 3.463582794061622 1.871600733176522 6.920282248619903 -1.5651523645645689 2.1815584066432625 -2.20441577085741
Ni 2.7913952960156982 3.764279994078845 11.961726927898347 -0.6109038813135415 0.6604050733674627 -1.3379835731904184
Ni 1.0503445368277573 1.0690414159582053 0.986247246934161 0.301649536191545 -1.3657630572965316 0.43889270894814086
Ni 3.788809099297126 7.5740738554090425 8.032095822974023 0.32958997135555496 -0.9140030054674194 0.6648983332521259
P 8.763876107034772 3.7731408520418714 7.366311584084659 -0.4776770288051903 -0.043187848241383685 -0.8773629856468825
P 4.929534387347747 7.29673368945097 12.167319461092948 -1.5956345923138262 -0.38072715635100235 -0.2599040768236427
P 7.090280387197104 6.669609983331292 6.456988773809618 0.6789362994024307 -0.4438127719575776 0.531060329522337
P 2.2088665533586145 9.33107415893043 12.979877014127112 -1.4899360271327309 0.34692820552368636 -1.0087589555940821
P 6.62122688588239 1.450686538509611 3.377065189379252 -0.41022208048632575 0.26475523426835695 0.29235731225634165
P 0.21922418960375087 7.75073779708245 2.8728486156336976 0.35554037267272964 0.47089034490065995 0.4842528822504951
P 7.117716228890028 5.589316684245435 12.85695581689908 -0.5305643637225249 -0.5249966398267604 0.3483973338700451
P 3.3703984486261183 4.042398415286581 6.544475915754822 0.3746177010191548 0.16278785399491963 0.5749218067919776
Ni 5.261005487719099 6.93525756740588 5.161539778527584 2.724525514905514 0.6855718024410774 1.1332985647410805
Ni 2.00429794152863 2.954416329396828 0.22730772997404142 0.14925433828485907 0.853490292794343 0.559084839759721
Ni 6.67893966975797 8.44500711576639 8.64829770120446 -0.38439380656931216 -0.2716876997221321 0.787041931363122
Ni 7.738463867904036 1.784848714262326 7.146240690275554 -0.06522245944391993 0.13118385393639345 1.019074221477161
Ni 8.838982426911848 5.750434274064136 9.371720649072145 0.10385585554540178 -0.45440880230586894 -0.03978010811141536
Ni 6.651156895001943 4.858103682625704 10.877894911568845 0.0012115038095979137 0.7462716914242953 0.7973109173892978
Ni 0.5173653368371428 8.83544746029591 11.83306820793214 -1.7565928492991747 -1.0255487734579112 0.4265809814603234
Ni 0.2729950637569446 3.3138858656174865 9.278579435855297 -3.0762732533050308 1.2169504345347817 2.6132432849890543
Ni 4.60827437091474 7.849885640575609 1.271244319360601 1.5482738436416754 -1.1108682607620224 1.6863562244701151
Ni 8.167845104624504 2.267835797516783 4.9516105820442 -0.48581971251698264 -0.09035524995580567 -0.8215427933534689
Ni 3.9173899937383685 1.759672625764205 2.0535239925551796 -0.8287876478413404 1.366005255214325 1.023253035445199
Ni 7.4327783330335535 8.51559392925386 11.149223758965968 0.8921306308743603 0.2096976311725808 -0.6111015991466443
Ni 0.9293267831621519 8.067178256909113 5.348193517104492 0.46201566811884953 -0.31112096601709 0.46420367690910375
Ni 0.48677521724076656 5.944585517431769 4.1995319008211665 -0.273149114759007 -0.01757297588675683 2.1606265415866015
Ni 5.881753126733107 3.677021640423905 3.7427982738743033 0.3772409975746148 0.6368522257481871 2.4077380946312665
Ni 1.546486946772294 4.711716683134953 7.79378656427192 2.6219490402931687 -1.6313325599360682 0.31660795727359026
Ni 2.3817236079071664 -0.057376165038678865 2.8762926295276863 -1.3500767569095267 1.7598782049186656 1.1274302788857615
Ni 3.84279938517131 5.027116343772308 8.826346562159495 -1.087190200418792 0.5147978449168876 0.5678870114323832
Ni 3.875814285581695 0.23793232061732672 0.2944045843780842 0.6582021521788729 1.0695125806333712 0.1703677232247066
Ni 5.091073922783736 3.139753597647801 8.253470997569009 -0.8875257851124974 -0.5928966461028433 -2.318419513470091
Ni -0.18545072473917643 4.25820015710567 11.584507546043818 0.6336620009456635 2.4386646090067936 0.9285276814461556
Ni 5.029094799888921 4.453129655722966 12.677464839589847 -0.385375196645975 -0.49309156358804757 0.6590292760658586
Ni 6.736821231880465 4.9458027350364775 8.682798787844622 0.9222508472985086 1.1231167391120722 -2.816625258356252
Ni 3.516288489945398 4.5802759350654325 1.773700911053605 -0.459491359035099 -0.6089588417720286 -0.35602374006705134
P 1.8066398612528785 6.874431762531648 7.197443322104861 1.40631269658412 1.5552063090954504 -0.8464071606953164
P 2.2859513293523026 5.1482709953493 3.539126999723749 0.8707871322015778 -1.2665395583168186 -1.468274225888581
P 9.296793421668184 0.42175714824455746 6.395204683555682 0.7477449335357123 0.5121442093441245 -0.5695152910644256
P 5.439544743247115 6.415392437200543 9.342174141635859 -0.6028288176148908 1.5236365047089695 0.4807379271187011
P 5.718685210505612 1.3561425905295164 9.764365425037758 1.0240935290686235 -1.1452549657720081 0.31207638795182385
P 9.150162631376334 7.803480999243318 9.914007031723182 -1.8134389117539413 1.4750961339064208 0.8806141455943286
P 1.666413267774517 4.751820269915759 9.97146758588532 0.8861327614197126 0.9427541094581828 1.934599834236694
P 8.689529289268812 2.351746715941247 11.150142662754728 -3.6467372814359713 -0.10594899062900463 -1.3858112341966586
Ni 4.100308107116896 0.8100511960674781 4.1031792126283015 2.5763070740843372 0.26206303214817445 1.467034954164841
Ni 1.9852259996272599 1.1655731966241856 5.221923009332127 -1.4646674823739292 -0.011495402234109236 -0.2909488619445893
Ni 0.18835839887074712 5.742933018645703 2.038360204726814 0.5532021557266988 0.2619468182852843 -1.2135452655079746
Ni 1.1499799619231146 1.5933041571525988 11.223797489708335 2.6455445682249215 0.10940455327777286 0.3918975711455251
Ni 5.267859759857693 5.32022789924764 6.937848313496022 -0.41772944460696443 0.059615911890419905 -1.0952356964310879
Ni 7.727896474333317 4.811145823706303 5.243935443357524 -0.2929553508516568 -0.37922614632544366 -0.09247641006386655
Ni 2.4136508262818785 7.51555468657598 1.8129502923736365 -0.9540718484638473 -2.778314792811828 -0.6220257022583159
Ni 6.531830674433195 8.037698323114665 13.22993417647141 0.7645591768795735 -0.3801939095553517 1.7464732443666697
Ni 9.482712037214085 5.7813957058037255 6.673641908118701 -3.5685490058600027 1.3343714303591279 -2.023415507619522
Ni 7.112512232943489 2.888339645729692 9.23268769286224 2.1863717688715054 -1.2194657447574675 1.5877256218793947
Ni 5.757635479265834 2.9471588647794924 6.028950261809049 -0.18515388039494562 1.2331141887788375 -0.8870447317110207
Ni 7.233648131381935 8.924984320284201 6.323513310207847 -0.3260261652636966 -0.591832209394071 -0.9118455928047845
Ni 2.526460331205862 2.828442121213492 9.397781885709641 2.3301866813083483 -0.1188430729828534 0.23850941319795052
Ni 6.121737040707376 3.1036819356544036 1.7331481866046203 0.46180689454215307 -0.08416043399900346 -3.1163510951625235
Ni 9.225193938699226 3.3678667749223967 3.0754078286684687 0.7357841616294103 0.25197093801949505 0.033654454829651716
Ni 5.916521445597552 0.9730253466022427 12.219949206765612 -0.16886465631661887 -0.10106877971856787 -0.25954489371201106
Ni 8.710579687286794 4.054616085049356 0.7772313282979723 -0.47432482450350566 -0.7346186805663993 -1.6848097059186016
Ni 8.631113262697752 0.9313371196142924 9.632056406653554 -0.2975789656665972 -1.7999876713450418 -0.7035718385629238
Ni 5.0824474790525365 8.864824251828356 10.656533801827766 -0.33322114035023903 -1.0560574835697296 -1.4253154629388678
Ni 4.869758758232097 3.108595257953478 10.381595912917447 -0.8610117979823688 1.6306406760753658 3.2824320180864173
Ni 5.6827541970513105 5.818376895016608 1.0219194670765266 0.7175455271341965 -1.4328935323964418 -1.7068810838963442
Ni 2.984299455670017 7.310095300665056 13.174326432397628 -0.4333213855079505 -0.9666617693137158 0.14010635323700385
Ni 3.6249160449736038 8.751911604642368 5.910173508199701 0.4311017521488124 -0.11334888263750155 0.058969793665988764
Ni 6.922983638227466 2.991744451672813 12.38297117780367 0.03981481800409272 1.027130259012418 0.3702979905978784
P 8.426310236635942 8.959649496886643 0.11300922584949899 0.4388279171484765 0.9858599395087214 -0.037340645431987306
P 2.256255734464575 0.6550686955241285 9.59623791203053 0.6118454192912043 -0.4547492163644233 -0.5563522713199064
P 1.9532331452676364 2.1697287532129317 3.231664604976025 -0.9228046629194495 -0.45260800165170434 -0.47943154960245177
P 7.357728272572116 4.925943161316171 2.400127000419368 -0.06280125159693702 -0.052606056231490055 0.3106437692703553
P 4.613928442186385 2.362501640897428 0.2100379646869504 0.4202851211492826 1.2811182274619421 -2.706386382102642
P 3.9447039400307435 7.886960595481222 3.7685435201272983 -0.7125259624324181 1.1472267447863984 -1.3056738053141193
P 5.611426634591271 0.9106439688856134 6.238194031078573 -1.3174723406109439 -0.9783582318150378 0.47451919990249897
P 1.3590024441577946 5.024987862547327 13.178347105301908 -0.17066262875730606 0.03790680234810246 1.0599159380838714
