# total energy = -340872.1767044003 ev
CRYSTAL
PRIMVEC
9.24785049567104 0.00000000000000 0.00000000000000

0.00000000000000 9.24785049567104 0.00000000000000

0.00000000000000 0.00000000000000 13.53516398746843

PRIMCOORD
 96 1
Ni 7.545857697296886 8.648858088756125 8.53929417851966 0.4883633048744428 1.1449867997122862 -0.15741373416719986
Ni 6.2606469050451565 3.7527777821445176 4.7711723626241955 -0.38264417086805713 0.11202322184754254 1.5089837877928012
Ni 8.985248655107792 9.052804203896766 4.66220123961256 -1.0309336919189083 -0.15864297858861062 -2.5023523769737417
Ni 6.937413861366294 4.018782957417078 12.564246377086242 -2.2768720290456077 1.2745012363660568 -0.24217297809246682
Ni 2.0340277527638198 4.113527187032826 13.382555386307416 0.09357478533436787 -1.2320677497921944 -0.8277846604981227
Ni 4.065836021378515 8.687560343606481 13.084511032557183 -1.1304780645731496 0.89250189817085 1.7123145962070896
Ni 4.289171613884159 5.1083277262222495 9.274809030697998 1.0421365026132632 0.8051478969352134 0.3441632411840395
Ni 2.2957049339455873 0.37517975099786544 9.316456725971255 0.7968751154034599 0.6639740216656436 1.6810309556024596
Ni 0.06711905023964633 8.601379623666105 10.975082779322296 -0.23247709096094155 0.5902003302176029 0.5805813190706001
Ni 7.245367287057306 2.490677368595545 0.7945531305450464 0.3773577256581372 -0.47407568460717714 0.5255486556754885
Ni 3.4226110192610193 7.10123953512354 5.515119404999081 1.170535851825984 -0.40797159388925225 2.3150572818660775
Ni 8.601786529093445 4.599261293068703 0.488282813667121 1.3608301387712887 -0.07093313667545204 0.23599024632052262
Ni 2.208997086519794 7.549020462209389 3.63080788029951 0.43821522326514206 0.6741926140698582 -0.008654076130572192
Ni 0.42593472956302997 7.43641863304381 6.4264414461996875 0.7735541812893324 0.5034921900960813 -0.6575647757051901
Ni 3.30500610290929 1.8475540928348841 11.374775807962179 0.4869579398864839 -0.46597002478090715 -0.21908344326285498
Ni 6.127431616844585 7.421575832796541 12.770102607132468 -0.24947285418798973 0.18319752799952319 -0.1574787830771804
Ni 0.984489185746616 5.336805123673364 1.972330717343472 1.1479646513936876 0.2978121647233258 1.645402921986205
Ni 7.807488639225547 5.677856606738193 3.217944987589761 0.09059796209423107 -0.6507423534667179 0.12716984768099387
Ni 8.373031696123688 8.695347033829659 13.172259263177878 0.5390153227033555 -0.7501926237452564 0.6968723150555611
Ni 1.725010824251353 2.9209798580070396 5.403224111620974 0.090395873385754 -1.1156430564428463 -0.835227232819097
Ni 5.29935132865689 2.0139044298117588 12.946303754591208 0.07741025975936346 -0.5439073606883343 -0.41649814330302465
Ni 3.0550551963153967 1.5256549084068747 7.325853180585054 -0.23833303552108634 0.01947456378484388 -0.2215846124181539
Ni 0.678002469164151 8.05503510465789 8.901942167140533 0.4134218183705461 -2.168423154812885 -1.7502139423560246
Ni 0.058830201727728806 4.002506740323499 3.8242525700268204 1.6290337365995622 0.5915082503957491 -0.24754529814797366
P 3.2552434187157964 4.731255864987255 2.1032294189633944 -0.1053704924177153 -0.6898678587132699 -0.7680875017478063
P 0.5396037606903122 1.7520515394681855 3.425818173856505 0.29306925072170176 0.5775687574965214 1.3796547276769595
P 3.0009367744792463 4.0297416604033796 11.313556886418956 -0.23705082637455308 0.40252059807700996 0.23921955189109773
P 0.24199867984459328 0.9427258923405918 8.89230498200802 -1.2590725605158122 -0.45554111613809933 0.3148392954089417
P 4.240047031383539 3.24569038902394 5.696355082336083 -0.8276609904360649 0.056315129651961074 -0.022653989954090018
P 7.52583610070166 0.16037899983066753 6.406558567363781 1.6840836263858545 0.41712240715058485 -1.0900883479021937
P 6.779636281915413 0.06039956197817219 11.859294746426409 -2.765172599002915 -2.8529135512643253 -0.8524312554022092
P 7.257352501462578 0.45759474616522755 2.799830240512146 0.4644137360373808 0.5922795813441347 -0.147716561484094
Ni 7.451298424693566 5.742610056788899 5.778391840413032 1.061681000404094 -0.44645020958042464 -0.8153428351903441
Ni 2.708519737832106 6.233911368898829 0.4072475978124646 0.8034566252757195 1.1000637139473506 1.474948552584963
Ni 6.571587386486864 7.312636152477018 10.527177006253059 1.155411851700352 0.5815202859451016 -1.0486326518605682
Ni 6.231775115405296 7.7184873248456585 6.3955952404521685 -0.952781668897514 0.05268241799538024 0.015609167292166666
Ni 5.183632973831916 3.125588553004446 10.7255887165491 0.33236753410069214 1.775774050213316 -0.02003095050894615
Ni 6.344062517649748 1.3038544591043755 4.691097998449098 0.6111784751311669 -0.8122307719239238 -0.018187983762936417
Ni 8.448790088413803 2.7697959960491825 5.492867226833985 -0.3982939615901721 -0.8939882529083895 1.233796816668159
Ni 4.623102251970547 4.588857461119682 13.474919219173229 0.08056500333826125 0.22586344229916583 0.07284860853061002
Ni 1.6688301317266416 8.570898708018131 0.733227858719677 0.7740810003270797 -1.0925874601749637 -0.7585625929765065
Ni 8.27772334762004 6.359848598660395 7.9654715209602225 -0.497349053312821 -0.7592020263327183 1.196484710481262
Ni 2.604111504317045 0.8198191832276414 2.5900621696530877 -0.24140087581313263 -1.052862887891832 0.02799108589628728
Ni 7.511021044006254 2.7792195558323396 3.0432734346237944 0.5375012000516742 -0.617969015690439 0.11121846655806006
Ni 0.5346857537298774 0.7496132004505878 6.4492891859447985 0.7950606879025404 0.7485190926975754 2.039137803450785
Ni 0.2860249222976623 7.632732006033864 2.3639300271195474 -0.7143203353286794 0.29014025000036486 1.0196696889693149
Ni 5.66250517470675 0.9501149249870517 6.942428970758253 -2.195716700421515 -0.674624045180322 0.9067013295996836
Ni 2.0919008019522387 1.4042306297485267 13.141142095407154 -0.9555116662341674 -0.10234584665877858 1.2532279288095771
Ni 4.562242147031432 9.060137749439498 10.824314145857336 0.6648826495228419 -0.2619277921218908 -1.0677742577860256
Ni 1.8997859531442787 5.267326021955149 9.319813695746804 -0.8131802803213866 -0.6386347715699066 1.2862195532442493
Ni 7.927904902166167 1.6270390947687532 12.17898092020073 1.9637332612675407 1.4080160524284717 -0.02822351362206752
Ni 3.7539245156215655 6.642518400752632 11.851633826971684 0.9003753873816558 -0.4795526485613483 0.7295044992682855
Ni 5.537548217111046 4.5468259800456385 2.780312651775783 -1.8217903690424302 0.04930090311765702 -0.010238389898556561
Ni 4.600574487856934 8.65614539504575 3.974045555251227 -0.6843176183190021 -0.5781714240775269 -1.122666538948531
Ni 1.0109195428224391 2.64635568595538 7.9235935542064935 -0.6987307084205386 0.30777236125983126 -0.37110891653494793
Ni 0.016741383979832974 0.810628669280142 1.5158975012162865 -0.9556631042103672 0.8748481896448289 0.42404484530203096
P 2.302446617048553 8.888118480031736 5.7349842791665315 -0.02929360675779471 0.7682065438241737 -0.16825710463960702
P 3.887481974295127 1.608210470903681 0.9341374134685425 -0.22481983152599988 -0.28183224435530174 -0.14996062032326432
P 0.17748567391004386 2.596777958774313 13.44063466256469 0.8277584352458777 -0.09742501231839351 0.9302078973620561
P 5.55653405443668 6.32389295544458 4.692749664570071 -0.638413656698036 -0.212489334985105 -0.56288570156305
P 3.5522751328229916 7.956166333665019 1.85496716989296 -0.14002510637710724 0.6278507935805251 0.15378127962093516
P 2.1182109369699846 6.215045753631271 7.476811394987751 0.37733304306778886 2.004140204329677 -0.6747456583598509
P -0.014512651980087216 6.214139464270378 10.37271385646487 0.20619193201216748 9.410237570306374e-05 -4.125444551277888
P 5.534496426405999 5.565245529721993 11.241319150860392 0.32003395223600367 -1.0807107633420356 0.6755820382182172
Ni 8.277270202939592 6.293837440925187 12.115731170661057 -1.6979405868736046 0.7162034112840052 2.3359976315631705
Ni 6.746806412209615 7.764430646732534 3.626544621163067 0.8296605373645969 0.4251429634622162 0.3999060432722984
Ni 6.876008133240519 4.779168979056479 9.372654989412148 -2.1887029881078433 0.5954844614346777 0.08160064369162721
Ni 5.193343216984335 3.210899974986415 7.805173902215023 0.20435256481058356 -0.1689487313899929 0.13711461759853158
Ni 3.0863221792661863 3.002925062362837 9.301432667851808 -0.8845525614167864 0.4425290201491476 -0.0902367221000704
Ni 3.5255395966766643 2.8515654912431736 3.4378644240758773 -0.44848446640163403 1.1989923073944642 0.7874337674849019
Ni 1.5541105447687737 2.993325793417874 1.8770834046539224 -0.2944332209487639 -0.3466986060113836 0.03544368551959057
Ni 3.9252224526808632 8.45063041068745 8.014955844850014 0.9652286364116152 -0.14953818807386507 -1.0146241561256075
Ni 4.950337446207077 5.207242736468228 6.434400146444422 -0.020821821841357693 0.43607683676590064 0.4754121440304135
Ni 2.6029277794375125 4.165749799491599 7.154430397542368 3.018400549357963 -0.17084903373649932 0.6064864689721362
Ni 3.0838899945527714 7.2477254889657505 9.788319056075103 -0.963288739076425 0.643778263444059 -0.5096854633909867
Ni 6.509839487888098 1.3221467076334092 9.961285305386493 0.10595259017343044 -0.6203976797365897 0.2791667817079967
Ni 0.9769336917889717 2.133210950677817 10.616820121466072 -0.3761184539343974 -0.16709033802501547 0.02826747948612551
Ni 7.487235572208138 1.9966849319548017 7.768494152295556 2.1701316528635592 0.23155920713236253 0.5500224724471365
Ni 5.288272403612511 1.7749769611585162 2.580005132102368 0.33855977895433303 0.6249593309653431 0.5117310330661058
Ni 0.7291421583151637 5.027473768239772 6.288248040009642 -1.8820547131501266 -0.12210708844610585 -1.0824089769800649
Ni 1.437125234408675 5.974851329442903 11.888895266695233 1.6397950888811241 1.1009777411211878 0.06162677167286161
Ni 7.599014342668417 7.1570873050258825 1.3369996805163622 0.16288607013568077 0.06363660301403878 -1.1315196184637866
Ni 3.8875837006519616 1.1419338425751286 5.264068928966308 -0.2323390227211805 0.11133159509715665 -1.360955094384927
Ni 0.10838850842249041 4.1354168494535655 11.65243604937283 -0.48498796064430666 -1.413033046027089 0.202495971217819
Ni 5.358713281795347 6.82839095039118 1.29781006393826 -2.1155119086361505 -0.05747084052295909 0.935990565482104
Ni 5.9644844888963675 0.20687534318469955 1.130058677592251 0.4286725738820295 -1.7135962911329907 -1.6930480346679937
Ni 3.1121976653047287 5.063420163604966 4.316350122075249 -0.2329422035228182 -0.11618866607914184 -0.13408457252295616
Ni 9.007166061080396 4.1199451953640445 9.233540497300215 0.1953840427633861 -0.08405193344559718 -0.09982745111229904
P 0.634981468073623 6.192296041102746 4.317419173607077 -0.8573536324044911 -0.4018210009068241 -0.20020229008763588
P 2.162563628549987 8.43776665047315 11.749470046802424 0.927230302790971 0.16329230443516396 -0.3308847789075785
P 7.537691845198233 3.1390349278078915 10.814501251563023 0.0841879448028292 0.4549122243048488 -3.5477716641033354
P 7.4868564103326625 4.080234924795961 7.1530774369964645 -0.0825457812137159 0.40819579408491635 0.5618811715579355
P 5.879959134217214 7.273268052381924 8.518057414352787 -1.2804176018504916 -0.8566339806296472 -0.6871098363521586
P 4.401838178004087 1.322775561475661 9.054388360708204 1.1361242071153337 -0.6761543657819193 0.3773703240636275
P 0.4009886525119338 6.64470089349927 0.3388800877389358 0.17163399153163988 1.0173240715552738 -0.4352530553130246
P 6.726692337108175 5.118583592561328 1.2106814393091951 -0.5079772224506284 -0.06353093067410995 -0.8415246357920345
