# total energy = -340896.3649119539 ev
CRYSTAL
PRIMVEC
9.03519745862379 0.00000000000000 0.00000000000000

0.00000000000000 9.03519745862379 0.00000000000000

0.00000000000000 0.00000000000000 13.22392477245697

PRIMCOORD
 96 1
Ni 6.418658575648772 2.110495663115872 11.432427050630478 0.6519808538595094 -0.34309854736495105 -0.29858683810582126
Ni 4.58546216161756 0.15787381444417156 5.9369741219913035 -0.35823514589607336 0.3119203219899338 -0.24291319869260097
Ni 2.663720811252254 1.5155821133217855 4.783053801126123 1.1463176027085675 -0.08275044102535425 -0.2225624029503909
Ni 3.3316929687195525 4.288936012071783 4.8447307704013705 1.0730663594229004 0.2489997712063131 -0.15117700922886865
Ni 5.057244038721746 4.711873611030856 2.667675517235257 0.09616928553442147 -1.0910211441291082 -0.5270769193945568
Ni 7.3314936228701795 6.037734645460469 2.570863375110786 -0.45144149214742896 0.2121167821370347 -0.2936860583700942
Ni 5.114915704907513 4.487710358944238 11.562074004299003 0.4265473000089105 0.20416641694170642 -0.05458040634904149
Ni 5.645796809415913 7.898099898630112 12.448659091976387 -1.0254297313815437 0.10517688834967048 0.43914621971984363
Ni 1.76496260186845 6.420366227992359 0.3364499771151092 1.2219049503265793 0.3949281304417328 -0.09226403694274433
Ni 2.734791675456741 1.636265247466121 0.34867911704655774 -0.35353979730293306 0.29996263540742535 -0.01883127377389015
Ni 0.36565173571018983 0.03425333756491648 4.8614585352104465 0.2617794394694847 -0.06754750803267076 -0.13341402881849282
Ni 8.557560899972236 2.31641685127815 1.4357218089065014 0.7522880728217044 1.0789834962382838 -0.695466178736654
Ni 6.807587690897486 0.698822839621662 4.944677222568116 0.22793677988842678 0.19639165809229403 -0.603668797017683
Ni 0.6711010463910227 7.149262722776064 2.493503109867303 0.47631871500508294 0.38716648421844285 0.2778082107975732
Ni 7.7108906046665995 3.834510749528597 3.670816460800096 -0.09899904167373272 -0.6469345496848535 0.3322968287637567
Ni 7.469443019599663 3.964220046060458 12.670662028320404 0.8750366515065511 -0.436619596643248 0.32914131385391054
Ni 7.726087807004758 8.587115031273136 7.088010407787318 1.0065208102921825 1.5349997522405887 -0.11467171521398317
Ni 6.848228009635317 0.7097210949488237 0.280796774069856 -0.1879468697590505 0.22629255941678444 -0.2907046071442671
Ni 1.8373164641300237 6.583352157230187 9.09257199329679 0.08412726676822287 0.12307742277917513 0.6582998540990018
Ni 0.23034152019531745 4.925501822733234 1.3045668807610218 -1.0548660343647898 -1.3250272701400665 0.32120200440217583
Ni 6.3506687138208076 2.104613749487964 7.000825268689783 0.8387612141142844 -0.4273556548428188 0.04034240837278859
Ni 3.4313421628857474 4.364434123092975 0.7200953088160488 0.22890480022865095 0.2835533408114665 -1.7286279886551326
Ni 5.987300172540376 5.652320222072364 4.758761768898792 0.018954943835948 -0.14993696617418048 0.5958079062123675
Ni 5.380288493179825 2.7473415649024613 9.25887655060763 0.4434224784976944 0.8449544874091899 0.3253599924346074
P 9.2519519751784 5.456202223289932 12.342166639159226 -0.428285622856256 0.6781060901916516 -0.014089902434162832
P 3.8858577774047856 6.071580495614297 12.599583935957847 0.620308719567209 0.7624675844578676 0.19900672711763792
P 2.300542009121109 8.275888615256383 1.3810931972673997 0.08550203562856241 1.086943631625625 0.6548291219415818
P 6.273083472157454 7.6690305342547775 5.795821747717898 -0.19609778100095904 -0.21350646339570972 -0.4104740485961318
P 4.739900793939872 1.2813807567181086 12.533596273914744 -0.08754349153862344 -2.4062645954095334 1.0188790747472194
P 4.0118355373339964 6.180138394599412 8.349388140571747 -0.018895808463238423 0.22932594692646954 -0.3231506434881144
P 4.802306903660237 1.1126303714209795 3.8102096821036806 -0.45247764672142715 0.16801542094244612 0.21596803756232485
P 0.2111950329927075 5.415778749294143 3.7433230179008583 1.0284201814684355 -0.13833974825488435 -0.39639340213334956
Ni 1.433669012015164 1.0008288365028088 2.7112884159785904 -0.33266655339834966 0.5254195862967919 -0.8555240353949202
Ni 1.9258071892786064 6.348220175275243 4.935050219541179 -0.3929854048930651 0.1995749409162821 -1.330107255766135
Ni 5.976674780180284 5.7006675643502955 9.39926183660606 -0.42408366895976635 -0.26934953850725873 -0.7122680807853411
Ni 8.648048403787127 2.3951676334299825 10.075203038343426 0.06100610736972718 -0.6645522627666168 0.4741301919941963
Ni 2.406561017584808 5.152294317317119 7.1817677496082615 -0.5483144886170944 -0.7163522781570437 -0.2517071428351471
Ni 0.5625015854970157 -0.015322791584590717 8.896078130294818 0.31109011277915455 -0.8376376420328026 0.8950575747131683
Ni 1.4190319919272834 1.11105824704117 11.45146963306086 0.41074478575901513 -0.2781391117744307 -1.252315701407953
Ni 4.169445524008682 6.945428665255947 1.6921994451562712 0.06447992485094056 0.07825769536132328 -0.5035731798456617
Ni 5.7103261905687805 7.794186091203744 7.89269956103349 -1.664702136535449 -0.08175028189561405 1.1768995892604828
Ni 5.443155397977031 3.110836598949085 4.764447618739103 -0.5331290391259077 -0.9675390297123466 -0.6828412908837918
Ni 0.5840866725278473 7.310947583561636 6.721879806605117 1.2605368037661646 1.0634807726169944 0.002002118031693326
Ni 5.1042180309667415 4.6460250910305625 7.07114982557374 0.504567425438131 0.12542329730353238 0.23751491049516515
Ni 8.060191343307013 7.10515288816555 9.291844179556184 0.16929351632392137 0.39651167287876876 -0.4943670878663615
Ni 4.584594782649389 0.5462608178377776 10.39848782905727 0.13695340943031895 -0.9081984829705004 0.4725096256716379
Ni 8.107355074701296 6.968287715146279 4.6987246879852425 0.4399064949246359 1.0313198716137335 0.03259027523119548
Ni 7.416424480170229 6.104116242118283 6.930433851343696 -1.0669414774720851 -0.7146496936436402 0.02412620362424232
Ni 2.325587576827038 5.076976910247629 2.5861897807744114 -0.35007343602088736 0.8777026283744883 1.4078820979537687
Ni 2.2610401252790013 5.293008484507648 11.328975845320468 0.40151221141715365 0.04746359279860213 -0.05792335467934541
Ni 1.2245403287101717 3.309168221139869 4.0629187374407 -0.8874229409860458 0.019839660433746475 -1.3785990327189355
Ni 3.5033165468487466 2.6654736395837655 2.6089873913211648 0.4931846375224861 0.054961443837544054 0.8293707740383199
Ni 1.0533323696698924 3.1209469850468246 8.272701901068114 0.4025727914711841 0.7256380743343438 -0.8393104017495352
Ni 3.8388928203573753 2.6853601094685957 6.934877361516055 0.2392275223108977 0.03530561727982952 -0.19163537435423122
Ni 3.9718457528222926 6.686254022527022 6.121050912952058 0.9557188971489669 0.6451995692716178 -0.3464214410905969
Ni 0.6454194007751016 7.398598035334804 11.303586036586545 0.8327422616137141 0.01001264704099566 -0.04469760001769076
P 0.23565602341488007 5.631584443614534 7.888520782150376 0.7277322378592113 -0.9098506738619426 1.68043188856588
P 8.576019808638618 1.4746888090515706 7.842435853347756 -0.9583653336328785 0.9886704123743232 -0.2880216609954653
P 1.8245045539543354 3.2918838881595507 10.322000363900507 0.19036087851718184 -0.20763586354754562 -0.5703203034642241
P 4.050876626099264 6.177201955384251 3.8368427340253137 -1.1380671897743175 0.6954571798755894 0.03526627940146184
P 7.076068587139075 3.9431861060823183 10.333783165071251 -1.3382833638190241 0.77642867462365 0.04450579572185883
P 6.153529737711258 7.850014577082148 10.297510460846063 0.13162274124602494 -0.8567208839164987 -0.6362619004623559
P 2.3770972382597595 8.413874152776206 5.645055923213935 -0.3692253263589899 0.2631099853554501 0.6810826563214721
P 6.884983193411551 4.023852350122195 1.6347283603568934 0.17063717483600935 -0.3041494197952633 -0.5770565937467933
Ni 5.234098996252719 2.916733449228133 0.5632641561731991 0.5495609594296857 0.25967113487723026 0.16000103527840187
Ni 1.7099472837727059 1.1322096445879164 6.962753656625399 -0.8643758293585954 -0.12763393180160598 -0.08285534203433473
Ni 6.829588397017232 0.638160523035223 9.25369305775305 0.18795098352410855 0.44309132041052074 -0.8988185844174973
Ni 2.96588492409114 1.6669126376748191 9.084347252935064 -1.3735570994196538 -0.1700638188310426 0.47605286293820587
Ni 6.437207836291006 1.7096852630427375 2.4354501583434436 -0.23590154326145824 0.924081472749344 1.2821330418797017
Ni 4.045220592410984 7.095747247479449 10.497072676947939 -0.09109701321783666 -0.6053469560510543 -0.3419716328493594
Ni 8.113499009059172 6.980123823982776 0.3134879259723067 0.48845303637477167 1.1215743343256168 0.18474867453672697
Ni 7.7856116886954725 3.9746195584809216 8.207231052326877 -0.7381477767655803 -0.35395374491190007 -0.4195688118085484
Ni 3.072319551643754 8.379639789126218 12.516021911091944 0.2030760120910051 0.005184629524733007 -0.2954781172735105
Ni 0.07104737269076634 4.941060432974796 10.171499270685786 0.12734931068165165 -0.23079610371409284 -0.5176977921725019
Ni 8.49482048794122 2.3188292490333744 5.665896509963752 0.22162292185525703 -0.628626238293969 0.8322169852378636
Ni 3.6075285157954236 2.660513316109539 11.418528206185302 -0.45821660608773346 0.7951349927839017 -0.4199112827496317
Ni 1.0800855897194077 3.3869432019525094 12.389296940322444 -0.4571359714290449 -0.0956658635354417 1.0161341650122306
Ni 3.1121647729940967 8.323233050602367 7.838018545248396 0.28960546054281733 0.06902563524009403 0.6833285149328554
Ni 5.740585067281319 7.958970024761009 3.678869532407706 -0.7794988289085414 -0.21825966180997894 -0.856059596183416
Ni 3.1237027203102836 8.47319926012005 3.5081223684442673 0.24429799485526962 -1.0573409782678436 0.5263238432786161
Ni 3.6859449956366066 4.332151362121372 9.448745806740197 -0.8263019053050091 0.17388319257713278 -0.25766953106616913
Ni 7.211786290065037 6.1155005910755245 11.469255419507153 0.1666699626581452 -0.16660979884417113 -0.40521537130035373
Ni 0.5976954871305423 0.26228094365868687 0.3723856684703735 -0.3041270511977601 -0.9722107241564031 -0.05225304376744549
Ni 4.374987233872385 0.49484602597970023 1.654141385888264 0.8526706251065251 -0.7279741786666881 -0.530722229456628
Ni 5.970892253725813 5.7159822242570595 0.37656715791276313 -0.6523215250283798 -0.11179387944555585 0.6021695867643372
Ni 7.779287050385895 8.72363686678417 11.325511750566335 0.7301858416060264 1.0533519117131083 0.8368151461315072
Ni 0.15805361487611527 4.545535623488951 5.890451889625565 -0.013569254044002435 1.312078166178566 0.5801727707782718
Ni 8.066046151342166 8.858252275604748 2.262110796192837 0.7993721707937007 0.2536956340200856 1.1649550153040968
P 8.456402827809326 1.6640665504355092 3.5459292492194083 0.0486360158401485 -0.8100134525576308 0.6228893358101918
P 1.7084655113687475 3.208669718400673 1.5238457050331284 -0.4645050101996065 -0.523794391988543 0.02724238065572082
P 4.754095089346082 1.0744114856359577 8.052683094113785 0.4910315957352253 -1.6620557000515375 0.027521088238404216
P 8.531349791777828 1.753767992060497 12.337142165782147 -0.8424983125592136 -0.4871008932222514 0.10370441756920204
P 6.404355857871541 7.877084029047142 1.5054111914002255 -1.4325657167433778 -0.9437187873642973 -0.9215777324908838
P 1.9693839472315995 3.2217888252942553 6.121487312995419 -1.0527875545692063 -0.6126620016552288 0.14602734670712916
P 6.951915937122058 3.97776380724054 6.003926743136498 0.38365152908664896 0.7271509114344444 0.09880749448821693
P 2.354183977183916 8.549447292540805 10.089603336254577 0.05233300507576148 0.47530081526352985 0.8523890893103643
