# total energy = -340868.59565376595 ev
CRYSTAL
PRIMVEC
9.18453057051580 0.00000000000000 0.00000000000000

0.00000000000000 9.18453057051580 0.00000000000000

0.00000000000000 0.00000000000000 13.44248887652971

PRIMCOORD
 96 1
Ni 7.350912329823536 3.1085869526383743 7.671856557848186 -1.3812351847902018 0.6033232407528061 -0.07438509977979448
Ni 5.333410842856418 4.767193732236807 0.40558794113855845 -0.11994890445252246 1.207533769206572 2.113500020412444
Ni 3.8402358236511867 2.509085104084887 1.1050037029408482 -2.555984046256269 2.9519295622189223 2.215995505275209
Ni 7.558207179483459 0.7838987456353355 7.682825642427222 -0.820470900445529 0.6228844507141854 -0.09963256149267356
Ni 6.6947602981640495 1.195504391049356 11.481256239352795 0.2631426383655984 0.7627506629159251 -0.3666513949842266
Ni 3.090043385892101 7.03086818577171 3.8309612849189496 0.25995832710034583 -0.01055592113897537 0.9668787704205284
Ni 6.813424430091661 8.243253743576712 8.939268473795968 1.1747750867183122 -0.02406089760394566 1.220108263437473
Ni 5.117684594349007 7.348625381770131 0.5311257755688509 -1.3358017350477511 -0.2828779120109967 -0.39996877818943377
Ni 5.648688215664403 3.4206038171774495 4.522470084555877 -0.9829491936198298 -0.5737455270956893 -0.6555834836091032
Ni 9.23072852253935 9.055212147838366 9.26730499614527 0.46746486415887883 0.22948021311614672 1.1475941554281464
Ni 0.6590607724165664 7.3938408246091125 11.168463282000419 -1.5954674706083425 1.281092516430329 -0.6331104993175678
Ni 0.7964549170562517 1.7284918709171022 3.617938043689115 -0.6400475927570332 -0.21919271514720962 -0.023690144528088233
Ni 3.2979352300237967 3.4989478609346114 8.480503020471057 1.4827032568297174 1.7248063009161974 0.9048277667260546
Ni 2.103193154992242 3.114896724978488 5.306865713282334 0.721707114711054 -1.981649479426329 -0.19494772655691586
Ni 1.1803774695876859 5.855092165881836 12.793847778471253 1.1362463345154947 0.19673361481274504 0.10700082893228668
Ni 7.11272990464716 6.1402259101305 7.82015457690153 -0.11526255472044665 -1.4031193864578029 -0.8795142276619304
Ni 7.492344912451499 2.211028725654943 3.621393264001125 1.9622875299599496 1.3723710495313526 0.6016900760247573
Ni 8.17707001798303 5.660003557037067 11.478460468318838 0.09575842324924798 -1.6182772694140066 -0.2196845671819636
Ni 5.399704782814121 3.9507532771716947 11.84589770735206 1.245551643211242 -0.9502478467320666 0.09722163805833578
Ni 4.417566215976093 0.388912507862415 0.8247947038577874 -0.5546861964713931 -1.2262822534586688 -0.22116912214729004
Ni 6.621329978136087 8.554747089886694 3.4250252500806964 1.334535723851134 1.5063700043190378 -1.0023697642382867
Ni 9.15055675724553 5.371094970820738 1.4891990360232306 -1.2559571548152821 0.611864702564914 -2.1111939979870864
Ni 2.2670910988195057 1.6791342048970566 12.828650719269497 1.328341165004648 1.9836942777704998 -0.7625467744352351
Ni 1.1156448997869264 -0.10470180891241461 13.140503180715577 -2.9907838160819593 0.6912673101639579 1.1894080061401386
P 0.6354519371905659 7.439983905011924 0.702582587861782 0.33893104625082277 -2.827500767618176 1.6252524151802592
P 4.471157950480554 2.1027247439451595 12.617940142778004 0.1482696057740866 -0.8202333305134261 -1.1526931672176084
P 7.149963990625065 1.0423339786533194 2.0349906696309366 1.3336589776731353 -1.010716336430769 -2.3430835918756743
P 7.8386476287309605 2.156674675132682 9.562690513153811 -1.2628255998003413 -1.2257898872032824 -1.2286556387868517
P 1.6344606493478377 1.757000653076801 1.5408987572786894 -0.2933405021052174 0.6309263471820553 -0.7033057293857307
P 7.719790621666314 4.095905594585316 0.2567664038561227 -1.4292772758000933 0.6174362831154205 -1.297377883853914
P 4.542365614167455 1.385982365665978 5.41718845475974 -2.1683254528927556 0.16269272317795208 -1.3838201719085588
P 4.22834652201536 4.1646518041424505 2.6439094171368525 0.27289637531825256 0.19197527419215324 -0.10322902059468028
Ni 8.856412988738276 8.622841197790049 2.158970807716421 -0.4231881537286905 0.5384836185696017 -0.1716195933539367
Ni 2.2105694991381952 5.035979012489252 6.773105260374245 0.2922863498090902 1.4200485581129736 0.6856761892294255
Ni 5.020034667827771 8.30753627139106 4.940141193803101 -1.3417571813002374 0.9954812646485695 1.725294039185893
Ni 0.529290706407927 6.892760403124998 7.942937970684368 -0.14658938985818623 -0.25951301203281113 0.006596165160278962
Ni 8.600651372500797 1.5483189393362993 13.652056722140639 -0.3286425198406211 -1.2392922925650915 -1.2513008869901934
Ni 4.96254869246129 0.11779711226399278 7.233698435235812 0.7848500659181258 -1.7170402838175334 -2.624244264085248
Ni 7.844213454113944 7.165090912086735 13.21918154137693 0.08594889335799391 -0.5334542836758103 0.7887612280470738
Ni 5.685527366837906 6.259119655316486 11.802706534998904 0.6300529434381665 -1.8392036794228712 0.8103546379471335
Ni 7.045673648671657 7.9955102223216485 6.520682220913522 -0.11223096698297445 0.3381111214526886 -1.359789099101284
Ni 3.430826199440254 6.141750542166102 10.700865984305414 0.2406647689780565 -1.0905580884497605 0.9350893938240735
Ni 8.663170470490833 8.938623719766454 4.571252798976954 -1.3357320581520802 -2.3516075701862853 0.09474258039022394
Ni 1.1881843203723974 7.367839419230857 5.770685413650571 1.4785072164704987 0.17547701942681393 -1.3308451623734239
Ni 4.016119579565566 2.6162042813814623 10.623101484412388 -1.793785399189072 -2.1097675499532054 -0.5820900424056427
Ni 4.968325762041976 5.05052730853982 7.66111616807449 0.655151281167691 -0.2293817398650695 -0.7498622369890312
Ni 1.8687304646015228 5.157113783076967 9.371175605062373 -0.3761084266320684 0.22654632729880336 0.0325301114172214
Ni 0.7996740949386533 6.4790983413689816 3.129048249318586 0.8608377342983498 1.4237895132126446 1.886022439548623
Ni 3.4835178499718875 6.837607298463596 7.83838219580428 -0.304058916963986 0.2344766378894736 -0.06656046152905311
Ni 6.656681235395328 9.108794697812492 13.688755350000017 0.5727481961794264 0.20555301287658792 -0.4821780019993374
Ni 1.7544106155223438 3.9540872616832834 2.8913718917636664 0.6509616685663757 -0.04430730655780756 -0.7639986763904133
Ni 2.597229041709446 0.3756142263904343 5.6871943590936995 0.1651589253302575 -0.40198169485440444 -0.7488458799093748
Ni 5.307804372282566 6.53591384602101 9.41265937322626 0.5970862587041588 -0.04814159270223321 0.5209926608736898
Ni 4.84839416492814 3.01954293104099 6.724456640096058 0.3874896718858165 -0.7574781016630762 -0.04878565404413533
Ni 6.089251766771501 2.3537930651814762 0.5273876717225244 2.0889200170802344 0.5107403870180623 -0.44193432398794213
Ni 1.6319808261574 2.2857081418084584 9.571763910671711 -1.0964798532508342 0.01830985405278137 0.792934385588157
P 1.546922890725386 0.6338721979729537 11.002367480064 -0.5505775736196582 -0.3988359501365712 -1.1452259123062856
P 1.5040127650004786 3.1499357082063395 7.408437798670456 -0.9569301438482486 -1.1286348407168239 0.6580337449218085
P 7.836278019904542 6.87318816898121 3.82065073116493 1.201059474336138 -1.1515618818266427 -0.1058075799551339
P 4.738326753394046 4.437818105364668 9.892730181569165 -0.4520876103718601 1.2307194632944158 -0.7239719994858306
P 7.8638224263790715 8.522481834819999 11.593594985238726 -0.7727548253164885 0.8580200623438965 -0.523218721990731
P 1.0451168913448106 4.254889814683379 11.182214360817913 0.591766132042826 0.3695636835350151 0.5263210150651387
P 3.563744722447716 6.577593244681034 12.729082144361287 0.44127663579928517 -2.2900317063560176 2.0307223256935796
P 1.5352952753213338 5.101483082838148 4.750386960176874 -1.5955672294110004 1.0498863217620114 -0.6284951120327433
Ni 8.408244646513836 4.49297121002607 3.556251064147426 0.9307185184498874 1.499263989401876 1.9432824496123564
Ni 5.349768491382973 1.5640704088607462 8.79564905449525 1.0109495354874976 1.6551684860134013 2.0088617781750626
Ni 0.9448861117994518 3.7000064144971008 13.614552610970886 0.21585593746449278 -1.3883602258707572 -1.0590787868945566
Ni 6.579163799368311 1.0824060845047259 5.267062714169741 -0.23262364384113485 -1.2698187432887227 1.7136446278724227
Ni 8.666339133456392 2.7885979157685585 11.299393354190363 0.5515929022580499 0.20012747098564243 1.675275284065605
Ni 3.103379323938455 1.2127070163667257 3.1910318891900937 -1.2411383446348947 -0.5926670465905406 0.6852784395703746
Ni 3.076725816906417 5.765772608374403 1.4749905675950556 0.0379008888108315 -0.5670035803861654 -0.5958174192940642
Ni 5.2640676388275125 1.682688618136684 2.7947341004853414 0.6940214758703274 -0.08234497805681948 1.0368508287342917
Ni 8.717561259134435 3.0948652643179524 1.7642463290580466 -0.25333490824655724 -1.1215002865545718 2.9157798517712434
Ni 0.542624807548214 1.0813039408645315 7.265973793285876 1.9738392393532909 0.4822296811728792 -0.0023332761188669493
Ni 5.821063480990829 6.123014100282794 4.266498142573728 0.03246326273502796 -1.077894634049479 0.5086009720775563
Ni 5.330471793149234 8.3153247531151 11.40850557456962 -0.28190706345729516 2.157541989124007 -0.7453664060012067
Ni 6.4541990796309205 4.1112988674267 2.4650434442227134 -0.6006243537644043 0.07409276535035628 -1.3113166054221934
Ni 3.1299318011368085 1.4549581884814864 7.720088200449166 -1.1901955350384406 -1.2356079017349688 -0.07474351156047772
Ni 6.555238097845755 6.553796126583167 1.9844472807446485 1.3024555554871375 -0.4775294474837324 0.43024017547946547
Ni 2.5512880209740034 8.159821470013984 1.885362730585092 -0.7007811631916641 0.9145833034509216 -0.5772252581141736
Ni 2.7383493503060223 8.304505376380524 11.991613954928248 2.6920686799283895 0.21472645184573985 -1.3098215089339056
Ni 2.2942773086109707 7.686698758869473 9.549369270355994 -0.2844552838004456 2.1101971812914564 0.26994629155099314
Ni 3.701237141561985 4.879557276354641 4.764058133580454 0.6075010262795796 -0.054703305080150956 0.011742485247908808
Ni 2.956812588853251 4.095923963645986 12.690811124908565 1.1797784534701747 0.866386946251353 -1.1361198362399596
Ni 6.853294476275699 4.219731432561173 10.064538761373926 1.1576854782258772 0.09338195259727144 -1.5628638256407084
Ni 8.539923257926079 6.042392293002564 5.77170765187685 -0.9306043614695262 -0.638227765939475 -0.27045202754281805
Ni 9.119384461288695 4.569891651581314 8.198547123718287 -0.31188278388377905 -0.29356135986677184 0.05817223746535788
Ni -0.2350403973487878 3.6275221010936396 5.901803768712381 0.03332483940437486 -0.2977381169522808 -0.11128891478467931
P 4.621517896594094 6.587062495456372 6.089461174063138 0.12444447833003085 -0.5647464089208726 -0.507602612720029
P 6.71975140520546 4.408152072382765 5.956380084868749 1.0345082966440444 1.092262472735377 1.344931208152845
P 1.992923683790778 8.400731700699842 7.515937215522898 -0.29325128482552076 1.89269908023785 -0.33133163663701004
P 8.713079208330976 1.5307213792145264 5.445902051945909 -0.3413283428384057 2.4313107397448834 1.2451533793315588
P 4.744103822974732 8.64651891699356 9.201974513419707 -1.4292289390606612 -0.18827468541211445 1.9510903756925493
P 4.7358377456732725 8.083911326795587 2.8153680663358505 -2.1971814578925 -0.5318157196311227 -2.718211142651712
P 1.4262565311847537 8.73120028668184 4.012166557709402 2.840830394847546 -0.29248843851756723 -1.5670346691889463
P 8.351943475560564 6.454943026588052 9.451265628036209 -0.3335414998041353 -0.18898893787031967 2.0035961589007494
