# total energy = -340887.41899222595 ev
CRYSTAL
PRIMVEC
9.10284927355763 0.00000000000000 0.00000000000000
0.00000000000000 9.10284927355763 0.00000000000000
0.00000000000000 0.00000000000000 13.32294004196226
PRIMCOORD
 96 1
Ni 6.455503969312543 2.1869140029209926 11.18512775904585 1.6904095686038823 0.8543138171369029 1.0321655074434806
Ni 4.7112888309009335 0.5331748134333254 5.77161783331533 0.7237933078161212 0.5184974052556619 -0.39045595360299207
Ni 2.917972923974866 1.9402723042003356 4.69627004002737 0.4488189669229174 0.29461628349384744 -0.25227972750916555
Ni 3.2966423473031785 4.770803258885272 4.765655597670047 0.40674363501942207 -1.6756781759309787 0.29865240123643405
Ni 4.282435400004916 3.0719749265198404 1.9184636981182188 1.0988529814687011 0.02331090681179856 0.5469785434144903
Ni 5.810466973075434 4.676761723934798 2.7006396687814616 -1.6244515165455184 -0.08555551457431718 0.5436412515111412
Ni 5.980171390467913 3.6833768950111367 13.249917026989682 -2.152546335681628 -1.9355650263634407 0.08703107067857915
Ni 5.8979544566112985 8.173248022288476 12.256705152200572 0.08979552079759374 0.2640936894249581 0.1901096817383242
Ni 2.1020208314034123 6.842648145233915 0.05360576857708353 0.3071105593061163 -0.580137289554646 0.9897842142637922
Ni 1.006820634323613 0.4228956161031531 0.08224333211925691 -0.2277724863964206 -1.9652563827802862 0.9274262208518609
Ni 8.04260393075724 8.966743385915704 6.897099568500467 0.6015959736490543 -0.8762265580495942 -0.22179338599485027
Ni 0.07423646597440768 2.488646144921127 1.3832279996289658 0.13531510249594758 1.316450841324965 -0.597870445168351
Ni 7.172681045356304 0.8945297073231228 4.861034341166087 -1.5263395054624294 -0.8652494902128001 -0.9123767827179061
Ni 0.9204983154836798 7.296425177203827 2.2330982185559485 -0.07353586440562174 0.5304581771619639 -0.3515199386594269
Ni 8.060764114885224 4.221155019278307 3.9981607021755328 -3.4738840727852494 -0.6821252386533736 -0.760253350415368
Ni 8.082847627012786 3.9640177354450863 12.510880368908358 0.9157102179665133 0.12192119768754486 -0.8586854638420373
Ni 8.651593644213992 7.520664764075378 9.049646674601014 -2.0095801443983263 -1.4775829048840166 0.01075081075860084
Ni 7.524351417996097 0.8461043702183376 0.23645834133520607 -1.6746767312496578 -0.1281833765471728 0.2697843120518322
Ni 2.1672154372804133 6.944609158977045 9.043864544797458 -0.08689068844597293 -0.4478602025540738 0.6353051929760414
Ni 0.5067392291094774 5.258224421450185 0.955547925993147 -1.4167927701798375 -0.9601360523800562 0.9633663863918958
Ni 6.5062705592282155 2.1753806930011157 6.853027213876886 0.2110567163036365 -0.2534814611267506 0.1035774050730345
Ni 3.439912090656728 4.505600850672406 0.23839815849694707 0.9370344333655862 0.500016829952971 -1.0133730573273259
Ni 6.108266684226801 5.99619240503696 4.759793362793646 -0.6826960235551791 -1.6028555355422975 0.6109625024656188
Ni 5.412809006343125 2.7774522410757783 9.03092848581787 -0.2601395898732165 2.358963753441041 1.165758999262631
P 0.5719684258133891 5.842190402491986 12.201121334495161 -1.2452899049094233 -0.5838795302058978 -0.7849320841089708
P 4.14403568096639 6.447538976273955 12.58091860083774 -0.16952208739495966 -0.5668326020259399 -0.18703078570268433
P 2.4703403152061516 8.718836391158058 1.4956199682554312 1.6698055192002856 -0.55214080434172 0.18144814940858428
P 6.620265539596503 7.798265252880883 5.6667921529330645 -1.3184586157836133 1.626711516224289 0.033298357041813616
P 5.17547041949154 1.4961078809718524 12.852160749486153 0.13312709370569328 -0.6070199728781029 0.8102821328379852
P 4.1388379540806355 6.604016953797783 8.127885793935103 0.7042112719191357 -0.4968080932076863 -0.6020497733570213
P 4.809353825192044 1.6193968703600268 3.378004523621138 1.301722533975855 0.41461635289927945 1.7049915801831153
P 0.22807916865861022 5.845385502556609 3.6224142037211524 1.168542475545039 0.25969196081283663 -0.9715970018318041
Ni 0.4554301093822637 0.5284631786941554 4.829352784855794 0.9650931392750152 -0.5579936635780712 -0.9142637153279738
Ni 2.1074916437647744 6.770690122411003 4.435379651474366 -0.8646977314743882 0.8964698816796626 -0.10540057432470236
Ni 6.317896198153283 6.136931556316536 8.879072935111182 -0.45663743452607164 -1.032850192215331 1.3036971412037224
Ni 8.71942807635521 2.298815327976281 10.017278632889848 0.6978382785132563 0.9531776187843519 0.47233119111224464
Ni 2.5434361941774335 5.329863844551554 7.005561837132922 0.049709965630617615 0.4064626134438935 -0.38582539680951616
Ni 1.0309795960658026 9.051991568551575 9.153965326283565 1.0406712309216464 2.1928098111873657 -0.06364405921320652
Ni 1.8538589568685326 1.4300940186680249 11.362389361833344 -1.1362213948148303 0.09091934998939182 0.6210353133205886
Ni 4.4944498604183805 7.094696936371626 1.6508189954684909 -0.6195633567607524 -0.15423687910111503 0.20892398623134986
Ni 5.816147150968097 8.098240544987934 7.6465280392136235 -0.4178811396934803 0.388436352069802 0.31016554408235614
Ni 5.277804650051334 3.377430133837441 4.9574790283019174 -0.06456708524810816 -0.9068792499384447 -1.0730848713656616
Ni 1.1550423276348682 7.442853609225252 6.561001439964807 -1.4420402318927166 0.11402251166575848 1.32549855334953
Ni 5.0923067893194816 4.764030739090176 7.02930297809743 -0.07214798291915962 0.33915036135048043 0.11731378082252053
Ni 0.890930440754599 7.830908070065318 11.46970558175316 1.1691741955917672 0.11270996350192201 -1.1452138281214277
Ni 4.717305814213514 0.8710097655938578 10.617783580619438 0.8961523504392438 -1.8278905684028974 -0.3027345417256077
Ni 8.45546365563177 7.521620563240009 4.696642346559116 0.7551335126902995 0.16404435210984006 -0.11731480926378506
Ni 7.65922833439927 6.2906695762350875 6.926276930999427 0.2143389865993341 -0.47695403459623664 -0.021775444003878628
Ni 2.5621880635025693 5.461709512175469 2.2578251980874042 0.3698452193311759 -0.25529717417925063 1.0583681339807773
Ni 2.4784418509825454 5.23689644580514 11.096077316304585 0.39465096552094614 1.3083025011862177 0.7930086904695182
Ni 1.1014993687171748 3.467038581233866 3.8938557047667612 1.252734019892294 -0.1801613122763607 -1.128674692815824
Ni 1.5755484458264446 1.1494622810832624 2.6044079883166042 -0.14456696011151876 0.6424634012873774 0.5839044699065622
Ni 1.4751258135959118 3.35105917974282 8.048427933667057 -1.4306808410158394 0.13700508860386082 1.3997872367607764
Ni 3.700226268856198 2.6650320536168333 7.129678275512191 0.6602415512064048 0.6774468593410977 -0.39536624642041585
Ni 4.200828357043827 7.181874923035133 5.869341470761929 0.04875042993082572 -0.5016780197054779 -0.4578623080721082
Ni 8.437494631336714 7.5084669461648526 0.08003042948190715 0.6395781093197823 -0.3743407932086843 -0.45857476075810055
P 0.6169984001714385 5.778652515167012 7.944828407070275 -1.1693791125137214 -0.3373274492091287 0.36026426051096017
P 8.726710355704778 1.4168493731009995 8.046002934643651 1.329455481114749 1.748149860738144 -0.24459804259419168
P 2.170173863266175 3.301057229158854 10.247578896750078 -0.4859737215963437 0.3905821947682112 -0.029327545319523685
P 4.111611332162441 6.378857979158348 3.707427532848001 1.3007545136356307 0.6154002265219982 -1.062505038967286
P 7.159955262192936 4.10098830716126 10.16007411780076 0.5750195087121065 0.18774118150614763 -0.22658720783906786
P 6.534170791986245 7.988269023960281 10.096549884749566 0.30328758601560024 -0.410122578793984 0.20377612348182322
P 2.43095228677418 8.71177258018898 5.55077634004527 1.4499666858286446 0.9196414347001194 -1.4426850645655669
P 7.365552213929594 4.592533060407865 1.3049835491575403 1.346610652737797 -0.6735770919730464 0.09253683098815675
Ni 3.044165722253681 1.8007529347118132 0.38644416681889404 -0.5429390832377939 -0.16494243844407722 0.11570195625071042
Ni 1.7193825658295856 1.1990455006046288 6.743379754280288 -1.206742126543212 0.6931141335647095 1.586634702808061
Ni 6.8785224738797215 0.7876140127675318 9.047301780650454 0.1548799120017526 -0.3645009243001271 0.5972793485515713
Ni 2.853515648882009 1.5129026377217918 9.207856924325121 1.0205798594884101 0.2592245342581148 -1.3228102078840898
Ni 6.759493617911044 2.4497405674960637 2.018159012698714 -0.16353450235295708 -0.1858750748316863 0.8417802034462664
Ni 4.218788278489698 6.98278650846715 10.415927899898618 0.9656796079061046 0.5002988799697642 0.14457673030353166
Ni 7.347619601031285 6.251773101659212 11.26722362500828 0.28651448032231946 0.26217487513569043 0.46566123529123676
Ni 7.935263133144618 3.8822195326510713 8.09822871128399 0.42603745025202755 0.09601527645506044 -0.1256338706524417
Ni 3.4677759120180096 8.62756212236042 12.837611665630636 0.7422671982505926 0.7951339643426371 -0.9358355279614786
Ni 0.034728279933167724 5.16283566482004 10.054516568343862 0.7589127772270736 -0.6327988816144199 -0.15812027331592124
Ni 8.569231064770385 2.462530070603741 5.671002220682033 1.4473888977991396 2.0261475618387044 1.6358499881904471
Ni 3.88279301214985 2.766665364789232 11.64956513769861 -0.10097647711507772 1.7367603879542801 -0.40180120341248216
Ni 1.39466572963238 3.745831543282863 12.590777896792135 -0.11862324366256345 -1.6873756668735647 -0.06853866830134647
Ni 3.3454973388895883 8.679757859598443 7.59847227778583 -0.31282072231701613 0.08257843422386424 1.0552694404507956
Ni 6.050836808706276 8.359109996987808 3.5422763606188394 -0.7062851237290287 -0.3187717976941284 -0.21376254527057378
Ni 3.5756446748834754 9.007214653400924 3.63200678619437 -0.8961032423688632 -2.2454037832339973 -0.4915445308159018
Ni 3.6272305212259726 4.671263603025874 9.077238320771606 0.6621490526417628 -0.7059678495989261 0.1331875146299835
Ni 5.394002519922868 4.639858773330866 11.065687454293924 -1.2439465035076511 0.7309332612950122 0.29249846581989625
Ni 8.358427283298786 8.918780473549615 2.5219125072748683 -0.4259122375280729 1.1170479072101729 0.09884786080784912
Ni 4.900582579743748 0.31047633892912674 1.6002180774080226 0.5502497579665943 1.31092631196231 -1.582241715946688
Ni 6.023400821256781 5.962593788687895 0.23724573778987804 0.7297497825098723 1.1414101381046213 -0.3495278479300626
Ni 8.185072623382338 0.1573837110179296 11.075480299449254 -0.3647462075417138 -0.0949050741100172 0.4687023361104056
Ni 0.3125727250968834 5.179257204753315 5.60589318158739 1.0834898687490695 -0.5472369392821994 2.099210086152333
Ni 7.345307477337797 6.392220961764805 2.8439412721071653 1.2863853893981523 0.5210538531289284 -2.5411153566745526
P 8.440862685535889 2.025156372868729 3.4486826858483632 0.3748128477490964 -0.882994472901047 -0.20166344801419464
P 2.2094526575079034 3.3278469143160745 1.8179818973679707 -1.5776499828109476 0.19986084758781708 -0.23788617779165483
P 5.029852141047755 1.0977945090980823 7.951529924641713 -1.7578717160115984 -1.6271879416400752 -0.49370194347853674
P 8.972487283752674 1.8534402258059324 12.440694670822147 0.05924387326298185 1.9215980226603873 -1.7630674012799248
P 6.764573007757367 8.057113872361253 1.1926844295927816 -1.340030428417118 -0.45940908373393785 1.3398913317360923
P 1.9109065127232054 3.399996096971912 5.966398779648044 -0.1441787235341646 -0.183916922664051 -0.813006987968316
P 6.98338729651349 4.180874911626013 6.100280754635082 0.749914173272889 0.8493541591387824 -0.7449360033320074
P 2.957215306819847 8.834387958737318 10.590298437784332 -2.1516137965650297 -1.4790623176430204 -0.9061685970246651
