# total energy = -340859.4600414402 ev
CRYSTAL
PRIMVEC
9.36586232068022 0.00000000000000 0.00000000000000
0.00000000000000 9.36586232068022 0.00000000000000
0.00000000000000 0.00000000000000 13.70788622218645
PRIMCOORD
 96 1
Ni 3.738964672639345 1.8734440961278105 2.4929574958751495 -0.2080729510849642 -1.169429506135683 -0.17695231842075976
Ni 1.7106185777720622 7.620899235281594 12.61166668035718 0.6452245089722823 -1.0839999756162686 0.10119373533220635
Ni 1.1095830880140272 4.32275760966267 0.11205224153329522 -1.458758830198978 0.762892587810428 -0.3282758805298217
Ni 1.0359393117223246 5.21972625463995 11.213791107694782 -0.09609472354274419 0.5386219439196788 2.7186942529357174
Ni 2.973474004462639 5.425091520155423 6.055130276102255 3.0373269539488206 0.8649967507720459 -0.45681664041641323
Ni 7.739714566076016 4.943367751900631 0.42973667566133494 0.9848206996109298 0.24540845431062897 0.59245390213847
Ni 1.9492045573288255 9.154540476565291 8.54183605880499 0.5526617098421966 -0.6739442455044781 1.1869888551756849
Ni 3.482574188602036 6.8783736617846865 1.8659448500796396 0.7901282835979296 -0.6229608124780754 0.7817480299540343
Ni 1.2229474868738475 1.7259785921582242 13.601211255943351 -0.4455140709194005 -1.8344144855643438 0.8203567434651677
Ni 1.1458758049325501 2.668343572336558 2.1628988843038193 -1.8660516528536506 -0.6908998995222101 -0.5731662575534515
Ni 3.8375778381709913 8.148871632218622 4.70745291630907 -1.3241816343103197 0.5034793345802748 -1.3831817669936115
Ni 8.147448021129174 -0.13357218364005408 10.29378618748323 -0.9927515244222324 1.430882158393368 1.2017618997198012
Ni 4.502900607652572 7.56160396023355 10.572371892308542 -1.9560325501891733 -1.8293506978881915 -0.5133022342079676
Ni 2.6347482237980437 0.2166061736046628 11.805040207799095 0.5092113519680456 0.7794242669168641 0.054479361994802945
Ni 5.651370756478395 7.447799365839492 5.676710097284348 1.6506842249898024 -0.337818015692302 -0.37491723453744463
Ni 1.9678332577032622 3.1021703201213295 11.92115910679975 0.7007207422673739 0.1120003390294071 -0.2642818941763642
Ni 1.7922701664419163 4.1059378943945894 7.69283842461093 1.1369672718419193 1.0503460350072493 3.052980344215361
Ni 4.15959492025942 3.265707644021803 6.579510864797154 0.45196599719233127 0.9860671704235211 0.5723956979360141
Ni 9.108235652708471 8.622465831883666 0.11448830235149081 -0.31609245108975237 0.9757205370818745 -0.7896971095977819
Ni 5.270123960378936 -0.07580354416819583 11.764286530604885 0.5437497520645475 -0.9286168987258524 1.8750669689783834
Ni 8.947863990309537 3.5227724701541137 7.1016998416832955 -0.5353990661070069 -0.7937339986713169 -0.6446568093942704
Ni 0.863513784375225 5.296142326211106 5.938037327408819 -4.040353635044816 1.424472141101966 0.9460741749703512
Ni 9.22526210377865 5.698808849689316 8.480274245048742 0.6878994221329895 -0.21397980348770243 -0.208826284311221
Ni 2.312646848947739 1.7775657624258951 7.409249476075197 0.09262501982658886 -0.1901662460078725 0.1513832117024038
P 5.862093295304164 8.844230722515094 0.18870433283770222 0.17686335825137928 1.9521825803154635 0.7581864405840103
P 6.803989982360967 4.367479602768721 6.929034548257973 -0.5533165698173761 -1.5054063548541878 1.3267964462253472
P 1.0070081626742424 9.065349368638815 10.45951512319246 -0.26314032437275325 0.30859151472701696 0.7319251928946363
P 4.041706809845626 5.973209887180643 7.9271882245903385 0.931673426163989 -1.0923231507699833 0.8465786532761742
P 2.444012435399147 8.639380579433304 0.933509557250214 -0.2730187598287298 0.017318950894421786 -0.7772383150091389
P 8.121251703910822 0.6234133448634356 3.4090147050722086 -0.5390256071160007 1.6827240270341661 1.0794468090279474
P 5.659650178867033 1.6052338937031014 10.843897610033679 -0.26490435825171155 2.493049354405261 -1.6440759756446652
P 6.507345021596998 7.697071794429555 10.185959823078614 1.42825474807285 -0.21772307258021859 -0.5079702804720929
Ni 9.061855901952205 2.530412516321309 4.213050580081993 -0.5511105633049928 0.6457130185729266 -0.5631286708117914
Ni 6.8995124132905215 2.281233746355552 5.678423113522902 -0.2336279167359331 0.9039582196369078 0.6542693927833699
Ni 9.158830041558499 8.421502521710568 4.4674686134914205 0.3035444392214127 1.186391587911318 0.5747395155778424
Ni 4.14442222312187 1.5090183889536852 5.077263994380783 0.8347826890825106 -0.9479377105416512 0.0917107355424356
Ni 6.784574549542362 7.257175967789763 12.952582199658048 0.8598959392103708 -0.6736480544202978 -0.3081873373100628
Ni 6.403870973463877 2.7875897328027865 0.026939030109096287 0.30282350189498813 0.36652823914280097 0.33024226022757325
Ni 0.2438758186575588 3.631856669883156 9.872022670509052 1.5050687690091111 -1.4715521253089043 -1.3885288902381376
Ni 4.870145439418304 3.697605024145874 1.810263861343559 1.0769119584212357 1.4283431940215983 -1.1475337345038559
Ni 4.2413308016911495 3.9327911956403345 11.149830696570062 -0.6316485700600606 -0.6080306735308045 1.941997669362662
Ni 2.1815809700941102 2.00659856230346 4.085032352863277 -1.495935182138959 -1.362982152117285 1.6770596296595377
Ni 6.98140751438357 1.5852658750010906 9.08890451265174 -0.42683526356297463 -0.7400632486207384 -1.1688618065576708
Ni 0.011479737581170015 1.0382152162929572 5.980065698479832 -0.48949150494161503 0.48914209202199627 0.22164297645991504
Ni 4.589647225484666 2.95065876358173 9.169904237296425 0.6302393484173597 -1.0263915810741808 -1.167058949020977
Ni 5.952370843272588 8.469455737355172 8.049079304606964 1.1827910150442533 2.045130787809426 0.18162606974734527
Ni 1.8980763143202533 9.063710342713462 6.2155253531572665 0.16578370339844997 -1.0685784988548759 -1.63644751256513
Ni 3.876324411046328 7.928090157142404 7.216050465857057 -1.1742950617581003 0.80652883644314 -0.20876303517345335
Ni 8.259651053047602 7.801360672594136 8.622411509881568 0.09621299428816332 0.1831803016083426 1.3104771402400335
Ni 4.315246187993339 0.16119679487906932 9.366831797348183 0.07255858809401697 1.4206643373201018 -0.14334825721306924
Ni 9.170265759586245 7.336364334640373 11.130721527452936 -0.39008365786523785 -1.2374413553992818 0.1799671939876836
Ni 6.158316792258757 0.4604623239511174 4.389306745163203 0.2303235349530485 -1.091674461442391 -0.2861357568266621
Ni 3.5442483927074484 5.291852761217898 13.520129111709277 0.12668828005888505 -1.8901056084790608 1.9831708011668618
Ni 5.206014632041571 8.549327812163215 2.5557668425071496 -1.176993948746502 0.43637945560798397 -0.5193399557616153
Ni 7.36698133892596 8.905249316250368 1.7235472142712438 0.7903573688896002 -1.5652775772885235 -0.7785925150441881
Ni 8.419676178536603 1.6597057495993932 1.2191009271736057 -1.9716592009828369 2.0250005927184542 -1.1301849588127633
P 4.338192550948277 1.165206944989281 7.262040596736209 0.9383220418287582 -0.8662679041749854 0.7657190015156297
P 3.482012236856201 5.569644240909096 3.839606483973456 -2.5733737024876264 1.7408952360582597 -1.7724385580821798
P 3.133527227538934 2.7567104843691426 0.11004420062817745 0.24984797813922133 1.3974585886275999 0.8335958678632611
P 9.131322503599867 4.819298172282649 2.9126108840437155 -0.08357036582348833 -0.7436067429976226 0.009966881404724771
P 5.566338091471099 2.690606227334062 3.7380721059497097 -3.1416996012296408 -2.0785990947702007 2.2503798962923502
P 2.4677455307982537 3.913628641107354 9.872405734282463 -0.07432390752455588 0.7431004927851654 -0.34374389425843377
P 0.16712538579763067 6.617141026870764 13.735576728131276 -1.5011300960763374 -2.63487680409843 -1.0445993623314591
P 5.417139902951854 5.93548419331024 1.039667861555941 0.5638408663874676 -0.7810911130963257 -1.1640260757319243
Ni 9.478814731499492 1.3499766790198937 8.457464623685292 -0.3400229937634209 0.16387620196309197 1.1409319129166222
Ni 1.580798358621701 6.996392894272509 4.357326071307722 1.368848381090075 -0.8971723070633258 -0.28788719230013
Ni 5.678054098543136 5.243871447986002 10.02328884145297 1.0024466402228092 1.4759335422060516 -0.9178938558813933
Ni 6.538261733480365 6.377796412457124 7.565999359472224 -1.2306312744559837 -2.5243808175286917 1.382331246067858
Ni 0.44594430059746504 0.3373209013000076 2.1118642999195525 3.408074887599924 -2.4333959044086866 1.2784807898390949
Ni 1.576536891215784 4.245920074282137 4.0662659743111105 0.07228142317323036 1.1546585184740954 -0.5963023293502827
Ni 7.562652936825776 1.080989110013446 12.527952728780111 -0.5507434097735612 -1.3336576921215548 0.46854369904535437
Ni 6.067570951168804 4.877919105235692 12.500962186427646 -0.21624186004900178 0.4549723881188229 -0.2646721876362474
Ni 7.625919337544388 4.651780356849177 5.078497478462891 1.0671597641304784 1.1635959301730412 -1.4953476850666052
Ni 4.072735912078159 0.766665147325501 0.25493971194681075 -0.23162477026297526 0.14611887797967094 0.2055638115098653
Ni 0.0534266256490383 1.6788589382699428 11.143346710009366 1.2846743202443165 -0.3336960231041285 0.4364167366038225
Ni 7.097366257136663 3.474313497938258 2.8751464977351255 3.4959384814821277 2.4722828112818713 -1.6955399478519122
Ni 7.3659136306088735 2.9728371258173594 10.997741266318494 -0.6429534535499185 -0.611340711740644 2.625185030731963
Ni 5.0366704734341345 4.620395351844282 4.6041633756658324 2.3701182273959636 -0.7156835342247934 1.3434939614856862
Ni 4.141153537133595 7.712544199164884 13.233538404264541 -0.6318316326051441 -0.8711769114408286 0.0784052766827811
Ni 1.0993555662398264 6.907323542557631 1.9006809606621995 3.1682488124730788 -0.04459655566345223 -1.0423401339836371
Ni 6.131923791929364 1.4195931344664443 2.0906581142042184 -0.7145458210759241 0.18069378774106298 -0.8687035101996716
Ni 2.5982494579060478 4.193274561559809 1.9215443558125742 1.9173317911848655 2.2921736923996843 0.11663655224983784
Ni 1.9867710315379086 6.48327475515039 9.717301432914491 1.5995187578595806 1.3602161593363733 -1.488794971549752
Ni 6.198683659334586 6.513067563542087 3.099051487931945 -2.6040248517145796 -1.419223491108517 -1.5125607065107822
Ni 8.276116239200572 7.254712745970519 6.534741105792707 1.5960475114815287 0.0977829098784445 -2.947309804058724
Ni 2.6431681341231408 1.787268795903983 9.981657582949014 -1.1547063409928953 -0.6101256083866201 -0.3291045470787042
Ni 7.594506234952201 3.803280049950183 8.986547811906588 -2.256118855658656 1.8828826083680605 -2.371831096322012
Ni 8.5511916187869 7.022074089057177 2.6230858518994773 -2.2161356303974995 -0.5677054915491965 -0.5330544771342304
P 8.779184807934671 2.913007996610772 13.169084412189731 -0.6359492543179435 0.2050051107929179 -0.41426256910428655
P 8.154650369338293 4.932194278020941 10.855384840304794 -0.33465041659759787 2.0313890127433014 -0.009466030508906279
P 1.4776052863614975 3.0619626727068217 5.95995625525512 -0.7973358570899624 -0.5265475292536481 -2.231485116270376
P 3.578564912653118 5.9647150499561015 11.65370472947319 -0.43975042896274585 0.9693187473205886 -2.0780583917753823
P 7.9140600952213855 0.2864202487484985 7.38391762795919 -0.7044290443568966 -0.24219868912407963 0.014856348286542156
P 1.420679574508392 7.279906915908796 7.676279579833653 -0.9898011835446565 -0.9368027769707544 -0.9657487705811432
P 1.960340567758793 9.176372301890988 3.8021701952521583 0.2367374088991923 -0.1679053777271431 0.9792280360145007
P 7.5507114622267775 6.929689222041871 4.458339707380327 0.9017884656790985 0.2110073511229398 3.5894939835427864
