# total energy = -340867.8282141001 ev
CRYSTAL
PRIMVEC
9.28909150282613 0.00000000000000 0.00000000000000
0.00000000000000 9.28909150282613 0.00000000000000
0.00000000000000 0.00000000000000 13.59552437014477
PRIMCOORD
 96 1
Ni 4.069708908551088 3.5262598983874267 10.45993412937302 -2.322156097694388 0.23747068752079104 1.138848290914716
Ni 7.599953827199697 8.218412251370463 1.2617270828767086 0.4443179937287703 0.3538352170561648 1.837752291688325
Ni 0.3616048256999521 6.502429086175889 3.388602993365252 1.0777221130273569 -2.4226312096930145 1.2740764901238122
Ni 7.838646322843849 2.361705072970397 9.14863209397439 -0.9802513350726925 -0.11820981027422867 0.3185691947650191
Ni 3.7429836925917273 1.2328575153482038 11.0498443885818 -0.4768504191388368 -0.4995535171633074 0.9512855439679618
Ni 9.17743663786227 8.554417269756213 11.654342237110301 -1.577264831557387 -0.32257780170378 1.4145057739178735
Ni 7.675576321246983 4.838734217135616 1.8802746823260452 2.0027600361526994 0.0388550251939847 -0.31687072401667365
Ni 1.4107529070076508 1.2100435065802229 11.880979349782512 -0.7823548103000978 0.6470726179246147 1.0165756234250234
Ni 8.881941347586114 8.098908088992582 5.490742982050759 0.23407168914157106 -0.05561861780556873 0.16906597369414755
Ni 3.1175956061486034 0.17752011236212342 8.699136671059453 -1.1194840274554916 2.987080656198759 0.2343707084392286
Ni 1.9862957283656826 8.724621293638831 10.578433212048662 1.0869606009064894 -2.095850425651481 0.6551625940216007
Ni 4.98508385400025 5.978301386369474 7.51801196419278 1.0638571821198064 -0.5801403748784395 0.5144741430288817
Ni 4.052161814673761 7.268221790912184 0.6231865717533795 -0.10386202619298887 0.9660156510892847 0.9002915694185979
Ni 5.845318752199111 3.9256815445659323 2.85565808789004 -0.5432136770554193 -1.151722575774223 1.194025450307492
Ni 5.907054054427124 8.350614601853323 3.3610450455590755 1.9264005862553535 -0.7101533484351834 -1.0547855588358415
Ni 5.980177782856092 3.189994785439175 7.54907840186527 0.5568549219879378 -0.14372106717145572 -1.4901800248227368
Ni 4.102378643419569 4.6854456289071065 1.4930059545804182 -0.3299249860974705 1.0279668959811004 -1.6117081008369207
Ni 0.5813187784638669 5.895479846395811 7.995813106781085 -1.3825438762992963 -0.5125345028040077 0.43015070108945275
Ni 3.662809543700668 3.3744111193441926 7.359637598358216 -0.777726310389151 1.0713192948248067 1.0427890485955975
Ni 0.32997175344486984 2.429896293803356 3.371132998947523 0.9053029065902602 3.411009801858532 2.4955451242439217
Ni 0.8865351030135131 4.615080760658957 1.8817841596977052 0.607055968322361 -0.5509293005321222 -0.8277486650538649
Ni 3.7471080492256785 5.097723377746395 5.753884366570043 -0.8312199114319169 -0.07582825998422425 -1.2813660818066899
Ni 5.373265699442086 1.3361057675697459 3.563984756859953 -0.15357867669182582 1.1320652065546117 -1.2801489215701372
Ni 1.23322907900892 8.035500750291346 7.3592706792432585 0.612116927785036 1.4512802624337457 0.3352080888732808
P 4.518390607049057 3.7052606919375046 12.863147507791187 -0.14347321282670777 0.21068313501430166 0.39112855418998443
P 7.045097812652045 6.743750394719608 11.355634778987254 -0.4430365559131854 -0.40333460933787313 0.4401384084297839
P 5.894606671793128 3.6523221593769497 9.59467383266297 1.8138106932710634 1.3106432335042524 -0.1275969079160835
P 4.057614511394773 9.223445508150466 12.892840088828178 0.47570962066617434 -0.3205137200858996 0.5322610346986575
P 4.725119338780089 2.9971904018934863 4.928799390674944 1.1320387241920502 -0.03208839589411248 1.6877626178993386
P 3.6877693326092853 9.099547605484616 2.641895656061649 0.4049407774827284 0.8370213486050423 -1.346650504836797
P 5.94462842961706 6.064160459269494 1.8067227267781014 0.550363143616007 0.6715500342406886 -1.930996690266468
P 0.7453325517589527 4.791146201289376 13.265112507227295 -0.14902576721382074 0.13866627835636763 0.5963365250223278
Ni 2.947614520462414 5.442488009433533 13.018176871770152 0.3018616522023511 -1.0377440299725225 -0.4352085752283344
Ni 8.325199647460327 3.6507244356358695 6.965544175074383 -0.2670859392840626 -0.08941242642656215 0.19748154872236312
Ni 4.7220167822131085 8.16918935541707 10.956659938110759 0.054633113963847846 0.6044452701723914 0.6034852202519672
Ni 3.9488671169946294 8.03037317177346 6.866515028220274 0.4295783735257505 0.35319629792058527 0.20837788391989273
Ni 8.084324215309467 8.925479319530547 8.287559319720614 -0.20810946074985448 1.2442645489687023 0.4379226317253877
Ni 4.729605969983238 6.13409802930782 3.478971920197215 -0.3537979360603261 -0.31810922440946504 1.343755442677189
Ni 4.0256228802070995 2.1671450511278243 1.5360358132188212 0.7640557548805937 -0.3185023460828257 -0.6194538277660815
Ni 1.4146636145366898 3.879384712440681 6.559786439571512 -0.5399607173357603 1.4871916316183742 1.6660943888972854
Ni 2.3515613850328423 2.4449446220623665 5.309949393837726 1.267483410287327 -1.1884428140133918 -0.6686225761812484
Ni 3.236756072140321 7.345246937778673 9.14694612386389 0.34052667287271676 -1.2895753570903596 -0.025657809777420326
Ni 6.156819147160621 2.6736699225078033 11.66854897367779 -0.6044079891765527 -0.3715012668773602 -1.0541476681415265
Ni 3.4250180899337526 3.588013778798476 3.421340538601813 0.5526077166758097 -0.3271363676087398 -0.6130412393715183
Ni 0.6225038235268134 3.4451382621615405 8.938893696591556 -0.4127913838753988 -0.38356102625537164 -0.35627750794907026
Ni 7.652465061550429 5.143583622570304 9.688387761350532 1.1225187005167572 -2.0922894477731 0.02117200609192483
Ni 1.2061235099596659 7.767092450881408 1.7878249989940707 0.9977896010667721 0.21649922747544648 0.09113943641999789
Ni 2.3363086967604376 0.4630621410768416 0.8807591459076782 0.02267687277222546 0.12152576202133909 -0.32258731478547664
Ni 6.9285104250107885 0.4163417263783739 10.785179593053579 0.5647582359954144 0.19990095679713316 -0.29513513211179493
Ni -0.010029432111884748 5.593324277501315 5.702112543904137 -1.4087012514209547 0.20033290212822918 -0.5281716951206323
Ni 0.2756222078827447 1.3704939843690396 7.379854377137789 1.2492429760199 0.3943072090282822 -0.24976210329363435
Ni 1.566595995403585 3.975303871454594 11.445773336349573 -0.25217739760334634 -1.1486483077242733 -1.0841634977773265
Ni 1.6627845380715174 4.561296920770272 4.192479115506665 -1.2967356222842248 0.8142979388655976 0.9314775081030989
Ni 5.250389596843205 1.601169994033237 9.294416954074736 0.2845164760556842 -0.8956052196865222 -0.25071366857362626
Ni 2.386720596428122 2.7915577829615676 13.234658220685835 1.3690155027955582 0.5754231719084284 2.056056690693311
Ni 7.138843324250768 2.7970940815062404 4.76762436374773 0.40242006794340374 -0.154128892768341 0.16902123649914116
P 8.71823968776603 8.264801974410892 3.2745366651619547 -1.1132082217491086 0.9966156353633288 -0.6221010355809415
P 5.207873424965743 8.69066966414088 8.804081111392165 0.1832227248105038 0.3220712943810066 -0.5751853448660095
P 8.668357266314867 4.383754514588506 3.83253796609757 -0.37043143085194913 0.4520315603229441 0.8874008294988589
P 0.19586792592829433 8.930616187139949 0.3127581379530354 -0.384831408327363 0.690229870038379 -1.5461182307512533
P 5.639574664168977 6.943066431419349 5.325720413416828 -1.131262251037342 0.2831190814875253 -0.3339670173773281
P 8.337006082779588 2.2214212128669577 11.416284186416823 0.4467358591416435 -0.6585531077603883 0.21272690491720783
P 1.8169555899942285 0.49853903940203403 6.016495343963655 0.6519212042661675 -1.2483178931024697 1.5603752548908996
P 2.2607326481707424 2.2213376110432965 9.56014163494515 0.65726858462101 -0.19465410657589702 0.5524084561808099
Ni 4.24816164570161 1.2622853572769348 7.106272053752377 0.3762472662027778 -0.6499890202404611 -1.9790068995971595
Ni 6.820469001566006 3.9457738495191665 13.500641138300447 -1.8774624657937538 -1.8183237506500685 2.7928129864280034
Ni 1.3983055243736546 0.49990082021855925 4.011835081667069 0.46339917872993736 -1.6123585899367263 -1.5165464306314074
Ni 5.453189042862163 0.07005461259145133 1.1549006726024684 -0.7727669095013465 0.9660300492669879 0.07845309920158101
Ni 1.9923057705777687 6.943029275053277 5.183348365540164 0.3844238884762992 0.31198434245864975 0.6903494263353788
Ni 4.104700916299046 8.56614939234333 4.623769776864807 -2.1389878802709035 -0.039214722526248594 0.7171472632545132
Ni 7.393996090064652 1.0403039372734988 13.427687400246256 0.7363508327661576 1.5466069974622139 -0.09454460544680492
Ni 0.43994345010707336 0.857959999686126 9.791347122825867 -1.1167085215928831 0.93819374378101 -0.6624437010640462
Ni 8.14104340811781 0.7619841772139538 4.138953512362178 -1.2995707777401746 -0.11323086900239855 1.70207440653632
Ni 0.6312299960987358 6.074183389017316 10.993164209957833 -0.5138403660996248 1.2902744400399135 -0.14356422987861728
Ni 5.553762036726547 5.884305069299769 12.994928133519135 -0.6869725394433459 -0.21452102070315313 -0.38316430503758525
Ni 9.203037374085623 2.700431795170895 0.3627910426867889 0.42013856826908935 1.3493475920529856 -1.069728810409235
Ni 8.210535101763277 4.5975429558731475 12.086651911807957 1.7623068689648165 -0.5689285653230202 -2.705336343571573
Ni 1.8357195548604017 7.486357527027207 13.057453937435321 -0.328770303667737 1.1137797779818623 -0.9327206364815808
Ni 6.477905884568612 8.372704061482906 12.790098092094363 -1.1550629530013654 -1.4376199913378338 -1.0651249930886366
Ni 6.069083677773985 0.3859868331161557 5.593171936400421 -0.472561819065812 0.5574527034729367 -0.5314228550680783
Ni 6.227862119089577 4.8095014461287615 5.5354996828023415 -0.19036139273781408 0.14213418230031005 0.7888687001592155
Ni 7.835339406263474 6.404076185184284 13.538423589140384 0.9512840013060649 -0.49990652962735194 -0.4818794969223121
Ni 6.8059129951574455 7.9007810560071325 6.767199777347414 -0.5165135420564138 -1.4410287599090668 0.903391034279528
Ni 7.353059063745233 6.359934422291187 3.882773373026414 -0.6225296384779279 0.15162540962019694 0.03757564426092883
Ni 4.658117121661423 5.914986938583417 10.260705410133546 1.0666802533908983 -1.7846415279062748 0.6758599744699522
Ni 6.504296193570989 6.9529128684283314 9.188086581287552 -0.05592406486112949 2.559900864812172 -0.4486130215596983
Ni 2.14625388430405 4.996648772940043 9.40497572132087 2.447288860340695 0.8595478118423324 -0.037573330268083675
Ni 8.7054114523798 1.1955803910868408 1.983355730900265 -0.45295792879195534 -3.442372118219897 -2.3251804863430086
P 2.7737413054302205 6.184008318033537 7.497306579199364 -1.234220277358823 -1.3870934433431916 -1.5691326893685558
P 1.9504026787404878 2.416278485638104 2.054379195737034 0.287389169617789 0.4955084005596563 -1.019753764042689
P 9.184022603748467 7.800923322189627 9.593966932798459 1.5329163873489988 -0.8609930289292913 0.28471419388878705
P 6.961932576292219 2.3703996626311583 1.8457016126055452 -0.8111071998424418 -0.4073049068395308 -0.7682700500722576
P 2.817799466499656 6.63733456229046 11.164712365383092 -0.40832203525013555 -0.21374609021034158 0.12717036190162614
P 2.6815377830234706 6.435111039945613 3.1479486415925177 -1.773829267782119 -0.49454089444006444 -0.6326654413603491
P 7.591119901166168 5.790661737707743 7.37676854093554 0.15075766230326296 -0.4357274238462819 0.24752370088141887
P 7.5777343202888625 1.1924220999707524 6.762237544658547 -0.24836265184294648 1.4027568609120615 -0.3401219812351304
