# total energy = -340862.03795774194 ev
CRYSTAL
PRIMVEC
9.30507273707188 0.00000000000000 0.00000000000000
0.00000000000000 9.30507273707188 0.00000000000000
0.00000000000000 0.00000000000000 13.61891452187267
PRIMCOORD
 96 1
Ni 2.7488673477624936 4.2743409612166845 3.9053594705909083 0.24708404224083896 -1.0775907296558151 0.890926069043298
Ni 2.9631259510526986 2.0646188290034724 6.790608476949925 -0.388408327045344 0.25645082816771964 -0.20412579351175814
Ni 7.253853145240548 7.291687570715141 8.724916276766521 -0.7006675204319353 0.1408293474459575 -2.146124748426001
Ni 5.304496251395409 4.663748947366766 7.747759888992037 -0.4864285497455752 -1.1068254581512165 -0.6037605854005409
Ni 8.067777156723112 7.544115582096044 13.545753460941471 2.1329481018347267 1.4109910758963957 -0.9755891537103327
Ni 7.402631952154779 2.8874943203941914 2.2753936130861794 0.5484731256821458 -2.715021432069821 -0.8915541895456001
Ni 7.202247212214947 7.915946285973252 10.783115536135236 0.7862034946222267 0.4586068995476167 1.682145528822877
Ni 5.091521748133609 4.158548636916184 2.9233272247375535 0.7120662491871801 1.3111798227340128 1.1851191489567976
Ni 9.287718709070994 9.051295422681802 5.585252626011641 -0.2941704542056805 -0.21380291159020595 -0.34124118244123813
Ni 6.224330600003357 4.627970942952155 12.944777898517232 -0.286443517875068 -2.3731876103499063 -1.5085119903627051
Ni 8.605954644714755 4.1519792556114465 6.501179774605625 0.8323663663315342 1.861235205301614 0.6569315129965654
Ni 4.528406665387437 3.832359314483363 10.627983225602202 0.13716141167606702 0.8162828305061103 -0.7500396431071599
Ni 6.723733850180778 2.713340580309962 6.976520106859461 0.23236987595911596 -0.4017834628006694 -0.16488304596105152
Ni 2.108045603152495 1.8047467594868893 1.3101802860831264 -2.307926327248251 0.5878382577433297 0.03202668941824161
Ni 8.15385838398958 0.6777061221650255 0.7165166497626592 -0.4062952346280938 -0.23312089519252754 -1.9148388495596829
Ni 0.4485380009363208 7.18148759508907 10.171231637020426 -0.9619083137891306 -1.6184413057956966 -2.5164075695152275
Ni 3.57272917685619 6.3496978440808745 2.897505648079414 -1.6288961825804333 -0.4916214068004244 -1.404518837908491
Ni 5.3028678636782285 0.8437132711270207 6.144363735988083 -0.6467345178589056 -0.8113951633965059 0.7376896061822392
Ni 0.4231063068230375 8.45102518476592 7.949850248752206 -0.07909561788158637 1.414552310885093 0.9104803370261417
Ni 5.241500909422218 7.2211458148069045 7.08962512617298 -1.735864872723204 -0.17847209749939588 0.9071592430727087
Ni 4.012821893837582 0.8874229194851988 0.8573349670080478 1.9734805704622913 -0.6928487957184648 -1.0422288052167537
Ni 2.172492536462143 6.163382374017478 13.331146847933423 0.12535002086343572 2.2012476575420736 1.3434505098422604
Ni 6.34144424462294 2.5065911706641235 10.902226979856982 2.261396816228144 0.4076360649267044 0.6766415898309831
Ni 0.16370600449080314 1.8771495299290455 6.66148756655749 1.0219929377858528 -1.4376978957636208 0.27332137867081313
P 3.3532039024349913 3.637278465965204 8.373235707755331 2.103968169662609 0.39504948651094546 0.23381920681113283
P 7.494147341860293 0.7553820772890437 7.390467430653811 0.7120968453147994 -1.0957013232135968 -0.6399177520473882
P 1.1758262028213087 3.4340463737884748 5.24712303432919 0.5485566865348875 0.08745787380335261 0.41920731470407163
P 7.050583832773141 3.5838766539143707 8.922472274614794 -2.5457507985640353 0.5625889962582376 0.7408137536335176
P 5.18911335029237 0.0860328408885858 3.7663789051977656 -1.9269389752573265 -0.33745163349181884 0.5374117256616615
P 0.4897445847463765 5.236876288305426 0.6282850202022471 0.5710777504555391 -0.735863608717094 -0.22852633384330964
P 7.946653025782932 6.6438311911669246 6.400536108611234 -0.6282814533600406 -0.2527720937645518 -0.13826955713858122
P 4.622322763841708 5.7953946651528145 11.429578946304815 -0.06857646351781739 0.4210687933928426 0.24929339118733196
Ni 6.289922057251366 0.7023096648107143 1.9575825780850662 -1.0639088612933483 0.34337288407226024 0.47904357013541365
Ni 8.363269044418923 4.442827912045128 11.712579704448954 -2.22548647548478 -1.6560814847459735 -0.5451103798574999
Ni 2.5762303345234088 9.025883269221124 12.377278265529146 -1.5743597420954498 -1.407276603159286 2.2076453335383013
Ni 4.779783203556676 6.307936677939711 9.231567248046295 -0.2649274981801631 0.9608001683266163 1.2916983169706335
Ni 3.0077251643580905 0.034024928723658615 10.234450300737688 3.374403206379092 -0.1930656790428546 -2.881610662088702
Ni 4.60367539821183 3.0820261696248448 5.7488702323120835 0.5857731476841848 1.3110096157047357 -1.1242032873080317
Ni 4.973952154953214 8.139091233662924 1.4413846022462842 0.585205962326805 0.8880814005056512 1.5733259015142969
Ni 3.472476323913922 7.397411806387134 5.020203949164728 0.6369789811340385 -1.235120163465273 0.16922152543540536
Ni 2.782123677483643 6.724599221939051 10.745201087035685 -0.2958103038019486 0.18334330954876812 -0.05524220830275648
Ni 6.439994269266672 8.062557010955468 5.534454373293762 0.6317069341018218 1.2378545316773004 -0.903053191324135
Ni 5.602379542767307 2.9536906073657243 0.9176727802268008 -2.103296083296249 -1.0558057725702397 -0.36666964981667177
Ni 7.653515321472528 5.520662394582882 1.0571167382388893 -1.446333974172064 -1.4474955985803328 0.17868729883399548
Ni 4.196699434861544 1.4810884168201996 11.947355992975627 1.0792285223695544 0.006022552044996079 -0.6326055346566912
Ni 0.9290668417107256 6.841610510759269 6.2093940973541155 0.20181205777691696 1.4550237886365782 -1.5785179872381974
Ni 5.719381526514854 6.746801125328716 3.2739321273481368 1.4504503103332826 -0.35503617934280146 0.8651844413028196
Ni 6.622224812428113 4.385080631057591 5.3199426720269445 -0.8055129935841159 1.4904803296719749 -1.1640882964284274
Ni 2.3577658383865447 4.324160320289722 1.4934641634707675 1.9439753619143234 -0.08158778817582077 -1.3210909112001377
Ni 3.9958773565062407 2.129344914493209 3.092011443106592 0.018726372764909682 -1.2563459056132684 0.2648855891986341
Ni 2.733216215532227 0.2463238837096458 5.236363578801332 -0.23508598933869834 1.2290711290577154 -1.0575847188475336
Ni 1.8817462358278276 1.968767275433925 12.366586737031776 -0.5849509088932054 -0.31075535514755515 0.16491312786803855
Ni 9.570732494316871 6.073653558264527 12.2006410015494 0.3423992073050813 0.32410812230537733 0.33359343608799324
Ni 6.311733147588908 9.324892474386044 13.002767111394178 0.10595953215196591 0.29194953529496176 1.894348442915815
Ni -0.3290645898877272 8.659970591561782 3.215343667791269 -0.8279222145172517 2.205392532948382 -1.1712405912024926
Ni 7.006059060049105 0.8151587946258197 4.303876192377261 1.8051669015531364 0.5759175950463437 0.7020003803107459
P 7.777477499576937 5.492635515702047 9.814878991021832 0.8579079622460644 0.7486890426165363 -0.11565901882791695
P 6.006368577790651 0.3862870647766981 11.023994091318633 0.140364491994397 0.6154279944361402 -2.4667438837415134
P 4.558536490691601 9.014763707380952 8.479476374960488 0.2776863405077282 -0.7936584082383751 -0.7776013547755125
P 9.274272879063421 1.618561560440867 2.0279112478291683 1.5158008107146346 1.2415864879159069 2.0167064710304627
P 5.279875029111647 5.269211415832286 1.0905098525282821 0.41553372250722626 -1.1431656873431473 2.0704620674853635
P 7.0478016160449295 7.6786111024624395 1.720545156899681 1.007096994510627 0.6648908770529581 1.3538022853902296
P 1.898085943435645 0.9545050493748776 8.156667585428533 -1.6634350968975673 -1.1653951881653088 1.7234569859771545
P 7.541305450149825 4.5257733298219405 3.327495847663421 0.5440924801159468 2.785534707599035 1.9381456426064236
Ni 1.215605388483848 4.759786602389706 10.016656700340302 -0.7993914540674104 -0.17864179030804073 0.2685553247407375
Ni 1.3569401372623993 3.7729836457786474 7.816862150158286 -0.17807923293635136 0.44344407576424916 -1.0075554222042842
Ni 3.17397889774583 -0.3771485529078841 2.835947939833676 -0.21166889596633867 0.3222597562427289 1.464712990899884
Ni 6.323336573207899 6.7426231477000655 12.536742087389879 0.04714117646217688 -0.17620824116588363 -0.43185971336075946
Ni 4.6997130532347695 8.157543192766742 11.731101451597793 -1.0868649558688896 -0.15511593927195866 -1.3162695785520944
Ni 8.546746467318092 2.6823919086108723 4.746791137899343 -1.092454534141525 -0.053906777320784575 -2.5161334899182344
Ni 8.847960974705707 2.651945710835942 8.707933588637234 0.6040737457655854 -0.6646396802741006 1.4177330226059197
Ni 0.7290096403288638 5.467055870933317 4.3064918483046855 0.11009052360120396 -0.0012058473826430847 0.8819223228827908
Ni 1.5303122512423826 1.5043883187848777 3.5102884172141073 -0.7836074517602762 0.49226649658359095 1.507581508128636
Ni 2.8301843778221265 8.482271618790435 7.207320337834413 0.30750110987631557 -0.9762581547528993 1.177753709730662
Ni 9.186442298135068 3.149655437787496 0.1580615474094239 -0.34842998688019344 -0.5666158580294435 -0.46077845327763867
Ni 2.607728005510004 4.447257126635858 12.028987534491492 0.250003272770163 -1.3348825656675913 -0.2703502118576312
Ni 0.38108832067619275 3.929699679680047 2.479732078403324 -1.1259158991237643 -0.7763661968168307 0.9748823574512954
Ni -0.013230882828903952 6.429302740769301 2.328412056143025 0.9845358213806593 1.06487173942725 0.11465191771964124
Ni 0.9117501014726004 0.02471241199592314 10.436950083695319 -1.6737123104538596 2.825771186521578 -0.9250932018433101
Ni 5.136037215784974 1.824240886729701 9.079702879034823 -0.5665700923931727 -0.3819029218266584 -1.1791403056655434
Ni 8.681344343483854 1.4130125051694076 11.865098220069097 -1.768436636011638 -2.1957290417166893 0.77712467224941
Ni 2.66594984520369 5.406275136255491 6.5725831802430665 1.4797961104852515 -0.9676112777111788 -0.38326766338466894
Ni 9.145807045786926 6.075002793801619 8.021636092876367 0.816046031904956 -1.9240454557596154 2.009921586898145
Ni 7.943247369185858 6.92574697783779 4.244784328388968 0.20705068046803693 -1.8703469377948951 0.2651848656066078
Ni 0.7107307555767022 8.486449596419085 0.9973530480038507 0.49024252417502673 0.12388937715750921 -0.4115338573192138
Ni 4.3118776243658505 6.687611558077391 13.65922603062544 -1.482548219309092 -0.6171125812274146 -1.9503311289290217
Ni 7.946848432308992 0.551253906614232 9.537965611418143 -0.5544316572584258 -0.2604501791350999 -0.0833281679056952
Ni 2.802269159813327 2.4407019510906873 10.121373196642176 -1.7424304417558636 -0.08804279977254513 -0.6262613376062182
P 1.4934362482527586 7.84995471060045 3.8568763199532254 0.34850891974724496 -0.7334657979088787 1.1814920937271716
P 2.7772385143321032 8.293760151577013 0.8743706940515511 0.9091335931902602 -0.7104641948073829 -1.4072714609529635
P 0.44688821155200076 2.920806480551359 11.183511882600849 1.8734170920797866 2.1891015090978425 -2.148626174691616
P 3.4586582909995665 2.7699340322864674 13.551718943029952 0.4552582947903579 1.998260605620449 0.2861434701361459
P 7.016517961729735 2.38832369703351 13.02021319214241 0.6485779988255475 0.21533786017749368 0.39213668373952465
P 0.44539753891033085 8.150285236084454 12.025923374061394 -0.3102524473692076 1.0032953613763493 2.624395702061448
P 2.1743442459233933 6.519580555809759 8.334653154438103 -0.9026574985476131 0.6477040808610265 1.4257386665192155
P 4.386001833251882 5.259459699674545 5.135093681416276 0.812631092686136 0.28962628647842376 -0.7241290938889852
