# total energy = -340866.6444352269 ev
CRYSTAL
PRIMVEC
9.26404325760736 0.00000000000000 0.00000000000000

0.00000000000000 9.26404325760736 0.00000000000000

0.00000000000000 0.00000000000000 13.55886373135157

PRIMCOORD
 96 1
Ni 7.349174928110982 7.391289269607075 2.1938922403039784 1.568589415270576 -0.1086324509984387 -1.2681151303340545
Ni 2.488488821820867 1.4113214344216627 0.6814185683267624 0.8478760319313591 -0.49993275487959704 -0.34486772345023187
Ni 0.1592646556749652 0.7811811993657267 2.1192101540807586 0.7584988296181067 0.0036584226881936992 0.2672700302704107
Ni 3.613838499171938 8.015880342640099 10.195818154304488 0.5490935328749641 0.6484304175040898 -1.327783235618649
Ni 7.109801309563344 4.704976064084584 2.8718895973868985 -0.5989032573082395 1.582613754574126 -0.41274613245976016
Ni 7.425306837133176 5.50792776554354 5.040724452983743 -1.211322546825043 -0.4176384275550549 0.7857257836548597
Ni 1.286747842231172 1.4953926286753032 4.551141064272105 -0.41821152644970555 -0.29309778996679203 -1.0114696696570258
Ni 1.4527687647897936 5.022195439691543 7.936287386987253 -0.8172670487962506 -0.32137246854176915 -1.373259622783893
Ni 7.630987129675251 6.072413724712363 11.413770283516714 0.5445431945001202 -0.5782228461407525 1.0309295781538503
Ni 0.3705765602266028 7.2887641008131325 12.135020533034986 0.9235903920455385 -1.179751199776665 -0.8529619310946988
Ni 0.07620787417843486 6.702850409158505 6.11552209806999 0.3512209193617693 0.5911547237110722 2.474016763253842
Ni 8.592242805504036 9.189310405465152 4.349860265961552 0.47601429639078663 -0.6159383584136553 -0.9630362567459866
Ni 0.9341861408856303 1.565234252199071 11.758775304625043 2.3188825691494386 -3.7276383279574126 3.4640187499553954
Ni 8.818257673405531 2.731966411614165 5.635768785856704 0.03127464174356549 -0.7724766319544374 3.146608608495484
Ni 5.260235035983255 8.258792825783317 0.9251740794233778 -0.4802247349277084 -0.16520289119431547 0.08351482999520456
Ni 5.021194922999599 3.014204759176854 8.13915511593975 0.3923480284193823 0.25881804284831555 0.16235282334003007
Ni 8.718854487252191 7.48171559766325 9.720986828372961 1.1523573811447445 -0.6201837639535707 -1.2072465769834562
Ni 2.8503979430013318 6.507851558707279 11.602794752350949 -0.32386978104232605 -2.2642561400538104 1.232552659848413
Ni 7.969995535462327 3.01938335946201 1.3174183108609823 0.7467362897655397 -0.13184437033852778 -1.7835043289780381
Ni 2.2463081981097193 5.480181955428979 5.41168176539589 -0.2058623165868906 -0.5551389677380956 1.4168418782502181
Ni 4.649067561900482 3.1839776193302662 11.100018439370816 1.2792986577546999 -1.0460618058095985 -0.7953892748865528
Ni 4.578114253163443 5.443514871477914 9.777337225429338 -0.015733094464540645 1.1055417063427864 0.9539088405234217
Ni 7.741173662397322 1.8997588609592864 11.427478288600692 -1.6998658289207755 -0.46763250008499463 -2.3458560124144894
Ni 3.657796385313373 5.02818001175632 7.5598392760258895 1.6968121296961165 -0.280657250210594 -1.2287371427570646
P 4.696860762027704 1.0552393965674285 1.206692610810474 -0.3260392778898191 0.9598486030466243 0.3941064058713858
P 6.444105675769615 7.3135639451125245 4.0244199782024515 -0.0862337715882644 0.042213400143256335 1.1342341891814725
P 6.788181513320519 6.556497050831341 9.611864734242596 -1.30250852021226 -0.362093343299899 -2.3091378310578485
P 3.031176486766129 2.6755854432144233 8.390740596555174 -1.429060788913913 -0.10124618583669659 -0.5426686031852266
P 2.9481058092044328 7.381450855469624 1.339364829779646 0.37402531885079454 -0.0879561535960098 0.20009610352707474
P 8.371721515364792 5.032246926828204 0.21829791971270324 0.15825525623188874 -0.17777892808711315 -0.218763598029591
P 1.3917094544508686 2.516929435193724 2.150923754002355 0.20000045848947492 0.19386426368475002 3.4681643966926528
P 6.785939614807089 1.1511222462120763 4.390089374616807 1.002932578720292 -1.0638808362688903 0.3073823249102642
Ni 1.7280127595523178 5.473845349713332 0.3744507831948532 -0.7176607125558221 2.5965231440208956 -1.5419741266758926
Ni 7.91362383110603 0.5135485426967331 6.476120357103139 -0.9762566120910025 0.8048329367979559 0.259188795924173
Ni 8.9099902315873 6.738266847244639 3.9676221278477333 0.5344302744358345 0.966058331401762 -2.710334568117113
Ni 7.527980230622223 8.5827656890609 11.35973867653435 -0.9015691505794409 0.5963560654063536 0.39613114961089846
Ni 2.5441471948319823 3.988013213872162 10.093787685430453 -0.33823402018379817 0.9289434288273357 -1.5858032080457012
Ni 4.644722725525281 4.468140793440583 4.335893794065488 0.2287567046865609 1.6041061201199471 -1.9020514679870273
Ni 3.529257782528881 0.5450249831061649 7.805309561563975 0.4294778433921443 0.34074804485490345 0.6146623199147092
Ni 2.772959803853543 9.198602241039412 3.0675165499836226 -1.4721910444444837 -2.7573610733782967 -0.8291506876077139
Ni 5.161758254174308 7.588724563484054 12.176497508342138 0.005407287058500365 -0.5137717176452183 -0.8850426136793272
Ni 1.9684239509656756 6.53042803258013 3.3558728718366817 1.3370908861728197 -0.1567179936517559 -0.1130650328484956
Ni 4.085869304770366 6.705110835758823 4.785465779142802 1.4438240632660166 1.753369971486503 0.4573817688912639
Ni 6.518829450188333 3.1243820278554817 5.081482538519645 -0.2636391183860427 1.1617421647937543 1.2238448476617698
Ni 2.516253160022317 7.34690523746722 6.484675701223606 1.1328349948411005 1.805372589806039 2.729503941956712
Ni 1.8805544989000251 3.969355430376092 3.940585943460976 -0.7755151616704451 -1.8680162327791894 -1.1966070949917393
Ni 8.554047154384724 0.45003796646254496 9.186943442365228 -0.66270312537302 1.3103051334385436 0.24368067298624488
Ni 5.21606407684261 0.09506946663027088 3.226155882726123 -1.5374690397166877 -0.5907320343513569 1.1721245364693427
Ni 4.144881261508183 5.6969235158431015 0.4532257238116003 0.1699972272591653 0.3451562012249281 -0.3673003414221352
Ni 7.219330095200896 2.6131179982720214 7.991527025234703 2.297244422054373 -0.632329398177169 -1.4934728366413956
Ni 2.237433244490437 3.147468024117749 6.28847900995508 -0.14128957491182764 -0.286185636227991 0.8914657435968518
Ni 2.8901221612888923 4.227275663898473 1.9000710592233467 0.9145933307532508 -0.43904774646876643 0.06236082162540872
Ni 6.255489751251255 2.5822409414734113 2.7731404527006998 -1.740129818647145 -0.7791324467080581 -0.40394190390456886
Ni 2.852751010036089 8.633958793132042 12.87744931227042 0.2893815174574694 0.14086919954495739 0.38598120566109007
Ni 6.534087329740481 6.978502021832562 7.211187001013685 1.10588880526956 1.4225296726636145 -1.2902631271860037
Ni 6.27288762483895 0.14580029493356125 8.294268553747491 0.06144473756904257 -0.08232003835615499 -0.8473255587445279
P 3.4340234159253082 1.0039721801487347 11.21048196699186 -0.1934919679469958 0.9232417504568681 0.7452699896326584
P 1.5466876372243286 8.193870409328273 4.85347682768205 -0.6232714017399589 0.9868395298131714 -1.9416402860232431
P 2.5406175942798463 6.57364479524605 8.818698641873462 1.2142492335535346 0.21920454222175154 0.4090625129605858
P 1.7664492758011723 8.613337032425859 10.931332251513377 -2.761456069383277 0.27004219369890914 0.4961393492754359
P 5.741113003070636 5.073759105500443 6.285943441264477 -1.6553284086300333 -0.5552317845622179 1.4130564430658565
P 8.621146621049089 1.7782794592790674 13.148071475758767 0.9651093372249314 0.34839527698751616 4.019237936112123
P 5.184723817871804 4.293115220654464 1.9480291593238697 -1.1498767808147357 0.34929516309396624 -0.4779678205727317
P 0.13520686125543036 3.2536895462458193 8.143426766371746 -0.5870643556917825 -0.6043326558539269 -0.16746829018972448
Ni 1.4044382501428248 1.7585563107869462 9.687862314634854 1.4427503705858638 -0.06871118932346876 -2.3421657080470952
Ni 0.7242545788071378 1.3091205071482566 7.402596961034733 0.8477168806456754 0.5356479488930195 -1.0715473516752128
Ni 1.6248298436738553 8.629493524192068 8.597566851271262 0.8316780820152581 -0.46915022228110165 1.528640385681464
Ni 5.130279034551844 6.413265675144781 2.6016203939537634 -1.049005718929271 -0.18895782752206813 -0.40883342766891523
Ni 7.09636844656965 0.46587114311256117 2.136063301913951 1.3275068420288103 0.38643963335474735 -1.4210718571711654
Ni 0.06233311631246493 5.186094896301506 2.0833601587614488 0.5565317343205641 0.05949558426247172 0.43310387018050567
Ni 4.5355737656689294 3.0984149140821535 0.0699203678930414 1.0730162229112552 -0.25418465784136224 1.2021488507455749
Ni 0.3092356229669825 9.069248402431853 13.480059589424037 -0.2937930162616037 1.2505748074574463 0.2765131461352334
Ni 8.751500976348591 3.1596224491161813 3.520029868854385 0.6488137689854375 -0.3378388416279085 -1.0958877281927901
Ni 3.2708558187474166 0.6143820971578156 5.364863142638971 0.2283144749428197 -0.45030635010172126 0.2774174031170577
Ni 5.520675089322385 1.0959548675034891 6.192359927202612 -0.1956123567241083 0.6468589592519118 -0.1027669933565972
Ni 6.587031338022526 4.228544837850291 9.833756176407201 0.7606827246433029 -0.33806587003705 0.41273713359869557
Ni 8.937328423790328 4.9633317076488295 9.321977066008257 -0.5498682062574595 0.7586613233378998 2.534485510062861
Ni 7.669043820142904 5.1287597314270394 7.456182041123098 0.6046638139411006 -1.9890007775850775 -0.22675664353739655
Ni 6.816288621129394 4.0708522903477595 12.53106116947591 -0.35065399111470574 -0.7604603242198517 -0.16454057501996824
Ni 0.20739506698354515 3.3235960180736948 10.985256395591788 -0.8879860125783674 3.5158110520363386 -1.0227043620305807
Ni 5.307750314807159 0.3177288979963751 10.348138483013887 -0.5211361284300896 -0.6668102055628581 1.671625860238476
Ni 3.44501983549325 2.012029803456241 3.1585913610808727 0.7058148689608296 1.542018349650267 -0.803391576365739
Ni 5.746588052745995 0.861466179063834 12.758159004056001 0.019459394276192293 -0.09808270050705044 0.20120887697527928
Ni 0.8635478096256846 7.652359277900391 1.7230472322663728 -0.9219358871612511 0.3311737709029071 -0.5552968334721985
Ni 1.049069543633773 3.306124032138448 0.3427760922557213 -1.7574464555487217 0.057138653994520956 -1.911960242460307
Ni 6.5971013532460745 6.287311740481146 0.2024823447452305 0.033791494628148254 -0.1167360539421796 -0.350874334655628
Ni 4.64399086609321 7.437813295782479 8.157880526952962 -1.7842856872287527 -0.5490143428975963 2.2479772003881284
Ni 2.756812576130778 3.6812622073568404 12.277578412763171 -1.2598863146663593 0.69433875000043 1.4687331678028706
P 7.381080293731868 8.513813413707748 13.508072203989785 -0.5891762598284628 -0.7518383868787956 0.5416692153864349
P 6.409930619504967 1.929885530238938 9.816550068518795 -0.24727173277161285 1.4360300211428947 -1.4129623406901537
P 4.751240697043557 8.320917501118293 6.338931916955053 -0.24390358763032832 0.8587996208223984 -1.138960391012548
P 9.185076737611277 8.434096319872753 7.444426896397098 -1.040644234338453 -0.7036410012379625 0.23928305813918146
P 1.0388049834979014 5.205957005445286 11.541224066813921 0.1986136054442773 0.1399340893251977 0.3120645608772819
P 4.040577396373005 2.7462052463874813 5.097102642170451 -0.5471124978891932 -3.0313761356820246 1.6691511734457383
P 4.874600699542894 5.203400129454762 12.06850099549021 0.33670061425840725 -0.309385471383222 -0.767333140080285
P 0.18250999348446761 4.709645141980324 5.22877249163899 0.5338312073992548 -0.28562385018725006 -0.5215703877540309
