# total energy = -381169.9395563943 ev
CRYSTAL
PRIMVEC
9.20085122715991 0.00000000000000 0.00000000000000

0.00000000000000 9.20085122715991 0.00000000000000

0.00000000000000 0.00000000000000 13.46637580723894

PRIMCOORD
 96 1
Ni 4.38374556301362 0.29862834765559426 10.384043881697805 -0.6767668025549377 -0.5002942519840738 -0.8191660655911762
Ni 1.0116151897622447 5.069972649436634 9.073146163758338 1.1024008467209596 0.2735998291431804 -1.5450507087186875
Ni 1.0125260740328679 8.235957951139431 8.61388843544654 -0.3152146764704894 -1.0497225424906373 1.1130274731968703
Ni 6.411208334098581 3.657007128675927 6.344454318338739 -0.16914670633341194 -0.8205706592481867 0.7650633702095018
Ni 0.6925857947000599 2.312311923955857 0.2149944502504495 0.6519690267849675 -0.39995000913635637 0.542861178812007
Ni 2.2708712900681176 1.2256913950610966 12.012559584122554 0.5865323944477124 0.18948258967728657 2.4315652789578515
Ni 6.2508466982128335 5.971021210107191 9.624378361104775 -0.42871396864292616 -0.379332847106637 -0.3096819195777183
Ni 2.1922868198116388 7.258937961958425 6.960217605790647 1.7937776858795882 -0.030339531523805814 -0.3335445851279288
Ni 7.5953026808012245 2.592763069944351 1.0998734349897648 -0.6990940052972283 -1.6560555166040445 1.4636009887826278
Ni 6.163889453347597 5.065915074049313 4.376114377013067 -2.3267036078557544 -0.8536676989124717 -0.5494360038160473
Ni 1.0143018383180218 4.068478396014645 4.365139601679743 0.15792666924787643 -1.4412984686306853 -1.0814844082832664
Ni 8.601792996434813 6.858121280330631 12.529291349655301 -0.2971195095316754 -1.0926010870217182 1.5692622729678845
Ni 7.282804970018993 2.443460857223138 8.590578078884688 -1.315421371619186 0.0032668436767298572 0.0652607688810231
Ni 3.5375156739023774 6.166704913820432 9.927425877600571 -0.323171726534037 0.3287692752264725 0.8212895396920823
Ni 1.2241180495027475 5.978777527684314 11.544198533615258 1.4909140747752838 -0.13873724080361913 -0.8729609999244451
Ni 1.6840502002088549 0.8445360124019329 7.153217421203475 -0.24379817240071558 1.8297751870201198 0.7810309492823517
Ni 8.865839024700874 2.4640339605475132 5.97157050092493 1.5778433297686763 -0.17082075160172516 0.09320274670692981
Ni 0.3073369533338236 8.74353210945449 11.743864365735828 0.14073678773215118 0.7485484032736142 0.035590752620416125
Ni 7.888276185297982 0.46782188062589786 3.8729704285596758 0.5391767879818843 0.0684849322452756 -0.6430084751575701
Ni 4.32896369485918 4.732200200357417 5.958238467509447 2.274723101023405 -2.2654743287316275 0.9490913645301202
Ni 7.476639302637332 3.088882168492483 3.6381969084450003 0.12062510458394064 -0.5712888380250806 0.13331735533962846
Ni 2.567635545266861 7.6043931218050185 12.674202916175087 -0.579515339699931 0.19756639512668556 1.7164268186032505
Ni 9.297920198768841 7.019780236238175 1.5366350820725385 -0.7669063369555115 0.33603829808405994 -1.167844163926434
Ni 2.4922437703831717 5.542482363758314 5.245611378685437 -2.2113999154847273 1.2938536727507395 -0.2049868559604728
P 3.627306780942885 0.6430585326764562 13.68291523737792 -1.407896753241788 -0.2114351826889778 0.053964112921281254
Ni 4.374811536480539 7.195286473229434 3.044222156763421 0.4228744791430136 0.7735559810615451 0.2522768992956881
P 6.476092736890839 8.00255075743069 10.360894540032275 -0.43613648635924246 0.9156305137685135 0.38160827340437503
Ni 4.474760383266177 6.772442953784755 5.32877971301893 -0.1167738491586505 2.350195006109475 -0.634676558253107
P 0.26058374795257183 2.174151942060144 3.0740641976052263 -0.9055667017746082 -0.5016420242612198 0.8973641113591578
P 7.240665071438653 5.254642934241432 12.118216639004096 -0.025525397964614106 -1.0705973290571174 -1.7453442729685489
P 1.8541187341300298 7.9771564080678665 10.714777679594937 1.8441186002259855 -1.0114326457715033 -2.1431548671644
Ni 0.10041256968704554 3.9870784652853315 1.9462551381461113 1.62854574121955 0.6142303745836132 -0.08403907792979075
Ni 8.644705766517498 4.1981735947894165 10.409292857611378 -1.63100037340763 -0.8222601311354677 0.7483627696253692
Ni 8.50669299824128 0.28835283701486886 7.4573156749084175 -1.0692696113846296 1.0244383140025517 -1.2032662521794695
Ni 7.859882358437954 4.753601380291449 8.070130089544824 0.008921213749029796 -0.32641902982674104 0.8086569385297363
Ni 5.936564022294228 0.5370941693642193 2.0795855932372787 2.0512466708991766 -0.8615694702580516 -1.1327915431976747
Ni 3.6043046528968485 0.48658885685609804 2.476237969603618 -1.167362339194009 -0.6795363948802748 -0.3987544461663584
Ni 4.497642900246374 1.770032154844939 7.32840162840209 0.7452841307000454 0.17240095160465146 -0.5895141027838557
Ni 8.118886320236324 0.7423844818346069 12.988359540431999 -1.1610554231393746 -0.2646850431520538 1.8146391027096298
Ni 1.5415750190917055 5.952426289794776 2.921906960750939 1.0916634056987973 -1.1703970122552747 -0.16361240677874403
Ni 0.30165910804694 2.145380880300161 8.395894507698888 -0.08750261099835897 1.3495329685909143 0.04126080642199991
Ni 4.746498323150833 2.5092009391787102 2.2976871709441866 0.9176786545467938 1.3169133827836803 0.5509958921039995
Ni 3.4077376674666398 3.0468802826804207 9.143642165708709 1.4211075955051073 -0.22195485127337905 -1.0824413728798972
Ni 6.27187064324691 0.34830650363918 8.77928293694876 -1.3627175856019886 -0.273832771089593 -1.4544463188665533
Ni 5.3049715904061605 3.6988894034221502 -0.0035791311239632665 0.8473839227862889 0.40654694562758364 1.1312833340832644
Ni 3.218071320450242 2.783496715702085 0.4511223356644754 -0.6872612743283584 -0.1397181166596497 -0.7992335883333074
Ni 8.43983961328828 0.12859569705417118 9.771592900684528 -0.563599696910939 0.565666863852613 1.1836268806819874
Ni 8.28105132296088 4.747317198909272 5.283128769613644 0.16065409548136847 0.2820654434120304 0.4981998313488904
Ni 0.11087485760750473 6.799465853813238 4.508097827485859 -0.5510475712775413 0.10445003748597496 0.1225583170509115
Ni -0.07484984474692434 6.400084504975517 6.969953946549973 1.082716995138787 0.00981930008326696 0.5167115169998328
Ni 4.208257727724799 2.519919930848163 11.16477015072979 -0.6302866567155274 -1.9217466324231098 1.7563321394386204
Ni 7.838076341050312 5.563653522411886 2.904885385996872 1.581157995964206 0.01979723723158526 1.5212512923062445
Ni 4.561662423024102 7.506532868245961 11.739205054678823 1.3228860554273474 -0.486716256189323 -1.2168558179384463
Ni 6.768827019255919 7.341478798238822 2.050942423309232 -0.305640402518493 1.235504800498201 -1.8356509290746061
Ni 6.748060698055956 7.310839963681502 4.33842216991171 -0.09465567710337247 0.657312550485068 -0.3713212896560702
Ni 1.1811960785688436 9.22136911663163 0.5415749839075872 -0.7277060126069661 0.3438824767188271 0.14797598579306773
P 5.953622400453169 4.399791847538535 2.32766262412866 -0.749739852478554 -0.5121624641765695 -0.624603233177505
Ni 1.9064071716042796 0.9224313389021523 9.89685696951251 0.28105885652438695 -1.264390630294616 -2.325872627314027
P 1.4863975143348733 3.0127819280649764 9.850936441166526 -1.250344436614195 1.2135352382056455 1.2623998251168322
Ni 1.0040152866558343 8.80091781850374 3.0183668447545537 -0.8412695823584351 1.3963527571579306 1.3151899723346703
P 0.606544954616178 4.177011636987063 6.841888218525982 0.5925032673191667 0.6591580883342391 0.5364017963399085
P 7.953942660443806 7.951025990607569 6.009612340372587 -0.2474869341062125 -0.06397161775595434 -0.3481597639379423
P 8.336937293261531 9.180066495512168 1.7303884472001563 -0.8663437517182435 -0.7952290951596046 -0.8311826304360782
Ni 4.620428259756117 8.01526633381454 0.6981403485806168 0.3504416179935836 0.2494522853626994 0.3064431009254464
Ni 5.915273252574816 8.576003010469597 6.189792609782799 -0.25926310080553416 0.3909933141637008 1.199245818166167
Ni 1.6704329404056013 1.5923729186685722 4.733256458077291 -0.23263727068788967 0.07374643775453106 -0.47106646546720804
Ni 5.748820653182479 6.091248732978214 13.406598953926983 -0.6352234318955124 0.4290687808791836 0.20038406708113876
Ni 7.261017354333786 2.8177054805321506 12.36147334394215 -0.46422990216134885 2.2836353159113703 -0.6894109736815094
Ni 6.965163983405667 1.4898570343929969 5.76906252586299 -2.3805417367221327 -1.1272019649250393 0.29789186892132563
Ni 7.549289223857933 7.613998810477043 8.377082447297717 -0.6409973582648123 -1.3289852263465498 -1.1916777760109218
Ni 3.0906947361825106 4.9921794523849385 7.999283535163031 0.49760050720199456 0.5703041055143082 -1.2636676360856625
Ni 3.8156758079374864 5.176803732933646 12.566552956919637 -1.3997054756802476 1.2844948572436587 -0.540263850398476
Ni 6.697667635932699 5.997565665872317 6.415206103952982 -0.7497555362078377 1.775074195932814 1.038185231274999
Ni 6.717734692440062 8.028791585105608 12.552237352508904 -0.3966813656874136 1.6285498549846082 -0.06112077857072055
Ni 2.2282621480756397 3.8740276063646717 11.62723253552096 -0.5854635868635659 -1.3547880463422668 0.22526283260068947
Ni 6.439878186495161 1.5040171444181372 10.75593124692466 0.22374793861805983 -0.1503344587229153 0.48621591951413684
Ni 2.2911959704095954 2.537824787319198 2.6550979168639883 0.18023973092277992 0.42162877966137063 -0.7449488588478138
Ni 3.2822932619547758 0.1209746319899584 5.738022534192548 1.4163425700162962 -0.9089428173356927 -0.891482198657084
Ni 2.5517824786175325 3.2824772789791443 6.198195747200577 -0.44569327680974213 -0.8667121908012557 0.6212006352538592
Ni 5.550928745176819 1.4255338835250608 13.284848690179313 0.3539627437729646 -0.9974818400183659 -0.3972218115719159
Ni 2.438510799267631 7.751799959175238 1.7391688195178894 1.3769674106527836 -1.5613304197153175 -1.1564510915981436
Ni 3.573325386844447 4.514857692876028 3.314210094746334 0.7664268262159316 -1.0987221123177917 2.0231375713677866
Ni 7.448549103867513 4.867213491136432 0.8183917936648077 0.13147541703488325 0.6064533017413556 -0.813336860503909
Ni 8.652839318994577 6.47800651394427 10.09603791677387 -0.5666994188821853 1.4578795129178181 -0.0005353036781797233
Ni 5.182811888779271 0.5317457145509549 4.189955394481129 0.25559593636659206 0.6529846125336755 1.3806258333409769
Ni 4.833611982486782 6.9021105500058715 7.6115587447339195 -0.783177049091077 0.2286931984384771 1.4210901120036106
Ni 0.024397897175869904 4.21585763083121 12.746059724020661 0.22652601558382923 1.2856549389900311 0.6928045727440907
Ni 0.670236927090531 8.864688918298572 5.585744766187299 -0.48861553009456493 -0.529610484449688 -0.9623047778966007
P 4.834127230155013 2.623503113865074 5.084351739720772 -0.09147419405159729 -0.4692219560593016 0.22875027692865765
Ni -0.08391912379291558 2.0603650150420108 11.291650809116849 1.4245215062826628 -0.8399207816400244 -1.068528876563863
P 1.732097045271416 5.591283678620785 0.24720755045124074 0.08762396706757168 0.07686338611695795 0.3004496023461729
Ni 5.389048968840033 4.24684609773483 11.06378620818208 2.060840999455831 1.6453859527053407 -0.5140352557192502
P 2.2430203134299767 7.63148042779203 4.553492987227272 0.8261280987313063 0.0233813550384178 -0.16302413837544183
P 3.3469844468714487 9.274366019649698 8.131226501890461 1.143470877288392 -0.978614827910534 0.6721059067441586
P 5.633221158474318 4.052367705531201 8.461287717563525 -0.3345522004568367 -0.05880755705651162 0.24653922548096252
Ni 3.6773134073149683 5.57808045712236 1.466434427446279 -0.06446809777639864 0.47590579583738046 -1.9208212923953631
