# total energy = -340856.774864122 ev
CRYSTAL
PRIMVEC
9.36045108881451 0.00000000000000 0.00000000000000
0.00000000000000 9.36045108881451 0.00000000000000
0.00000000000000 0.00000000000000 13.69996633737140
PRIMCOORD
 96 1
Ni 1.428432913788873 8.906263257904559 8.21908914413533 -0.12862894872502365 0.3847205937811116 -0.37641567345984206
Ni 6.788508006827165 1.7305976346005123 11.512602229012831 -1.0648051478553724 -0.1437110398691267 -0.14872829057806
Ni 1.2884941703752857 0.6426071341611506 0.7879524741095665 -0.005615803524880651 -5.211514007828677 -1.905790366204169
Ni 8.669191113795131 2.5756685171504836 5.34341161805335 0.10400729352160153 -1.2987202568144214 0.23695466711632093
Ni 4.509865322853935 3.7569293601313842 12.680867021735846 0.614995791994728 -1.13544106500538 2.098889983808753
Ni 3.2461482664462586 7.091449645077153 8.271204391481783 0.018957257828793157 -0.8512045820839599 -0.6465797374485961
Ni 3.8722220358922645 9.396488801052142 9.08207780211288 0.33053228066416623 -1.8169831774617737 2.0733501876664353
Ni 2.2409294266345445 8.798121966756922 12.480120916117352 -0.1205050340663086 -1.015779095665657 0.2612330800477114
Ni 6.377799495472116 2.8856117727966843 7.339647621321791 1.5354795200904847 -0.021976761381407313 -0.0005211626107926509
Ni 0.21441142812748964 4.329948092944065 0.3221726849619098 0.7887231757202868 -0.6139758353706457 0.8364438788350175
Ni 3.8738975566328016 2.8337829552528024 1.5638926813681189 -0.14336085561855955 -1.3152527072518059 -0.7787683785004201
Ni 0.06700398080957459 5.101988736289166 11.913847324341717 1.303329987672291 0.948852766156753 -0.7016409400887981
Ni 2.165643318723141 3.464845845116162 10.63279003233714 -0.9654592643651826 -2.320965676930712 2.2441084614613414
Ni 0.11592357016262406 0.9830252103378941 10.591718245156528 3.8706073474541918 2.0460949514949083 -2.5953275810508982
Ni 0.33906829913324926 7.7770371623909575 11.59447341424808 -0.7452828451484649 0.5503184064210006 0.6987847015869255
Ni 7.656493273582918 6.904278065592331 11.007498248898298 0.09922298475908072 -0.5081610563266602 0.2925894828718058
Ni 2.9950260852890866 6.271764305813981 4.08015135165762 -1.6939075544548117 0.9817497739950899 0.39878709917650673
Ni 4.582989166569449 9.255398722157627 11.666179149627329 1.234238532191268 -0.8896731704728033 -0.6197235364877004
Ni 7.77099031100332 0.3910197385860754 7.495004899728746 1.3081317799363086 -0.45320449758512266 1.2857241016650698
Ni 2.20859842865792 0.9911407214107757 6.365292060759793 1.2344413922306934 -0.8999167025776824 -0.5803578902058845
Ni 0.3257090633740606 0.41282490934072097 4.8912849828283065 -1.8951956214074588 -0.20511746800106612 0.4822777608019952
Ni 6.107422866475363 7.572698515653927 12.414512578561487 -1.066609548053963 -0.845928164176369 1.0072836566001362
Ni 8.567751905609644 5.571434078073663 1.9248176337368685 2.4359029871012563 -1.1831473699424075 2.4037631691439185
Ni 4.745720608324983 8.359472508974479 7.0997607895772825 0.7629329541300602 0.8263661828840413 0.2264473398270939
P 6.217576654601857 5.347728658084277 13.292872033231976 -2.377481866849886 -0.7987584484691017 -0.8006158133928147
P 3.381959050940422 7.351904195945585 0.29199459073011014 0.6473281855788465 -0.40602706856837173 0.24832537084710782
P 7.873627656925058 3.5140724572641258 2.132892972538829 0.5798657810608143 -0.9817184065365221 -0.08521381496418227
P 5.024194027492489 6.133641489906898 7.144450391094305 0.8116563874776924 -0.41676476670085 -0.3518320705832069
P 0.8761522603094907 2.0832994307091393 3.4809289721351067 -1.033184435626298 -2.961761717817996 2.362207457189319
P 4.044641544499507 0.9336450867924736 2.7715443800801416 0.2374634884319394 -0.46765512579281393 0.8088775391809747
P 5.753869269319871 3.3873319498514185 9.895718162078627 0.3253561357798655 -0.27721120064352256 -0.23687419158737266
P -0.14147572947837056 8.077460839304608 6.9100983940642084 0.40922732067322426 -0.015355142299831618 -0.7836223641586118
Ni 2.3687651068217925 4.583185736041803 1.7114957621132811 -0.5085606057579242 1.3448080523114194 -0.9552126469365098
Ni 0.3268182768251984 1.5659098585725089 7.3695402217961234 0.17734518298380425 0.14883987645525978 -0.6503705719495961
Ni 7.008628374058865 5.7123182270447606 9.156304306963786 -0.29067966744360263 -1.7648265500628768 -1.4951103722448187
Ni 8.165851578706247 2.4058137721349016 8.668009824870797 0.07521350921836079 0.6354046946683831 2.304040104819967
Ni 5.826646776346001 4.235697711176078 1.660134967122622 1.2099472637440711 1.3857772956349297 -2.630529582873328
Ni 4.273991316480759 1.5501936612352907 7.630949538673131 0.6334547700308639 0.18241668396944066 -1.5758674369892278
Ni 1.2446966198447056 2.4710561160541453 1.5101608841228338 -0.20221674941450338 3.89806570077546 2.2322970706487104
Ni 8.03749171325939 6.156546513661618 13.499562961321505 2.9397607880668724 1.1518596155727197 -2.997798299726579
Ni 5.8520978427902515 7.770541009352227 9.439427062175007 1.0910581680146305 1.0227727533746709 -1.4329526677691515
Ni 4.868857342077874 8.730473986914113 4.866913176391788 0.6356952293256085 -1.3512910889326017 -2.150971277885025
Ni 4.478198916902887 1.5339532786384629 5.111046844784237 0.2638880011720552 1.7242679119142237 -0.5979306089823251
Ni 5.627971202502964 6.20150476012419 4.5050418824204215 -0.13987726794533328 0.7491184168444712 -0.07923522878324418
Ni 4.148364702744722 2.0678734073549188 10.820932290597346 1.196224771951656 0.9372303514264763 -2.858199482253613
Ni 1.8851667630278413 3.148415796882295 8.004123577304824 0.21695559828657474 -0.5738581414141536 0.9318294921258791
Ni 6.196028896251485 1.8644427243711401 1.614828511880452 -0.851464777723882 -0.8439353021160563 -0.014789242494032597
Ni 5.395410795806605 4.266222142097262 5.769576106206024 -1.2974511602940106 -0.04653028235105535 -0.35951118439501956
Ni 9.306731435795093 4.307791905274502 9.775240732473145 -0.34067476841480687 -0.48980929329235 -1.711857711175329
Ni 8.608179693757021 8.207168609704748 2.5333976561885154 -1.269855510063929 -1.413992581726881 0.6731310055745633
Ni 8.328423892793685 0.8404243546415763 1.7007546445168202 1.099258958657868 2.5257296182471016 -0.9860792546083791
Ni 2.196158389193261 7.892854023411447 10.174033389623142 0.6337882421108826 1.5904504770097254 -0.17911898705477536
Ni 8.723416206811514 0.4850669985659641 12.544210052465456 -0.35375294175500366 0.09978502791013782 3.266648015779283
Ni 6.766782399906567 6.5154542888259765 1.4853088865467083 -4.100116871146377 1.1555494057194808 1.7888470813471902
Ni 2.524335803513018 6.182063103263318 11.523890932996563 0.47497891314773677 -1.793751717737659 -0.13240898459274614
Ni 2.7055822174740407 5.486151008425423 6.277023007221992 1.5495665943111698 -0.33721740599382566 1.4265400793745882
P 6.324482366208986 1.0362300141882506 6.350592408408175 -2.81978000193515 -0.6800673276830804 -2.689472894176755
P 6.712276493358251 7.883137875206543 3.5191514380116984 -1.2061348319765164 0.25380696278696935 0.24788828330968923
P 7.762210207904863 9.338753538886591 10.666698266318125 -2.9451557338301986 -2.6216579914153106 -1.1207898907511085
P 5.18917197750349 3.4660907851077343 3.4422675011035926 0.41760834564806787 -2.062879627152415 3.374988132348284
P 8.9510717371501 2.8853215988136864 11.697538532783463 0.33641419336623996 0.14913632464975607 -1.0293424361723886
P 0.6393656099575302 6.382563965063924 9.9659168648365 -0.27090222770635924 -0.6033206696496448 -0.14120858516224713
P 8.985022093160874 8.137199237997955 0.16744630095669819 0.3798303555683459 0.2805883446458716 1.1417603223551884
P 2.4724789046159428 4.4198926672224035 13.01006378917652 -1.113188938475399 -0.25496370209923186 0.447872543849248
Ni 7.393389715063246 4.085668401515009 4.430583238383115 -0.8790318887088732 0.9415973701459203 -1.5923811183735348
Ni 0.9379171966582903 4.124186657645237 3.52853622624892 -2.790829123228755 2.8033550236099076 -0.1884459208826561
Ni 6.73850447724085 8.684813706621705 0.847714273930573 -0.1920878885106176 0.9261095589229663 -0.4274369017027155
Ni 8.410402723216173 7.9904273653073155 9.03878571593978 0.7760345245090248 -0.521690715381979 -0.04436387082735586
Ni 0.7471502679196115 6.587426797060564 5.409417774779454 2.8942962279761706 1.1593762356647386 1.6390458694199257
Ni 7.169394121090862 7.681803933261203 6.709312038506138 -1.6139344190642786 -1.5818773906287338 -0.27668952381209766
Ni 0.8036087645599721 4.172608271001658 6.109896833691698 -0.5575830584032139 -0.025385272842324023 -0.022555002482380508
Ni 4.589607005472018 7.275859891497962 2.419687832702635 -0.24004436178523822 1.1475347629451205 -0.6152852982106888
Ni 8.157174440569499 6.489741129751922 4.580199752152242 -2.7687343482122446 -0.03495311903641723 -1.0609839743370695
Ni 1.4876564876736733 6.658491341541898 -0.249489718491531 -1.8635479125951906 -0.43441847522687116 2.1880213886597866
Ni 6.17956386282911 1.094320973494252 9.212816158175213 -0.3015500344992032 -0.07577195282499209 0.3985477294721911
Ni 4.499035280972362 5.00334830297195 10.943573856488928 1.0948767704297724 0.8801143231397744 -2.069338495403881
Ni 3.2739207247544937 1.3616180140908005 12.63105350930614 -1.5417352711922092 2.2216190221095737 2.5441022072170183
Ni 2.343697818871185 9.361480714071085 4.144363109914668 2.1856410613530683 -0.04953050262995986 -1.0268484661059412
Ni 1.4089538151237442 8.063438883610056 2.2543017670252232 2.4399617305516625 -0.5054673115445811 -0.8205575466220644
Ni 7.199403727203501 4.149469235970328 11.546139789131663 -1.3118459955631019 1.513410456105587 -1.1027204348439072
Ni 2.7613143431117995 4.886698361806724 9.247710047653285 0.1131190260148826 2.933642076763644 -1.4759795649526386
Ni 0.45088356732368445 6.058214975229528 7.763757490465816 -0.09958293920166075 -0.3663914564546206 0.831380091158865
Ni 4.473331482349371 3.782408507928828 7.974257186093471 -1.1369217633159645 2.5936813036967266 1.0625209798068862
Ni 1.2355608196057986 2.397885470083309 13.006323352931165 -0.044294708152317265 0.8415223217991893 -2.0346607415160376
Ni 7.190810833126332 0.8012761401547103 3.8146599420714042 -0.4890420761090223 -0.5523678327508617 0.9171199538298463
Ni 7.705205060922337 2.844491311270538 13.450256785339494 -0.2963443219285477 -0.3845640135985893 2.1299921045301957
Ni 3.6532904459457503 9.30329615025444 0.793978732504862 0.9983835258970291 1.2034997083465144 1.309052234868049
Ni 2.7759072863212837 3.088293619695307 4.014556118733245 2.319429185681528 -0.8997488095412504 0.8065218944646046
P 5.299344486532114 1.7251966543363224 13.217138495759691 0.8581005378728449 -0.3089810368559518 0.5472929893311155
P 4.151846790540699 5.180803734251868 2.7529535882210294 0.004193983476689551 1.1448693002978152 -0.8091163946646581
P 3.1411052846009557 2.9778590180368787 6.284983134807204 0.041156933854283956 1.1666059206439585 -0.6677095774486759
P 0.6409830959014678 6.349961514006431 3.3363661658956794 0.8615555863009807 0.418698236278137 -0.7723321359567731
P 8.2720926982878 4.134717165092748 7.36467746746814 1.0468909865791132 0.18961191616629927 0.15654752951216264
P 2.2796536126881906 1.2476077201257507 9.608813784637366 -0.8722349203916978 1.3031875485571556 0.01870348994677424
P 4.433577646678635 7.270234260408224 10.7492125145415 -1.9592027203870388 -0.7037039932654138 1.13609721053214
P 2.8843013096476606 7.896064658126554 5.82899344142786 0.291368208870195 -0.023265912506476062 -0.07866212988859356
