# total energy = -340871.6340781129 ev
CRYSTAL
PRIMVEC
9.31499805816341 0.00000000000000 0.00000000000000

0.00000000000000 9.31499805816341 0.00000000000000

0.00000000000000 0.00000000000000 13.63344123255525

PRIMCOORD
 96 1
Ni 8.998120318168295 6.735674994013857 9.252062065391097 1.074331085067937 0.4649477541639799 0.8918470381956706
Ni -0.14926632112650567 -0.09181700297122831 9.40093901960466 0.23378398269782316 0.795179729978908 -0.27784780578625695
Ni 7.513570470089224 0.9216324144381509 11.144642356241274 0.024063468707106947 -1.9372285301087926 -1.4451098719569757
Ni 5.505741299006802 1.8058893312328483 12.08702672303963 -0.39502634658249386 0.4628098818853707 -0.05273409716892209
Ni 2.5712561351094196 7.101987287112454 1.5356575156522374 -1.417429375322572 -0.33646355854693666 0.07656745214309395
Ni 4.714851400836775 5.62738585680908 8.909589646462297 0.9865842192692558 0.4050461927123411 -0.6287756193876398
Ni 3.5150051491026626 3.7615824589720317 4.219877562004784 1.0322035597702675 0.13782192807820134 -0.34565885189295953
Ni 6.625208433712364 5.0958441306530675 13.301480754507683 -0.7936905470278911 -0.1820580150784413 1.2561209340866561
Ni 7.336855644599752 2.207114236525559 6.309569729283986 -0.2970410908852562 0.5176903359733342 0.6100222500395365
Ni 7.405805259183753 2.478199305915396 9.104656880848472 0.19699046801855752 -0.48836227643317826 -1.2167102934995175
Ni 5.87934723547466 5.3701521893222965 3.968898915619482 -0.15815009811259215 -0.11628122579294813 -0.7497213405357926
Ni 6.134615438400888 0.38469544148842666 2.1366332362839513 0.936536153572929 -1.1563251075432408 0.4680179084488714
Ni 0.44153183278074437 2.9111976691040833 8.262274605691294 0.08598360325067128 -0.001032812139888544 2.065001301481108
Ni 7.000034634907391 3.4680482446014538 11.105487693995611 -1.6166983549626608 0.5640452690887898 1.2482656997082953
Ni 2.473988926856767 1.8061780961682852 2.520141947037711 0.09388408904467058 -0.558838785187186 -0.2514585171594508
Ni 3.7292035262114283 1.8774657752295327 -0.004505664492607527 -1.1472745673051983 -1.7009616330881157 1.4953178602699344
Ni 8.226419315707947 0.8219889502167906 0.47368068509278977 0.3252499492193044 -1.6312328011334103 1.0997981189907897
Ni 3.8683789100941017 -0.021950792592163818 7.455078803666998 -0.117050756969121 -0.11034609125543578 -0.4544311709033722
Ni 8.793767893858137 8.243680006848741 2.107743701743176 0.7715417788449938 1.3935358565344258 -0.7180466351403311
Ni 2.7598941579330605 2.167031800487332 8.447893637689932 -0.38278583865224397 -0.9710257027093663 0.13412879549733028
Ni 6.18837229138174 1.2709383158390968 4.492014294659487 -1.209935179559213 0.9129228850293633 -1.0428697812348622
Ni 7.586087728875557 6.391634860935573 2.0496246352376435 -1.3844999715844026 -1.4865820230588336 -0.15919062356196453
Ni 4.980403361463724 2.1955450091122475 9.949112674542047 0.056193002251799996 -0.7716248254771033 -1.0178575754612407
Ni 5.7886005257641315 -0.046710057056399516 13.395660040950744 -0.574032719318805 1.7682396895094836 0.9986043836585834
P 0.23398715868431988 3.469501384276556 6.261375793059358 -1.6878659762464223 1.7130537883659596 -1.312429635980714
P 5.366519340134542 5.2544319701954345 11.393098501190567 -0.5443434197844883 -0.8511583022270568 0.7375361113235105
P 2.00081497765068 9.460125584871516 8.983319717977466 0.8634574313093839 -0.6299526704148765 -0.040933762099884335
P 8.081915753016567 2.197417323693629 12.603775301003145 0.4510871941318038 2.431735228876812 0.5529411887558283
P 7.040452410870641 7.641418816504437 0.3803267074652037 -0.007453885174883936 1.0644063697550572 2.5518342857539538
P 5.2322157001626275 7.765438698775631 8.299329667406392 -2.4447370404531186 -0.6509506128227821 -2.122489111284932
P 6.421377649285575 4.122333698313988 2.043161889682607 0.9121011604590162 0.10398441070346609 -0.2735484070799547
P 5.893133432392293 3.4445744498498083 5.085423442482962 -1.9107721356894767 -1.3813061472374535 -0.9227288153761916
Ni 0.06558596883605611 1.360194625882854 6.552435943983095 1.3798827845273656 -2.2551647192755033 -0.08129956751144063
Ni 3.944268198126505 6.761971233134451 10.92016767343012 -1.1376018201021247 0.044074621721711185 -1.171487674216292
Ni 4.754542606962475 2.279845740263991 2.5447773220296463 0.9519697145191799 0.9428312425530215 0.21203964904219613
Ni 7.292385844542468 6.15309639426885 10.883453540638795 0.20811228896333192 -1.216511033004518 -0.11778172159787458
Ni 4.882819443281884 7.385349523757319 1.1628209980123507 1.4371296819649766 1.6585199189841373 0.3810241187661309
Ni 7.590428517905028 4.583053495304619 5.42898664766788 2.7436871754356296 0.9885441712091041 0.656024942021896
Ni 0.941243279553484 6.410488416720228 6.314177858753685 0.5574699298641174 -0.5418684758814346 1.0050915340448239
Ni 6.9689691168531285 6.478888446427106 7.676527043654814 -1.1477800461867071 0.7590063653821444 0.20235250366141924
Ni 6.455023421762934 8.145583763781447 9.839063426147248 1.359401376744562 1.3022439536969639 1.2454523986292165
Ni 5.9997435835560164 4.039011041943564 7.163718709810324 0.03931576688048713 0.7838504210090178 1.1082130825273624
Ni 2.3798515579043347 4.684754642565915 8.085189043284712 -0.3996576747069181 0.725540372414215 -0.5690211250368264
Ni 6.284111839975951 2.303012140084365 0.6102124725665278 -0.0023733853281830094 1.2125119391474537 -0.378131113489052
Ni 4.6773864792133155 1.9627538961605118 6.432489510301146 -0.32981982797817394 0.9230242351294232 -0.36264870158273677
Ni 8.910261257812136 3.2070885779477436 0.812252914393608 0.20418904264952575 -0.509176127854736 0.9856989884508249
Ni 2.8622100950569 1.284379857833789 11.331571076947085 2.288083581490711 0.29228789247098697 -1.6316256656964545
Ni 8.830990625535746 5.102047919266003 7.675832144810182 0.3736877330057177 -1.5746410207812946 -0.401464903118986
Ni 1.7063678934842048 3.960643964465153 2.5423228200784327 -0.10315420149268685 0.41169635103900704 -0.8300516021554285
Ni 2.853863856922981 7.268809584813732 8.146621454549436 -0.3545070463122088 -0.2946057419708862 0.8470931310187475
Ni 3.410239367526568 4.030841788770074 10.25604185591773 -0.39475560941961046 0.0055870071694742495 1.1718278311645303
Ni 2.695611357305637 0.7977979006255114 4.888433592526652 0.7469923716404039 0.4008092718128581 0.39316846743814865
Ni 2.7536903693201253 7.630361913976578 5.636759539213279 0.8378083632827119 1.6340952102828694 -0.7623855662670225
Ni 1.878555629985859 8.811326664932285 3.0399029953276897 -0.15484828743286883 -0.8300102073945318 0.5947408984004339
Ni 1.8378956640767588 5.034122954452908 11.818066404674733 -0.38717445463824285 0.8723264516642396 0.30286181133209134
Ni 1.8241001521612084 8.03102791939425 10.756962389420137 -1.3359248908891768 0.6331956028322063 -0.9773616722297233
P 0.43985513315562685 1.033266143978685 2.267827529951065 -1.5170105147520196 0.4679045227994587 0.13634508642235874
P 2.785286842255674 3.8909770950415195 0.644113475986821 0.2404169146333085 -0.19451321012265857 0.47843961800282764
P 4.757066971398068 9.213790464947998 5.205533820128258 -1.1713578335066472 -0.9199414824390414 0.9495202245374227
P 0.8566957009569319 9.026521746818203 5.379428995748156 0.09952071850515765 -1.2147156316669918 -0.6911837493112161
P 8.472586765668954 8.050459005049778 11.104750877660353 0.24224651164287958 0.48093487362085563 -0.006486379055292055
P 7.090371484709556 4.696230720000053 9.123403314157077 0.7809371040169647 0.2742050668273471 -0.25877947630089626
P 7.609095773731337 0.6383940672655867 7.916802757433117 0.5783809689851717 -0.09800813851537314 0.34655282446213864
P 0.7665721646070724 6.076694781350995 2.6958628622494047 -0.03094759742144993 0.49329313807589237 -1.2674273602384107
Ni 8.720896665150944 4.49453307009633 12.587060468740308 0.6573709145268292 -0.8586813500769792 -0.35682695269463705
Ni 8.889423607471091 8.033952828740288 7.12315934587873 0.6450553303842697 0.43610769000383603 0.5800755830787752
Ni 0.4614957363171439 2.412873225521233 4.144879719273068 0.38913980589472985 0.20293177320365696 -0.14248642343340623
Ni 8.505142683389986 6.736261838882649 12.928688017358008 2.0287806285861767 0.5355296781476003 -0.4118974113062197
Ni 1.512448266841444 0.19528054783848142 0.5548813849376488 0.8993688004940124 -0.8165386552706584 1.223053462108726
Ni 4.0490619246963515 6.908924640278086 3.2381736574976308 -0.44780543805673845 0.6170387905666856 2.8748419759063006
Ni 8.498398624897847 4.461669757444026 3.143776400103305 0.05800280176702914 -0.23880611850276293 -0.4913319005844635
Ni 1.0764132143317098 5.253211705468266 0.5814729094922213 -0.63700212106249 0.5594890171766751 -0.32036716720570635
Ni 8.315088780882913 0.5256090039824718 4.08577885198705 1.2187926299498428 -1.6712533073904057 0.1981397511316523
Ni 7.595272316822035 2.222651653051648 2.6546626264611 0.09514264404212001 0.5315010166041814 -0.02851096295549928
Ni 3.230599632691058 8.389301369290198 12.540748162094978 1.1153910883330402 1.4167683446998054 1.0079634562759803
Ni 0.9536415417814365 0.6918901003047535 12.153544191667416 -3.15862620178165 -0.8324067326511665 -1.5184503325223395
Ni 7.137561264158698 8.916111076504214 6.040855326864108 -1.9357398613784083 0.7753326133459938 -0.3934222353201676
Ni 6.114383262924471 7.909923631471177 3.847424822279091 0.5594111127508882 0.392689213808885 0.5920173288216837
Ni 4.357984515626341 3.8943398092896717 12.87570803520346 1.2192975946107194 0.2584963978428387 -1.435610674217289
Ni 2.1854289213740383 2.8707892081387514 5.9017805449589416 0.6811019395951818 0.3196745120140559 1.145432371890137
Ni 5.6935409720178844 7.279447312435311 12.43034401227953 -0.08417200396322923 -1.3011322086900237 -1.719819389224567
Ni 3.72551478703617 6.101817330734006 13.291377707766557 -1.1620884923895791 -0.6800069067587902 -0.23670038501366977
Ni 4.930223467683124 6.44356597432463 6.034269623336563 0.13576967353486294 0.47754256010985496 0.6229692971185077
Ni 1.4608152333857407 2.8989857068344778 12.694260259272198 0.15578931118989942 0.07631831224676533 1.242606701650305
Ni 1.128167342760338 4.968098249214946 4.539022431649241 -0.13873261281792879 -0.8498976903470781 0.8460446351495752
Ni 9.018976598505175 4.360294635109836 10.34902230212883 1.539761178184974 0.22148459650517982 -1.7612362616084571
Ni 4.47340665481985 5.103873658857797 1.951013272785522 -0.580632998244142 -1.3103704394588398 -1.097255040853962
Ni 9.14264251085551 7.203977199309187 4.267566625342295 -0.32835661316908615 0.5827114780397255 0.737503201203046
P 4.342046554189808 3.540546873391953 8.362138835363295 0.020472408921738933 -0.757557805861076 -0.9314402271072604
P 1.2335106542073062 2.7005110462101474 10.564757653893954 0.6452779879180371 0.2183501646412562 -0.9287467394354973
P 7.315207589439901 6.8294211330537635 5.5396488229256375 -0.3132197575276477 -0.9016766226915826 -0.7808422303103133
P 4.066080425891294 9.644283093696927 1.6060462974144636 -1.0829404240035025 -0.610852973470948 -0.32500955107372415
P 3.016466460567713 5.505629519031794 5.494426371036634 0.2031325763605534 -0.44336051491150735 0.36155778251140314
P 4.997468437648254 9.112052057695033 11.179734747895193 -0.1688533434627092 0.7693756244316106 0.7201289715906565
P 1.9589999519998318 6.035773995500209 9.944272601624208 -0.08535651118963365 -0.5682667633693052 -1.6256357666616066
P 1.5296437529968159 7.30839832596234 13.268351032914943 -0.7010554998989733 0.01845126472665209 -0.30951634053413146
