# total energy = -340854.86018815846 ev
CRYSTAL
PRIMVEC
9.43630542021505 0.00000000000000 0.00000000000000

0.00000000000000 9.43630542021505 0.00000000000000

0.00000000000000 0.00000000000000 13.81098681885485

PRIMCOORD
 96 1
Ni 2.471396704230661 3.025694722211414 4.242956420753758 -0.5040485768201836 0.2284782542141936 1.2225994052904428
Ni 4.675132604593085 5.003119709153358 11.17933071470463 0.6068855041827678 0.5169611711167936 0.21587933450326047
Ni 6.380565523468819 6.6684200209833815 10.405832983084643 0.9443260819309931 -1.64703300139046 1.0454280288803415
Ni 3.297922697913679 6.690906736852164 9.894908943069 0.26672161396610844 3.7428680004229733 0.22199521759301122
Ni 4.813223498434359 1.3166382620458712 10.582917521904756 1.3903065509638508 0.3848725459779436 1.1777187427276685
Ni 2.775604319076569 4.02831161175148 12.943698079219674 0.031678819160519636 0.1100864098361459 1.3994763903885767
Ni 0.4360063802183195 5.945570715193905 1.576980267413131 3.8847784967482517 0.42687640121355513 1.9109755099495347
Ni 4.284818702587026 8.705095569796951 3.114709278708853 0.440222483503158 0.01840112821500702 1.4580625754629017
Ni 9.16595529128896 0.8092868072706482 10.83297867249273 -0.8573801147670524 0.554238310300697 0.7299708973817428
Ni 6.883813129007226 7.485396473558886 2.482289975233146 -0.8931361893207392 0.22807613367976848 -0.6881567895594343
Ni 5.8868485864270435 0.16694428499191527 13.024465304760623 -0.24068842312714028 0.3620802306737764 -1.3788232329145995
Ni 4.9008112855489365 3.3922668797248767 4.044409005205343 0.6868051606275462 1.1570879538511942 -0.1671157919463122
Ni 8.579989032244155 5.759458462957232 11.929584938759366 -1.0891264982095565 -0.2530621142011448 -3.6911106653450236
Ni 9.061721861374327 2.6459589186060706 9.143328918099632 -0.46628164248405507 0.7690876608775464 -0.2876869033638658
Ni 7.9324414438835 5.767375523223245 0.9039452180530716 -1.4978218576387108 0.556605524981293 0.23369296564591366
Ni 8.24118792164711 1.3920909603617682 13.131057811035808 1.090293007713832 -0.6658506698630662 -0.4847460198368297
Ni 2.6344843711883454 6.19608575207365 6.814202447390601 -1.0217468832133176 0.7547239359567066 -0.14028067403133904
Ni 2.544782851654714 0.9108290028731624 3.104958744295419 -2.833376509672662 -0.2961147224162448 -1.775496628182213
Ni 7.010184131489279 6.910064930747449 12.872488887461138 -2.797582639902505 2.5827209480304814 -0.12216828070134444
Ni 4.490709451030567 0.8154902344683559 0.8748351593944034 0.053873610090004 1.6013462979866226 2.7481218141682153
Ni 6.344981215646253 8.928301938726944 10.81369841321321 1.4213842462052617 0.20892552889324664 0.9370254345045218
Ni 4.338426353804211 7.932639606297786 1.0768607971288162 0.5482702656427203 -1.9241529278717573 -1.6983923296990429
Ni 8.463243061313156 8.086772219390815 7.622960821556485 -0.8000182890181318 -0.9890270243827936 1.2136931039397485
Ni 2.7746512522269065 6.587758482063386 12.31005016877539 1.4438600587102746 1.2021259679274394 -0.7185431151607754
P 4.96505365299949 2.3354289791138823 6.175983590590112 -0.7344325326975223 0.6921545978649176 1.1177991835539007
P 5.8123206460444825 1.3537229424337498 3.118603641964852 2.059320963266879 0.07962937889786931 -2.2598420701465147
P 7.915088078175279 7.4270989785369235 4.4073340306653925 -0.3712523840913477 3.6841452897707843 2.1095855158493864
P 4.715255775333355 8.04132697238114 12.002023681117024 0.2974540100529587 -1.441203594924034 0.7553559131137507
P 2.6466383325979095 5.790201946087946 0.3344868317488665 -0.9254367012256578 0.3579793211315254 3.145875844094517
P 0.956756445090934 2.25683399108573 7.659780341761438 2.265779775787188 0.6378143325511403 0.4167236290502694
P 6.710524815866514 2.1124302089036178 12.210500920882273 -2.5303061818741903 1.9451616689129407 -3.4231497796551755
P 8.971378673070625 8.180833312038747 10.03572598555253 -2.153626970340317 0.871277441574435 -1.5548856925312382
Ni 1.374709285737221 4.8796079072202945 8.545299286177508 0.18771135670947672 -0.9299392170817017 -0.9234847197056095
Ni 5.667945172778697 8.068003407866263 8.861046558948694 -0.29797285867090617 0.3974771221158316 -1.573885887782825
Ni 0.5256041003920865 1.8769566428987536 5.741088807152885 -1.3205741194647191 0.5855291499941786 -2.4710394257930735
Ni 1.1376032388908548 4.356213789562774 6.26183226661169 -1.443842832319094 -0.5117235768669381 -1.40265401678561
Ni 0.9844991830910262 7.171988460906824 10.942887096500305 1.2710497874823465 -1.2395139216575943 0.4116248743711233
Ni 5.6832980417331695 4.521207590219785 6.186493747591644 -0.3012129628747586 -0.8142339183968815 0.8848649504508824
Ni 1.7218803992615035 7.619203284729398 4.60320153546822 0.8370941108245068 -0.1608196745249553 1.5360307646082643
Ni 5.805639741791399 4.674198410354307 1.7392035687923093 -0.7731716011389329 0.09539744036540346 1.475426520662646
Ni 8.39562249651429 4.749264220147073 7.700163954531911 -0.010884765233303836 -0.2990208403194463 0.14373135158410083
Ni 2.690290681573565 1.516527520228168 9.572228816689424 -1.3050348861785397 -0.8502494172595421 -1.4757206548642974
Ni 6.788204482266773 2.785465258263677 7.377718792157847 1.30704317485782 -0.5788064865583644 0.3991573380317319
Ni 3.767784654797553 5.547000045925914 4.813474504159124 -0.36465210516601065 0.1436444482972494 -0.2845905238267293
Ni 3.1446204796995643 4.577957531149225 2.5739400918405932 1.012671403274611 -0.4069482948310605 -1.3044543310847212
Ni 8.636965444504208 8.406955499350383 12.170808045670167 -5.114145045559199 -1.9430369092604536 -0.3636594022354382
Ni 9.003764073348284 3.1745713131731335 11.385529086705587 0.33678880309683934 0.4576496778406699 1.7211635619572874
Ni 0.8721458123433741 2.391933576101825 13.806968102664108 0.9888691586486904 -0.06686667991556226 -1.0952966315760104
Ni 6.779211683180348 1.216698351107444 5.414197257654452 -0.3212014901815436 0.8561819806938932 -0.4349278107631219
Ni 4.680313136280858 0.3981667953950645 7.584635267002956 0.42445442203562384 0.42242685008263375 0.0474471377383699
Ni 2.427263103677453 6.7851188103871705 2.6083844939657417 0.6889895698733747 0.47751273531318417 -0.7137122694310354
Ni 0.51955071045091 5.069372009663103 13.290299239895248 3.358658027729693 -0.7174144008729709 -0.20885765176978868
Ni 2.0773460252694873 8.392131063500674 0.5937823508425852 1.3096531016768413 -0.6429647664038283 1.8581948758133933
Ni 3.2151946081018394 0.5830608205991482 12.861094548639672 -0.5724229516295237 0.9001702133493852 -0.34628234440957134
Ni 5.5501800808599375 5.077496668648844 8.675343842368212 -0.3964823623027301 0.21279966713667223 -0.06363968833783233
Ni 8.499063276771777 5.756136883441575 3.556425567350252 0.6009177166351071 -1.945314649551037 -1.5990721572404656
P 8.880346634469642 3.8343200444705636 0.7151955184453015 -0.4530700288897875 -1.8133535511289867 1.5302671226516098
P 7.140697672060461 6.419310993614527 8.045259080858909 -1.6898920055375153 0.7072210052797369 0.10394507282509839
P 9.446685378194655 7.892280527921462 0.511359053696529 -0.552978469751667 -2.3596044723488334 0.2496949975011248
P 6.930683258138674 4.18240647962274 3.6452306378668737 -0.9369557576088509 0.2864131788577648 -0.2764496398871497
P 1.1406417292432458 5.097945142542108 3.906313393211347 1.179779224801123 -0.029403135752465493 0.157439959419445
P 9.11224384071191 4.935348163467419 9.792542014370838 -1.353161052261805 -0.8442960278895847 1.7019967592208496
P 7.815119858320525 0.6261337804206519 7.256623628048533 -0.5814295260035084 0.9241719755806214 -0.3400651598552659
P 0.14221833384169705 1.2058843450706733 3.53510140431195 4.939870788191235 -2.7345836704724644 -0.3232979676992561
Ni 4.298699507892515 1.2347028218911773 4.325131543066684 -1.2859657853622304 -1.0407954152043366 4.25579511067971
Ni 4.880655337124381 2.720496295294073 8.712826734845754 -1.0654605220511846 0.5340728910964156 -0.21531523446967435
Ni 8.287567362895565 4.1370933408892565 5.272481878892824 0.0156454198467408 -1.0510428039639577 1.0793056554643927
Ni 1.0536578656769704 3.3399614386587166 2.317677401316 -0.7610185107161668 -0.6900475788242438 -0.06740249781437424
Ni 0.08671681612226093 8.12038433937596 2.9046165434518962 -0.2729300567696654 0.6809852115116594 -0.07953733340469527
Ni 7.941840004103939 2.1789184170494167 3.5159457042642672 -2.231976196974182 1.8185543786036356 1.111011728318422
Ni 7.241618958764878 1.1735744352365525 9.399370799076877 -1.154032197744006 -0.16991957994369444 -1.191935657657999
Ni 0.999663325936655 9.027524690451765 12.66488167505766 4.321730022809621 3.113119475599103 -0.92546112670569
Ni 3.256402953967963 3.9401387736994864 6.667917065903311 1.9322277344600916 -1.235196525229163 0.613214274614273
Ni 1.52649225877514 4.747084433589923 10.979983100454715 -0.31554532033703075 0.7260185976022142 0.056368608597715815
Ni 4.78831165206693 6.97288241607623 6.996549613755833 0.18513485423155213 -1.4801712344364832 -0.37188333280712726
Ni 2.5289581674281307 0.8230138007974285 6.708493179304807 0.09632200906220185 0.006847876159768851 0.15972567012982813
Ni 6.29364771404064 8.505451655556152 6.173428239076363 0.9690870909257567 -0.6157421832424492 -0.14918620405108501
Ni 3.3275338243913284 8.957799829539288 10.781256395102897 -1.3961743225985375 -0.047283872687628244 -1.0218924076522466
Ni 7.083060718419453 2.2813966941517982 1.4810347445683905 -0.7668122345798084 -0.004587619370682422 -1.8250333014597602
Ni 0.5578328579994045 0.2327351501655352 8.819875958304339 1.077154927669977 0.25660946523277095 -2.0704432984322856
Ni 1.204959587137337 7.236362936633568 8.376212016219668 0.159555463100551 1.0386310605631661 0.02354282031694655
Ni 5.201480285854018 3.3158139330321057 13.154743881326295 -0.341838706815921 0.12621236886373102 0.2168833502877426
Ni 9.245220257003508 6.3667224633851 5.931570068809301 0.15248338674511805 0.8246435437659798 0.12095806244332719
Ni 3.261243778659816 3.2340955279025825 10.935940088433751 0.5562368287879647 -1.3403322759282528 -0.8295435521707585
Ni 6.807199765121938 3.490442201545611 10.266535185777311 -0.11088833691215096 -0.2581035332797942 0.16676509347511279
Ni 9.181732793988331 0.4257217509168567 0.9788524979144089 0.6089544708966544 0.2962846723352059 3.3047525359604895
Ni 6.153556323445616 6.149338294912949 4.767773533271964 0.5872998687413563 1.0201584556802752 -1.3327038128487176
Ni 0.5517700317527857 9.003547038323113 6.208922901997228 0.0033920564006844805 -0.5013957125783688 -0.3951731565730033
P 1.4755267730817736 1.6680934582409166 11.647136500632646 1.3151339222857543 0.5451715721127385 -0.03610265925982814
P 4.676944375237989 6.495792249223624 3.0031712047514074 0.14160170683560774 -0.3766123628516804 -0.5704771407570627
P 2.9843920132908686 8.645297702209678 8.55876489404354 -0.15200876110154465 0.5000404841020549 0.10257493195044914
P 6.983639804280347 9.182723606059763 0.8571468048429841 0.9414438752871914 -0.3445807883374324 1.9191822141300432
P 3.3282415472994944 4.869265716455635 9.331075538438895 1.302058577159035 -4.881384361919567 -0.9395150336955949
P 6.416951917253974 5.099124680722385 13.578617060007023 -2.494875866091039 -1.813212397565432 -1.786659072556936
P 2.978560376527584 2.534393479362843 0.784424029691518 0.2071290991144562 -0.2779689047451535 0.6738437153708717
P 3.8743960336836216 8.42886660058719 5.683663226753783 -0.5932290897415977 0.6052443690349188 -0.6851367717861878
