# total energy = -381177.0791184737 ev
CRYSTAL
PRIMVEC
9.17338837215590 0.00000000000000 0.00000000000000
0.00000000000000 9.17338837215590 0.00000000000000
0.00000000000000 0.00000000000000 13.42618114295957
PRIMCOORD
 96 1
Ni 8.923386151801427 7.004579304020394 0.4532681342876315 -0.03369996335560648 1.3152259677789286 0.6443433919189095
Ni 8.688446498701714 6.121035216403669 5.667379047782115 0.11122438009533103 -0.6046023645755458 1.3466011396561002
Ni 4.205714256255993 7.9093873062005935 9.977398400738938 0.6188473045303342 0.057314260340436775 -0.29303865459408246
Ni 8.183121219304159 3.092789588975908 9.894746170274356 1.3263621869014062 -1.0157125040937798 2.070301630648099
Ni 3.045106315506996 6.474054726389076 7.300204591461439 -1.3915856747865905 1.419059454726827 2.0418647154636447
Ni 0.5236289414892288 9.134988704534669 10.969754470830882 -0.3412560948395736 -0.47540417361061355 0.7094013007605073
Ni 6.001239935866824 3.864436683561892 9.35628936359945 -0.23045183300079666 1.0467549752218812 0.0384323358342693
Ni 2.15771857810507 4.892966176560717 1.901469143499339 -0.8981912352461434 -0.1090757091834444 -0.3807497820588217
Ni 1.8650874846733088 8.721782592542812 3.0740043239875203 -0.556307791235216 1.1834726144923102 1.021489515786873
Ni 4.766455975635405 3.079946845063542 1.6822196541051335 -3.610014729203957 -2.3052701205723265 1.583671506414679
Ni 2.4158210371895854 6.688528549725583 5.012087213042164 -0.6467252618875249 0.2084439612711378 -0.8758735455855496
Ni 5.219914916404021 7.687785759992723 6.996262709998287 -0.8195489028518919 0.7090423747591917 1.4683706422571292
Ni 4.562999391898007 0.07838110077486964 2.516965901549123 -0.36245458329405966 0.10270811509420377 -0.7489029583995555
Ni 7.021852794582526 7.888618754616596 5.469383382224024 0.050057321667707336 -0.0921470517489058 -2.0877105701531655
Ni 2.665685793393169 3.567237242652732 3.6497463682565767 1.2078944949801005 0.7091079378898045 2.5071978779915014
Ni 4.583052419178315 7.813993239097242 4.85595430594413 -0.31392038313909804 -0.11832988079186073 -1.6112512158051606
Ni 6.335655813956318 1.9044871883187449 3.090304518028865 -0.03969294771424777 0.4973261704946854 0.09833364017559193
Ni 4.452606834582714 8.16189399829472 0.3331050008715818 -0.14288725841625072 -0.8666620542896107 1.5644414545404735
Ni 8.522426513468861 5.535103372179002 9.881924525155561 -0.5202827792908588 -1.616200589390636 -0.1867032271599365
Ni 0.5442965857996287 8.01856897623272 7.299278079222046 0.5165654783402717 -0.9689361671701894 -0.3397645978957116
Ni 6.4058689296029225 1.3983821708979391 13.356714193093978 -0.07322527514373842 -1.3005763361865534 0.26630869479840585
Ni 8.691592970960244 4.949951265977585 1.7736654947942825 -0.3848895152588081 -0.16787992380584635 0.5979378080711766
Ni 5.869280742167267 3.7699507819209157 6.989321206913653 0.36333004392047746 0.4386790502754381 -1.5124082400933179
Ni 5.521086434537506 1.5881061920376158 10.282333760177597 -1.5567795671198414 1.3475293078973243 -0.7619417938613845
P 7.289403843831139 2.3088593271765965 5.979806313615936 -0.28356156834158264 -0.02761673327600405 0.030124844409838446
Ni 3.043831214504268 7.056234654713631 2.1856744795857375 0.8575696050700392 0.12787690105034752 0.9505869752390403
P 3.025025768061161 8.489145459958815 8.241298849227176 -0.45313019270376154 1.1421596146761361 -1.3917594813602934
Ni 1.3229402238012997 3.981883576640476 11.238076084714237 0.18178085015765466 0.6461958717466161 -0.44598046903285776
P 0.9454185931088009 2.0490597912179473 10.32661278917088 0.06509518983743627 -0.12443753635149535 -1.3608000568643015
P 8.279423451869885 9.052841010438073 13.126804308913659 1.4060830970718172 1.7418884532094647 -0.30933713464378987
P 6.295182823855348 8.98818696822782 9.488711813418703 0.7412379856551298 -1.032770488017331 -0.5570698662122212
Ni 2.7926821839094482 9.099671158775664 5.918905104644647 -0.3061600224673888 0.23848858726234407 0.5995666019238513
Ni 4.252700352198233 1.0983298061625324 8.136816706128124 0.2961198646225674 0.20413402104187425 -0.38160801629405894
Ni 6.789793585474587 3.158764599131432 11.584499011022944 -0.031079752123940024 -1.1102154576693717 0.5137565481365668
Ni 1.9493083645729012 6.632497492713633 0.16409173896829654 0.3965240141739429 -0.0806976722613836 1.016348595015882
Ni 1.425205158897766 3.771106628873029 8.786375173050056 -0.6738226323249492 1.4946802266859356 -0.003977496590509279
Ni 2.056481062521593 1.5294698926891577 12.119988226515241 1.01547673393389 0.25388589565402087 1.4060031357635012
Ni 6.909662253119503 8.313621844230813 1.164286469541039 -1.4004007019750593 0.6263824365651147 -0.4127343053852182
Ni 7.880124196857417 6.611068457157 3.371582625842095 0.09435254404065686 0.6809016506589177 -0.0450117888239999
Ni 6.141959715592317 4.647587207337953 2.558170928053098 0.7671557339621562 0.17045205540839675 -0.09726123304701959
Ni 5.043070332730745 3.23885745420205 4.515533527736753 1.1672795496722157 2.322533792748781 0.3410401221740255
Ni 1.655915879894907 7.319199009707828 9.345709694632212 -0.5209962604181155 -0.3387657243175521 0.6340733774514693
Ni 6.674961108121019 1.8921673275513828 8.165534916193876 -0.3293156346482457 0.21994759103536315 0.24459984236640456
Ni 8.43953577490305 1.0730020804896454 4.089440639567688 -0.9830409820026875 0.2264352556422358 0.7821722619756465
Ni 4.212539257306564 2.28298119819318 12.230284463251191 1.5177525351243668 -0.4897622421044985 0.6009902217442553
Ni 0.1772005111474184 8.222062253524154 4.776672378417693 0.8686526023570782 -0.6679101234952561 -0.10910167732537339
Ni 6.226437450370156 6.555376815519877 9.686036904276799 -0.3995571445733119 -0.13052488019615585 1.3637573397204126
Ni 7.014642511214584 6.278312962387605 7.44376995630237 1.1554090234868746 -0.644641896995935 -0.2539892540011045
Ni 3.231949892654899 5.468137636064524 9.751381702641766 0.3418394781468694 0.03548379472890663 0.3625839097830723
Ni 3.802075988478848 3.7703727577923223 8.099492022963387 -0.20597415957440657 0.49256860120504203 -0.4938472108071495
Ni 9.065564500299823 4.8865356312160255 12.716030062215493 -1.5903751436870999 -0.35324360621875295 0.5876690791553169
Ni 5.594280901449481 0.8506758365895775 5.52055070864859 0.6982895071180619 0.2820808700309981 0.6360657252911498
Ni 7.259966440106295 7.576347436387424 11.988639980490372 0.114579412610493 -0.6218297841974258 -1.0754461725089866
Ni 1.877847668089095 1.708956412252977 7.806465556486894 0.39108484543624256 -0.5004667730061961 0.4609985397082448
Ni 3.798516713737421 1.485547708508867 4.157457646005279 -1.5510742892049483 -1.50078788224557 -0.6143743563606452
Ni 2.7013977948580545 8.175030290639368 12.014163099338496 0.3381671715016047 0.07185924803414721 -0.6650981079677578
P 6.597913818035335 8.991039892054069 3.2746859577009975 0.7414027933677683 -1.2523560677275851 0.9165118879322023
Ni 1.7065713312406807 4.414463885162989 6.47027804233999 -0.1256194724747385 1.1412095920580412 0.45761368239641187
P 0.22856598276377588 5.937796780939737 7.938162391275099 0.1502920355207541 -0.8041425955991505 -0.6249973832921301
Ni 2.844310014437158 3.9874701702423554 13.1795017565415 -0.49633063935063554 0.1350577350695029 -0.17118147737525355
P 3.622616989080555 0.969425350836416 0.45682832636790943 0.43293751980597056 0.5938854923786739 0.4295866010558666
P 2.539891116771547 5.8854075591657935 11.795759396364806 1.0178236368995115 -0.6867154291272174 -1.4652801762572634
P 0.7284431867259351 3.404051834469108 0.827254341048826 0.31719931100068594 -0.7133286608393715 -0.39176541644303503
Ni 5.566091078561838 7.001689686640112 2.4697192813732314 -0.7371093081987369 0.0028397834416402706 1.0143966134958338
Ni 7.704628101294939 2.632835889143039 1.3449270013792696 2.03737351246151 -0.03383391783030948 0.9293272945293157
Ni 6.146977559106648 5.741999976607213 4.722833761259355 -1.3887528333234858 0.30558640935210596 1.0189256117144387
Ni 2.672575008163302 0.5633882419642111 10.169862513026203 0.9782996106629603 -0.10618141835478488 -1.795793430758036
Ni 0.5033594222401121 6.783372213518403 11.384408143529434 0.772235976698541 0.3736828479097113 0.9424689741175962
Ni 9.128815014068225 2.221235120140227 12.398796858141894 -1.5157033659048218 0.4909320940428835 1.3672147021413936
Ni 3.376485802000066 2.627854739182743 6.1955249657730915 -0.13491940971942573 -0.5092092950855166 -0.7837216087406373
Ni 2.2589285735230207 1.9406670325975808 2.168891765308828 1.0657281738902742 -1.37901246610727 -2.0260984537683235
Ni 4.800039750966242 4.4302788069522165 11.401433035262977 -1.3891153588692269 -0.45104322826774573 -0.2202514954290271
Ni 0.40218887239274953 2.856639048593029 3.017319204374891 -0.9494716306876745 0.5305160269830927 0.45113141710617793
Ni 0.8218906607877114 5.048785353771748 4.1090826990428 -0.17401688994151968 0.17843610205513785 -0.6979382944262302
Ni 8.85264097962131 0.9914506566461232 8.790027099015422 0.692243300923982 0.12966947417439606 0.9561019915199986
Ni 7.535901966451981 0.925191271446825 11.235404793980466 -0.06727677086978735 -1.414426841050822 -0.7291124060361895
Ni 3.1662133906006042 2.9939921947357804 10.065030863824964 0.80747654506839 -1.330299060061967 1.356246376055348
Ni 3.9686647237992485 5.0981565307262855 5.975751675895032 1.642777568548216 -1.3780305618099753 -2.2068176954306837
Ni 7.402419990259957 9.149427618047572 7.25834091566253 -1.0828437505246384 -1.477969598799474 0.9324259880592974
Ni 6.749008700164317 6.064306981865048 0.48206156613915535 -0.5946887050062597 -1.138806381933187 -0.09776491215631551
Ni 0.13007039300558892 3.039657322732749 5.621421288691714 0.9436794494859296 -0.07849140863868417 -0.7080900381482514
Ni 1.6927929017004142 9.205678836383733 0.6173717986609895 -0.3671368192610774 -0.80284161739954 -0.3173157819738922
Ni 5.227574695808896 9.147840621835543 11.902927507619243 -0.449842008870793 -0.44121338666151755 -0.766205711344061
Ni 4.968325563160778 6.656751931930987 12.033470330133035 -0.5053436414825233 0.1909416907213163 -0.09227663534823463
Ni 4.339764982535565 5.523957705140771 0.9090167528280513 0.4576375936558118 -0.28251667201683606 -0.4190083113193881
Ni 8.446736884882483 3.5753281713175222 7.885867655402796 -0.39841660321096545 1.1814159890735976 -3.2710363746549667
Ni 0.12263077492492566 0.883354198474592 6.483207933443189 0.6389823847173125 0.9700754229809552 -1.6349575582831648
Ni 7.682254206721897 4.084497100500278 4.3579099450060355 -0.19248332417682334 -0.6835740552847582 -0.49213691298426215
P 0.7010973155811051 6.745908094848331 2.5236652271771236 1.1491563577089434 0.5508861059990126 0.12604319027571842
Ni 8.833514464580393 0.1852143833487346 1.9059668558852196 0.3840937588303901 0.3083819698193721 -0.03604789476249276
P 1.5674752412812514 1.4003361026503207 4.583912883020443 -0.16226412028096573 -0.11886184203593078 -0.03170375886118411
Ni 8.308989283033851 7.78022599599623 9.332243160301246 -0.390379848949418 1.1666825395181648 0.18276378289621426
P 4.988507017880209 5.701893922046597 8.142388622308388 -0.26974883082820644 -0.7838090262481211 -0.5278935017585813
P 6.751687329608895 5.197302513729749 11.854619526392879 0.7684366575571089 2.1534112547850848 0.0620350628548738
P 4.144133299196199 5.434030977588684 3.3672463650939704 0.039576990961673775 -0.45467208326958475 0.7309959962121475
Ni 6.113531384603444 3.6240939046304765 0.23524971363131134 0.39578173669127964 3.1695734448217734 -1.8396865325965608
