# total energy = -340888.6954181059 ev
CRYSTAL
PRIMVEC
9.05438708297079 0.00000000000000 0.00000000000000

0.00000000000000 9.05438708297079 0.00000000000000

0.00000000000000 0.00000000000000 13.25201072739959

PRIMCOORD
 96 1
Ni 5.983021313901723 2.0948230082981394 11.525684320213635 3.5251544409244513 -0.5679741718295509 -0.04082628998774259
Ni 4.4756016711954825 0.3024971144620146 6.128326118695846 0.05865020554304093 0.7317704124843268 -1.3021272256134413
Ni 2.6622161783145764 1.73907613763755 4.838269715384525 0.5006061267975378 -1.26522649593235 -0.31104846090794175
Ni 3.2408911147052333 4.128302543734851 5.2343855711008604 0.11066876470217715 0.2096698632584389 -1.497278840651047
Ni 5.223973931330623 4.588174866484948 2.432433036082164 0.5722357753193822 -0.666370289811962 0.18265219701901447
Ni 7.298062393082243 6.24055524727406 2.6799012072729442 1.2926280278737545 -1.0284749459657705 -1.3450885596663158
Ni 5.208056318741635 4.702115274232284 11.696900970119913 0.08433269791080959 -0.04428288107777535 -0.11848260431964111
Ni 5.7384713716855895 7.599790790076223 12.474634796866868 -1.5964120939097992 0.5146721179723007 -0.5048929270983498
Ni 1.853650352484562 6.339601188179028 0.38373941393710415 1.0901158587060193 0.3349502072262038 -0.4674602361731885
Ni 2.847061491741299 1.4572945555090648 0.43545535695446447 0.14924482520316235 0.05135212921973092 1.0822968768822328
Ni 0.49491551729114275 0.08168234269000693 5.033762988085792 0.12722692617117443 0.013338626090435093 -0.8011763138819751
Ni 8.64569021157321 2.180676707142723 1.2175208025083422 0.7536373877607473 -0.24727378965414187 0.29694647428892085
Ni 6.787892949779344 0.660112810627932 4.765582000877624 0.24019657109238635 0.32632338478914125 -0.033829546954935286
Ni 0.625189133997111 7.408344828425739 2.158765995706949 -0.015712782749566487 -0.30023542945283777 1.3668478057202782
Ni 7.489961074089638 3.6406694700189766 3.571443247715017 1.8636569273692292 1.0966320625579822 0.379258799335592
Ni 7.82135164334842 3.7578785115232103 12.47533651187008 0.44456559096320214 -0.23726525637820428 -0.602817247650665
Ni 7.85773217086978 8.943280753645023 6.97584482343319 -0.4938071015978334 -0.04993905092228819 -0.03513438180928788
Ni 6.800469493514329 0.7798724729890013 0.47902597330228375 -0.7560025455588141 -0.36613100370438234 -1.9663727557729165
Ni 2.0760351549863367 6.335508605192554 9.209060517384136 0.4629255815276286 1.522014138614198 -0.5617163638452971
Ni 0.049552849930040006 4.726435358085539 1.2799544235812113 -0.2754034580108225 0.17942263433812325 0.6330035414260582
Ni 6.177654419824859 1.8890530061949946 7.008312950272126 0.831424314133239 1.159812551871209 0.19771731888225302
Ni 3.2203829278371696 4.294459602108291 0.6742267892989864 1.9775714527022132 0.5525143856310549 -1.1477129403941975
Ni 6.239432503268921 5.625019900843718 4.663713807501674 -1.1324956092238108 -0.14269982499579298 1.0715149557753805
Ni 5.17230959831995 3.0620488599511493 9.536783154413227 0.2825171862374683 -1.1893187888604422 -0.796753502223931
P 0.05719927986826519 5.872277104814177 12.543942508655071 -0.7210404276613325 -1.6125053999272358 -0.30425792034866955
P 3.9172538339301255 6.191860753244724 12.655286118171166 0.5447797359909585 0.36110398280343614 0.7273319170969991
P 2.672746430556324 8.192608679176777 1.5689586903298534 -1.2566302696229068 0.8811257951234246 -0.8557983721022293
P 6.29675582824098 7.834299416956072 5.666771490815468 -0.09800222497810218 -0.6829659893871141 0.49858215438897363
P 4.686704707323037 0.8997552750151503 12.794405871111174 0.691459628680422 -1.8928757150250302 -0.6404628259175809
P 4.250165540228128 6.17526406162037 8.104717743226093 -2.683387092993992 1.4956459330333145 -0.71664075593174
P 4.795212482787443 1.4311817030024439 4.019692453695783 -1.3765362366526357 -2.8267086107341832 -0.2512682555255156
P 0.2039681790626391 5.620510816048885 3.5362198708699206 0.4286921142660552 -0.6519993658022707 -0.9855478075849412
Ni 1.6081678083931927 0.9853436803165846 2.6266152335258166 0.4617238479100435 -0.03247174737546021 -0.24936795317900926
Ni 1.7618117037416159 6.52109637836461 4.986837721303264 0.7656192427129718 -0.3285324766253181 -1.999634860260156
Ni 5.9893050585756455 5.659571442163157 9.050791641085512 0.5400702463304311 0.13954816674068868 1.8358982691987218
Ni 8.663907638495305 2.316492514215995 10.286621319826045 0.012970187007422822 0.860462610347118 1.6225481288752184
Ni 2.2591872980182126 5.188897235557166 6.992264049069633 -0.6942767864142431 0.6810772570048336 0.5696371613542706
Ni 0.3836370993624423 9.098663091323985 8.932199994665273 0.8170245937681413 0.4001287008060657 0.6309659421707391
Ni 1.666124940464927 1.3408823000729946 11.607939805609492 -0.4509139017787331 -0.2864427465441196 -1.1840007190816384
Ni 4.150014964092298 6.60473175236033 1.9127818385681228 0.6089349305126287 0.509555879791658 -1.9459497120318745
Ni 5.54939765946532 8.06637241369574 7.979857744590066 -0.20181797131418794 -0.23552359109674925 -0.4811906983854035
Ni 5.318402134795099 3.244730174851838 4.608942914263879 0.36413505632027604 1.6009315790467074 0.5669503585507267
Ni 0.6971552138490961 7.504982302351941 6.807743788141173 -0.2062667511141609 -0.3561816058011543 1.528469664431555
Ni 5.001543856893157 4.528162388532838 6.940263798296133 0.2660806379479998 -0.13790574604125927 -0.2781756214393209
Ni 8.058558477595456 7.306319994152298 8.997863315630344 0.09254737251111804 -1.0551498841537958 0.059088578632040166
Ni 4.538031670513496 0.4548109203398333 10.378192864148414 -0.15293590090150436 -0.6505369223241312 0.019986727534572032
Ni 8.235282005759197 7.114104409595066 4.710652655864911 -0.21805911576339865 1.1585036032517984 0.6747988801952896
Ni 7.086751106050509 6.242809789671476 7.01879521426204 1.0271932510398698 -0.6555289762220841 -0.9378494730677138
Ni 2.385333019627867 5.224073529589143 2.6660000066996377 -1.757007054018458 -0.11478124420865393 0.44060583498450573
Ni 2.6716055777769085 5.13994921868796 11.239110250972892 0.16541989230112802 0.902089027638653 0.6034798209353284
Ni 1.0843081317373084 3.383144591033778 3.663769927924713 -0.42987970681625326 0.1805760312162761 0.16783518661083996
Ni 3.596828127495725 2.7482056929662337 2.5720036975016543 -0.15510385508710062 -0.1812162359034363 0.8934609196500096
Ni 0.9826002010137044 3.2742836944709817 8.354822551951523 -0.1914613106702122 0.30091728601121076 -0.5616227756902262
Ni 3.369780315617768 2.7338454349650196 7.318966256668247 0.929709874679715 0.007085960312503924 -2.4736143856091015
Ni 4.079644267254067 7.033882539550453 5.793699511473865 0.9569522553354357 -1.4300776602142016 0.5193713232201829
Ni 1.0310230634288948 7.329345300644786 11.288923867252512 -0.9614604276184345 -0.23155432203635604 0.3887479697729499
P 0.342251306631075 5.6616358424306705 8.0054735112428 -1.0460584633754888 0.044480084690245975 -0.5396059050995029
P 8.263604128727545 1.8105333609323675 8.29790576896197 0.3904868068409275 -0.37339128481122147 -2.5863647154306553
P 1.8286874071444947 3.441409572268211 10.432473009603317 0.5009730232186532 -2.1817327274375975 -0.6496313797907264
P 3.9297579425680045 5.801326927199099 3.990816202234578 1.1496451244199042 0.1759657861377744 -0.04952536042363728
P 6.890768896443778 3.9473596711647003 10.472957890814433 0.21501981471644258 0.8228836236520795 0.7326738981352028
P 6.129322101281051 7.796189501491312 10.079227866109019 0.41899545580358166 -0.6909443796069002 1.1227678404130859
P 2.438581870387728 8.48482091528849 5.700591437654141 -0.2798434960600471 0.9472180587668073 0.5966460858429466
P 6.95468381525246 3.569764564339591 1.2808136849206282 0.6179083376558326 1.3156304023061989 0.8541826908756773
Ni 5.192528044799592 2.7164247941110884 0.5954934604998969 -0.855679587136178 0.664222904451656 0.1997891138096172
Ni 1.595971548918013 1.127714863677926 7.134856159477147 -0.5664662198254566 -0.3330177660901813 -0.7554423021799699
Ni 6.9134501362250145 0.5997870508808401 9.363924038680079 -1.0775120538990797 0.9266206942314299 -0.3345259752045916
Ni 2.8354356586558267 1.7932213727240944 9.274910358724254 -1.1154052294004275 -0.9357730501546594 1.9035450218134182
Ni 6.41550411555871 1.8664079839623113 2.622400416312976 -0.2921459675764839 0.545574463978112 -0.07539451488091532
Ni 4.15991140923437 6.95229345704797 10.476602281637565 0.06732587894016792 -0.06358055296512276 -0.6826142624746502
Ni 8.067830170024992 7.513339501680516 0.2722065677298198 2.4766901963209476 0.09079053772101138 -1.0458139514648506
Ni 7.570717152975405 3.961049904517686 8.481578539254294 0.5725754180469881 -0.21037794506905702 -1.6191115923898438
Ni 3.101788565100789 8.303144637360143 12.28046618100392 0.43301825244523484 0.3924922673067305 0.6375903894657922
Ni 0.34923042823721356 5.020675776916213 10.069261702185981 -1.3720064671030825 -0.205361208580756 1.3570341620639659
Ni 8.505682223254944 2.0338054933736873 6.0082097134815315 0.1422416544124518 1.9714288301395855 -0.13881591656035447
Ni 3.88780896695664 2.6466969587596703 11.834124734393177 -2.899546934852148 1.5588457056202507 -1.2038372941915914
Ni 1.358954856800878 3.617562674042244 12.56093125524251 -1.176104347052697 0.01987488454705609 0.35587821562812255
Ni 3.0150384819295213 8.295629496035422 7.940101741543578 0.14341664855715947 -0.13011453213161464 0.754374780147404
Ni 5.736352645095247 7.729594484089717 3.420688607302399 -0.17881276866826623 0.21045019306788917 1.4043095501111622
Ni 3.365633406308464 8.192925582726614 3.578426896514724 -1.2105363034783216 0.21357356918821926 2.2285854261250777
Ni 3.45645796369193 4.331609752536401 8.885844248833738 -0.8284060961322055 0.6861261322826506 1.6897025152345286
Ni 7.336887605130921 6.252914485717727 11.174691908239325 0.30992257483361463 -1.7870537368921933 0.4588964057635774
Ni 0.9984182153441715 0.04153247380300642 0.3961330590518971 -1.2015161022575824 -0.46351256437935007 -0.7651222484718952
Ni 4.658011354482024 0.33078120900438035 2.0823813749315137 -0.23445915438797685 0.48288479825837477 -1.8679167310868476
Ni 6.549816894367037 5.573437057317288 0.42576444640042965 -0.26829384354923475 -0.19885554625175428 0.03492072313658502
Ni 7.7953655522617336 8.596407182379888 11.327037404472128 0.6666538824906518 0.6747975946437088 0.36728928567854163
Ni 9.107808022333586 4.955140122809789 5.628540246563056 -0.8758866582116721 -1.4529324533251882 1.0263447869966456
Ni 7.6587076871846085 8.971530441516265 2.474495191532756 2.0051483338792178 -0.46175264426544993 1.1536210783485166
P 8.867902980719359 1.5469873145002533 3.5953631276567615 -2.104964729247923 0.29027163337190653 0.48161338774511897
P 1.686098918491836 3.0581916910302684 1.4798119108830994 -0.16048311712114294 -0.17081149563034453 0.6652873411604284
P 4.5892432841672575 1.1061473135146904 8.183077125836373 0.1264188284475823 -0.17327615512075317 0.8869737692637693
P 8.537300143141602 1.3389084436768632 12.278597355498592 0.10291920266374534 0.18362253135208376 1.078394456504033
P 6.361721055957695 7.753190216971914 1.2639716194048285 -2.5636014535922103 -0.44833585663891173 1.8454488890016345
P 1.5153512858393192 3.1231207011984305 6.1154317659723105 -0.4678019357833233 0.3849291102474919 -0.2636738282787201
P 6.842445632287108 3.8880353266350953 6.030221834053254 1.4693029242634115 0.40210407936488174 -0.23083595581309277
P 2.1493847451930415 8.6761310611319 10.138782192071934 1.7508096669584945 0.5729618548521294 -0.5875353817909301
