# total energy = -381164.79068908887 ev
CRYSTAL
PRIMVEC
9.27953015575054 0.00000000000000 0.00000000000000

0.00000000000000 9.27953015575054 0.00000000000000

0.00000000000000 0.00000000000000 13.58153037222837

PRIMCOORD
 96 1
Ni 7.41291569726849 5.924664620680612 1.0783473106506751 1.120498841873251 -0.07054824253220754 0.5474765660968313
Ni 8.38267301587939 1.4136436526212586 1.833642619619816 4.033070728230157 1.274090116970567 -0.9806267161342401
Ni 5.5282709229713936 4.613903120984467 0.7373004437258486 1.4406402662213962 -0.686932687344346 -0.8692357285540578
Ni 3.0587837487369542 2.1744166683525257 8.955457594087601 0.2817422557446567 0.15819792063139207 0.2738759656227025
Ni 0.8012159928299887 5.241384962852982 10.884374079703399 -0.9924123959152586 2.533814709248081 0.462324714718836
Ni 2.523967296884692 8.81948834776754 9.551646075776684 1.468939884497038 -0.7890759310740152 -0.08976466755965831
Ni 1.0475105033641732 6.1421489733554475 2.062043411791459 -1.116889784365754 -1.1740281812499584 1.041562375277348
Ni 0.39409051827781083 7.77957777975519 4.335591446904011 -0.7401820335867898 -0.057121941823972594 -1.883053586728286
Ni 7.060163630767607 4.634772784728365 7.504855428011833 1.7294988212958602 1.1369716427172936 1.3640758994020958
Ni 8.133165003987042 2.4209552305347604 7.596312623177284 0.2341349382793387 -0.4928023144824029 2.9520308636834773
Ni 4.128667199760769 2.825013820308211 1.6983971766665944 2.0459545692623022 0.9341830799597202 -0.32866257444527913
Ni 0.9726710911389503 0.9965658817750258 8.487492734740355 -0.989218314457993 0.3102084815051496 -0.2341169405572097
Ni 8.916060420058662 4.40459403454279 13.614669877883241 -0.46073500163421294 -0.5833779079791308 0.6525979186182181
Ni 3.289083132817001 7.616657065503704 3.005144351535878 -1.0284543771404804 -0.15497555703935248 -0.04301764121210656
Ni 0.4063339306138256 1.7874416939425761 12.393024347846726 0.229750693168714 0.5058406357235997 0.330739768689282
Ni 8.486436724187197 1.3372545588285698 10.36986495205618 1.4115999131249883 -2.007702210649323 -1.9542109235994025
Ni 4.112984793479228 3.9450160147205477 10.558255193243138 0.1774518837649976 -0.26946086727414237 0.532923607983321
Ni 4.351060423987637 7.365404501906664 8.24203338193714 -2.8888377759647605 0.811893443189163 -1.2062800993051288
Ni 8.249483916850423 6.438453656773127 9.747613981442639 1.021693661377879 0.3109613005107741 -0.6824034320154247
Ni -0.0158550055459412 6.956669028839782 -0.04405178644954469 0.42431866778870797 -0.23029088194290018 -0.49576628220673324
Ni 4.042757307835027 1.7927588648297494 6.574737479171855 -1.200245720185591 -0.08849839925272501 0.9806755670943047
Ni 1.8307028644068029 2.9996545813843043 4.472167574508577 -2.4016263253065735 -1.6893178782016 0.10972876938641102
Ni 0.4332260095510476 9.339383314826478 0.24723452695804246 -1.054011142563662 -0.9480102156507996 0.4151889375732979
Ni 1.6711784582612597 4.001314925318245 12.707070565329305 0.08906712727200145 0.6455731505609528 -1.0723991581525467
P 4.568414863237655 1.9595305841740402 11.641041831210433 -2.5774355312618256 0.13748408512280838 -1.4516371315525323
Ni 4.983581050833001 4.091957377719482 4.030644736876864 0.07410073577015625 0.28808439591260065 -0.5979910299066152
P 1.8437498840706175 1.5123128987701482 6.427581759021972 -0.22275780679064863 -0.002696315885240518 -0.5648286842220336
Ni 5.767460097121096 6.371204900369384 3.8555520626730124 0.10394610126636292 -0.4127602735271472 1.7081198413994516
P 0.49421665069072523 8.823385750512065 10.105880872827024 -1.121452464035772 -0.37857180057089646 0.03327444578241367
P 5.160393222009616 2.903036111441462 8.334958598803027 -0.16683117082635784 -0.5652326045286717 0.3690378929385322
P 6.102015004617185 7.260759238216168 5.9735510424394365 1.0230206077194186 -0.44408376623077717 -0.21348538034978715
Ni 3.759341892065311 5.740503061471464 12.827782407857589 -0.15734045772710323 0.20664213217570865 -1.391700860208216
Ni 4.7599814876614 5.140878369695959 8.533248242961077 0.03900106385354574 -1.3368245198853106 0.2666599074902375
Ni 6.438843397047581 7.146936519015352 8.53751311510723 1.5215256290135537 -1.6498491306830168 -0.4813004844903905
Ni 2.4307544145781375 4.688167202328356 9.060538067751235 -0.05857615777199589 1.4040904921218207 0.047176914796118755
Ni 2.672040762585607 1.5774273631947469 2.7698033986198776 -1.3356839785229642 -1.008244734961825 1.9864666983093142
Ni 3.9223461220898943 7.122030259571769 5.46602290547009 -0.3162490312722747 0.20408979806750013 0.6274602430103259
Ni 8.996792334052392 3.2586369937579858 5.773671814733441 1.1629732089873777 -0.895225210639284 -1.0595323294922074
Ni 0.15497836422996522 5.073156357244666 7.591831537974114 -0.6345873409734103 2.2767900108547625 0.3425089934100682
Ni 7.062863974097743 1.06666345399441 12.308207584595522 2.300180364754245 -0.5925978839155019 2.127536443900852
Ni 5.1533407789480945 1.2850293620519355 13.453198626271503 -0.3342652653440372 0.1072517686008282 1.6920422191112987
Ni 0.9894392024707517 3.1914067964149306 10.52761511199993 1.0982521146599087 -3.0308662859251414 -1.9429885725210216
Ni 3.7801373195664545 3.394238770676422 13.020763232705775 -0.019825776476675536 -0.7840561092619207 0.5571287444746147
Ni 2.561679308203143 0.5412480943337626 0.08884871918572118 1.1681256997225946 0.940319274764445 -0.9373208542577534
Ni 7.346251551276426 9.074591916457384 7.868392164678638 0.9476435763400003 1.0326591592504473 0.15253943679403406
Ni 8.153134553287561 6.418400591699513 3.4983170550628913 -0.3219622796069681 -1.2221726021656694 -0.8535175464878525
Ni 4.827842693067854 0.4431124211796592 8.677810334379783 0.6575899725161707 0.09976651596737657 0.42498972571380356
Ni 6.237273438912888 1.8352591138057595 10.491243064863168 -1.19399768239335 0.38496356302985313 -4.151689086796714
Ni 6.378767717599831 1.2971762672723717 2.208968071635774 -5.278903650127244 -1.762240020282623 -1.5141583900152051
Ni 6.945505753835822 3.627266336677636 2.4470390623790106 -0.4170915539126494 0.30923711873081583 -0.08019784980682962
Ni 8.222508322140104 8.377634230902542 11.632486104233166 0.7406921404539889 0.0005448167598764811 -1.039936409638151
Ni 1.366048941486334 2.8210978585029975 1.0269943897263871 -0.3567649891084501 -0.7400812463428673 0.18427610577568265
Ni 5.02454089777189 1.7644655768105673 4.38437579382905 -0.5811988980499411 -0.1877884898043153 -0.40275739667816446
Ni 8.046726178831687 3.24217510692754 11.297565583241518 1.466704824518932 1.477767767201313 0.9905347192765713
Ni 7.388055835476628 8.806153662663059 4.021925690165541 -0.04152537293729623 -0.35285356986918587 0.18598126139224747
Ni 8.378395152390757 6.866388478121966 6.5257081526457315 -1.5307862283798732 0.647555213987988 -0.516722058522794
P 7.155083946657478 1.880051406776764 3.9356427611199654 1.7709887130095305 1.3208643970116285 1.7712044285647623
Ni 5.404138645558275 6.8472726456131054 1.7407174027539287 -0.03444712593427616 2.189839929925764 -1.5539701226955043
P 7.253688236093959 2.907592360840419 0.03416723072700193 1.533604928775591 -0.3687918383659971 2.6188644878305736
Ni 5.315027315663815 5.105486240963535 6.272466985695948 -1.6016682001024158 2.6827893115089925 -1.7176324088755772
P 6.432802422793566 8.873866395584006 0.7223984459462472 0.10861085373188392 -0.3238553828646229 0.07982838228255283
P 8.51326384641201 3.959900381392495 9.251330779344281 1.2296128604937984 -0.07813351107863319 -0.5106768807699785
P 4.198569901842927 7.752388755846956 13.391782982642066 0.10793002561477541 0.8193948937725307 -0.0166967439293906
Ni 2.347043771343948 7.535823076676188 0.9285135180434828 -0.17544230953413656 0.9936935766205274 -1.2840863089513304
Ni 0.25248952499191024 1.000741670429874 4.094410885542464 -0.9994021969695305 0.7055765276977785 -0.3393030848782608
Ni 4.246767782450219 8.815999244358155 11.215818488628145 0.9089752132355248 0.08035905797504224 1.08307077893378
Ni 2.161768668493508 9.046753325425064 4.801437789473698 2.33868803391114 1.0834027083519018 -0.13902057637199283
Ni 1.6360925540301912 8.236325542822481 11.870882806491482 -0.03608851819244107 -1.132472212185043 0.40412110979491045
Ni 7.937478268090515 5.721990398434971 11.868777281056403 -0.11189440957916214 -0.4522444476646985 0.6815349133675423
Ni 6.670896612362664 4.643161480159437 9.974398279428339 -1.735678467744011 0.5513861855638826 -0.0018293398992549137
Ni 5.424859836816666 9.266483324443174 6.215723585594769 -0.2538635270565176 -0.9903907374995394 0.5472613647622316
Ni 6.520512543606066 7.312093600079769 12.671269209308706 -2.118637341639009 0.11813601961349976 0.9233811042482096
Ni 0.8430676026349457 7.545752174144383 8.371452207787296 -0.7878274033788948 -0.292751719481283 -0.15239648345826656
Ni 2.7614954351027987 8.868233720665133 7.217836770609502 0.2688396887503757 0.6277613191905124 -0.44248248318192823
Ni 1.3098057080707013 3.3298202710276312 7.598323497402852 1.4933705067355765 -3.0115493307640846 -0.5361783674751928
Ni 7.521755308674522 4.554504847251839 4.869386222465386 -1.3611070465817592 0.8752847629616153 -0.713417621008752
Ni 1.4836298704765134 7.11236098895321 6.11152559526686 1.1519722298911836 -1.4327562354876293 1.0272084205485212
Ni 4.932144614135616 8.687078729287476 3.9469962664959803 1.0661644900967444 0.9200181013132477 -0.07508418272934811
Ni 8.258605695178682 8.206009317188283 1.7106888425603985 -0.36258930909971104 -0.3463808176606486 0.7302521760675875
Ni 4.1331584924473175 0.42142894262458447 1.6962109193175228 1.5837085303002016 -2.5588220299256963 0.8924453339013018
Ni 3.262775664291458 3.8702601182684218 5.670818428352393 1.6264505492534183 1.9312352886398354 2.4387137170771744
Ni 7.34985200904994 1.1363434473483094 5.927523643979631 0.9171425795376658 -0.2773816647831158 -1.1916230115135864
Ni 4.85806612339861 6.558762767684474 10.524640094571609 -0.2995504875706712 -0.5818411596196302 0.3972228400131804
Ni 0.23564160969914963 9.16914105113349 6.295596215078635 -0.48584593776922774 0.5351643243883815 0.8965773537918044
Ni 2.8205782048037276 5.589942681638329 3.931839081631916 0.9194095211949714 -0.6886949214510912 -0.45719099303669647
Ni 0.8758224888435745 5.177096376629009 4.819555144517532 -2.2350224399996734 0.46170122220222415 0.3399916263048532
Ni 6.027676687030544 3.0466646821075503 6.313252377464368 -0.035478652522584066 -1.795813228252378 -0.714129302363796
Ni 9.166793329956432 3.81166916367573 2.8857223637254275 1.182362669257583 0.32638457704437984 0.4301447875521818
P 2.963000436525082 5.829874218215559 7.15727669967779 0.2280843612098846 -0.46246638250302285 -0.2208744737250067
Ni 2.5209421699925127 1.112894074168751 11.288058704403982 -0.1849492205833073 2.267764153207068 0.16979333877847533
P 1.274756921961009 0.08627364951523149 2.349876811958004 -0.7162962281081277 -1.461096220082903 -0.5302152079132223
Ni 6.065156710090392 3.631321491438011 12.163075730013688 -2.4344264025557303 1.410649633396577 -0.2446515215399464
P 2.653945678414598 6.18705262069058 10.867900129483505 1.169841653972437 0.37101892792430297 0.28167232173866974
P 2.454946150185224 3.723522904937058 2.633988192503528 -0.25117646714265773 2.5015895306657887 -0.5269316520659441
P 6.217443082567531 8.361756954483775 10.303709324326972 0.8053738969030904 0.6324265858766657 -0.09776979725232193
Ni 3.6809298606576073 5.396752139404366 1.5500332616659085 -2.6620088844285315 -0.6816927791016453 1.433239859992267
