# total energy = -381171.541264844 ev
CRYSTAL
PRIMVEC
9.23909642945322 0.00000000000000 0.00000000000000

0.00000000000000 9.23909642945322 0.00000000000000

0.00000000000000 0.00000000000000 13.52235152667944

PRIMCOORD
 96 1
Ni 5.115207267359958 2.6225729598657055 9.59675849646805 -1.704601286723232 0.7579871800890107 -0.5507377533466064
Ni 4.032357446975184 5.202017817536449 4.509731397168258 0.5169496011525678 2.6958296896327183 0.4719442400864711
Ni 0.47822394706581084 7.066661500717557 6.486956242233743 1.1821901482354609 0.26109012671194387 -0.01166406660148959
Ni 4.946039411492401 -0.024213823957274255 0.7996373297563022 -1.8525248220118096 3.3143288667950146 -1.3186288228128904
Ni 2.1520534953235404 -0.006637366884503139 6.469823261790226 -1.6453579276808823 -0.6726782343078608 0.06992423579496344
Ni 0.9168786918864239 6.856656838572851 11.451917323240984 -1.2054316352619046 1.1518156497086616 0.11118427088601497
Ni 2.3007475134738655 5.743622890109471 10.030569183023706 -0.949952684089151 -0.5235879324046918 -0.5781451988252817
Ni 2.470996343625229 2.4376986400454 0.95314214542439 -0.4271875046960707 0.13623864275148148 -0.8317912105543547
Ni 6.160509399801217 5.898479385587139 0.9700256702639516 -0.28586784787725605 0.29536653139631064 1.5959557230986707
Ni 1.1991700445995488 0.21301383585612332 2.231783201986275 -0.23529707690823992 -1.1523766644184539 -0.34976876029627507
Ni 8.617240578518771 2.326496875259932 8.430131321268954 -1.2831941361543642 0.2273351417486859 -0.20805521047315137
Ni 5.202572163323017 3.756394875325373 3.241902855173375 1.468793845837477 1.4585461999675398 -3.0250833606947776
Ni 3.079760408240919 3.547461948368032 8.10063188137173 -0.07158979642284444 -3.191582344992697 -0.11245850961274825
Ni 4.250067515553179 6.290928485187696 2.4619605073041764 0.673524127247924 -0.659705990417909 0.9955008050325951
Ni 2.4615909434464647 8.097966402047984 9.912248694429067 0.2103470918311216 1.3584570105534217 0.6100042523174075
Ni 6.64801956270168 1.43459146105838 13.230796321962927 -0.5331709481074366 -1.2449230084883076 0.7623480281608677
Ni 7.432557437141524 2.2127913153384675 6.250287547755134 -1.2056414372798656 1.6146936658278062 0.14847889357141528
Ni 7.285868302919286 2.6553625131411813 3.9704869137363703 2.034131865595761 -0.20812154493471252 0.3436672753842275
Ni 3.645728978133588 4.089418106605879 10.896892463084805 0.2712362140070103 -0.5803712599423231 0.4194122316260261
Ni 5.118625733043792 2.5099298960351626 4.880878836010308 -0.04374063542106015 -1.8561799022658936 2.8091160944634006
Ni 7.9899336473423945 4.450056997153896 2.5580905340625137 0.25727075296585367 0.6758113806202038 1.4071681026058798
Ni 8.643867654466904 7.179664889309369 2.2114183856070686 -0.242437287497447 -0.604618562525462 1.7373355437314595
Ni 8.138091797899037 0.264732449923595 7.008742529027327 1.0338809474726904 -1.8301441403237642 -1.1412412166269248
Ni 0.8626119350200298 7.4145227208851905 0.1874991471197037 0.3621797323661182 0.6652554594812284 0.5251671039663536
P 5.016145675300321 2.3592771894389646 7.217541489086247 0.56288570156305 0.10368667695738916 0.4141561254334093
Ni 4.464414553025998 0.14393865521121904 5.758277020977386 0.485286465721332 0.14381774065032005 0.6074709443725925
P 4.578009243790149 7.731183512365509 8.730367771002918 0.20711135850264328 0.21727775751268388 0.15796060780960539
Ni 7.742713904726115 6.984756910752189 5.627907826711698 -2.075532540029735 0.23748637125007488 -0.7217415674934151
P 8.005667828584473 0.06559481301490386 3.1501937360629144 -0.7193285871765482 -0.9383477528603711 -1.0792025542276251
P 1.6713340683085312 5.6579949442776565 5.1474323118427785 -0.14195034842427812 1.2221852005711595 -0.15790892863606354
P 2.1645539928106405 0.8712717401158604 4.379172801425493 -0.7794054978637868 -1.1588252482572752 0.4961442343714422
Ni 7.738574789519743 0.31553916517216296 11.547046755854568 1.2364597082123028 0.366280384798053 0.462394648724823
Ni 8.198192120259412 3.1093255168578597 12.593934317245411 -1.2966073242364768 0.6499651089810612 -0.11833168056407362
Ni 3.1646861827430803 1.9577091016493708 6.170438656748288 -1.1840290012164125 2.137685873630028 -0.030751165139927688
Ni 8.656201848218034 4.7677710456286935 6.888448569432506 -3.13049319099086 1.610688401323155 0.441888044131039
Ni 3.9610223833403726 8.625990002850099 12.013081562983402 -0.4426061532439861 0.24030789985927 -0.40631323235022276
Ni 4.645583995172744 6.615193053040433 10.839909411864232 -0.2562955335367779 -0.04774410015349842 -0.5364622172641987
Ni 6.377378710602918 0.8747049883540027 8.370079042210081 -1.3197181992223272 0.8952365234931938 -0.5846876279294898
Ni 6.454451253128704 0.22863899576017638 4.880379000892754 2.4437245400282044 0.8321136268907798 -0.5699413228582507
Ni 6.509673332567283 5.599613093855642 12.325894270795295 0.4295385214267506 -0.07989214564095272 -0.8487682047283253
Ni 1.558607852610003 4.942260621047299 7.227872646728579 1.4935641108036213 1.0113426571608581 0.3295930566793485
Ni 1.9444140418681906 5.285132729135823 0.8383047961886831 -0.030927028596159638 0.2588686935805929 -2.2705607421155993
Ni 2.521737461289053 1.4433224071968205 10.603984464649265 0.8523556649692675 -0.6306155008098558 -0.23330961416456594
Ni 1.1167480652333843 3.6260497027104366 12.33434527231152 2.225258932855006 0.2483539100921981 0.18009086404974145
Ni 3.7128972092726995 0.7939026225942599 8.379016944108841 1.219800759499383 -0.7815464554661895 0.1957789642089596
Ni 5.021014679125674 6.859447045698576 6.624653887797854 0.3956341553698219 0.2041427627926226 0.6650497712283256
Ni 7.031035544834144 7.40618905589379 7.948951787251093 -0.22926526889186322 0.013060946949016217 0.4738872227454548
Ni 5.038116246641286 4.533855601890037 6.362036267050015 -0.18982197529457634 -1.1852135084428168 1.4427742818452636
Ni 5.4462348538088206 0.7058614247715884 10.605769458082014 0.22653604288615825 -1.6116674774069728 1.282256197721127
Ni 2.3659755343599906 0.042604245426655515 13.540336541814783 0.19597488226984958 0.5153678584877447 0.29643482475982497
Ni 8.062885552854695 8.74741944739774 0.7091948907681485 -0.0674318083904129 1.6439528198032398 -1.3953307436513196
Ni 5.480345597875615 7.441279144183522 4.28045952330175 -0.23308412841732118 -0.5205224061054906 0.3362820386637499
Ni 3.5674830703595664 1.7094083847492847 3.0687899051247456 0.8306645531490792 0.9590117089676257 -0.3340158683373925
Ni 9.381101355119645 3.873214010748059 4.5661462439576015 -1.8635810798259713 0.7130687223097655 0.4877395552475148
Ni 3.958463153625719 5.352762915097075 8.541339553421931 3.113627268473457 2.583933994501976 0.3188910968808121
Ni 5.813147090841495 3.2759249039143192 12.140178269289052 0.008640706394133507 0.19499169242097386 -1.0605240039815154
P 8.208096431646087 7.096208131141612 12.706655913395718 -1.1295972046300935 0.11482469585207966 -1.0069967214873368
Ni 2.566334579818419 7.133284625166544 7.791308780286279 0.24558354643591254 0.24165181548167414 -0.737409098827343
P 0.20377289159404088 3.4172091667175235 0.9414500688760343 1.3287864800721825 0.7189562914387941 -0.5355067953294648
Ni 6.676291197816629 3.3434719380075855 1.0697764989182201 -0.9301850145439207 0.9885261734869749 -0.9614462865510474
P 0.6505081501635216 8.732091786399142 8.011384981463273 1.170397526475907 0.2492113729964869 -0.2958118464638454
P 7.079550040255255 6.299095846443126 3.6085342236741877 0.9068465969282962 -0.7660984963422355 -0.7817426306373957
P 2.019888220709374 7.277100400395073 1.9931678298871696 0.29316900952435965 -0.21073352863626288 0.696848146685845
Ni 6.189418532570719 8.147201546991631 2.051624516990371 1.3503485225136744 -1.6503720930660222 2.2751357630807916
Ni 3.632018159012482 8.526854498018919 3.0625424281101283 -0.3327349447424398 0.5697418052529349 -0.6543982050517503
Ni 0.5214795487916833 2.945719597048865 6.57541966676385 1.8552023688439725 -2.5099731267437932 -0.48119506926077776
Ni 6.990161782171223 4.604627080641839 5.049949681365216 -0.03811506170416661 1.060694982341741 -0.17993454097753525
Ni 8.932848113004612 4.923902536415468 10.764279092293165 -0.44221251734999323 -0.7202480136670241 -0.04274741826985541
Ni 2.4289769330034026 3.7698100433603097 4.572218178139806 -0.23241358471285778 -2.2210605785029425 1.0479595370529435
Ni 3.880060181212169 1.9477308774911535 12.309179821420637 0.5409246239109264 -0.13435093881046536 1.458600450244243
Ni 6.607081126363661 3.739515046124389 8.16142883160389 0.7505147829713654 -0.3623316845629502 -1.8181820828658817
Ni 6.974529230990017 7.451848670514078 10.522133461443268 0.3749825405577413 -0.8962194562317533 -0.9105111902640771
Ni 3.801832751631034 7.3110448407258986 0.6093174864926135 -0.8314585098052841 -0.76811115589689 -2.350434632924107
Ni 0.1277258887734043 6.821954792333718 8.925495640055436 1.1087951802830776 0.060590102878231133 0.36804647555954034
Ni 6.193252757594479 8.15093414195452 12.61485255550154 -0.1574265896830063 -0.6259422637039026 0.925067233701381
Ni 8.242050111073354 9.221144878405552 9.355520144888835 1.2749303534836753 0.040876940720019926 0.3441858668918588
Ni 8.50618663927639 5.387003006514068 0.48747690215326894 0.4628607897279642 -0.4400131957058293 -0.8779882779357073
Ni 0.2994890068317414 2.07738311787288 10.58397165784453 -0.2655363354087556 -0.09863497346609465 0.8818505891045909
Ni 6.1034487401705215 4.7237929465609945 10.073530057573054 -0.8917331383256256 0.7600803151726135 2.1086470631955168
Ni 8.455159109622839 1.759022332647088 1.8325489099581305 -0.41512388866331734 -0.3086205681927395 -0.3496576886397075
Ni 3.0973608869644416 4.2647576788972215 2.454347491835314 0.5811773007833863 -1.095078087807301 -0.3414517557901474
Ni 6.104926995601369 1.5435111690224774 2.6085969786766916 -1.4795197168954133 -2.2117004774442814 -1.0116277925014447
Ni 4.234490398950629 4.484980781707657 -0.17103322943935642 -0.5924047940680894 0.4143201618150993 0.7169310334786493
Ni 3.381638645412767 7.575615606461745 5.1917716595813905 -2.3436098966927896 -2.1054252138241094 0.3286911136903694
Ni 1.0395092189716275 5.312073934363011 2.9486437710730096 -0.2567297928607191 0.5073277617920876 0.4339952716465235
Ni 0.3285302586803755 1.2686295716564733 13.127526321473598 0.4574020806062381 -0.46144359766546333 -0.1348255644540388
Ni -0.25467754126490244 1.0152011562306367 4.750753553890711 0.9887506307929552 -0.08743319121300427 0.4683580653971095
Ni 1.5906952345558258 1.7980113196356784 8.408400966435503 -0.5583122232597546 -1.295788170769291 -0.4296709332395568
P 1.3079326879241187 3.7643127809768475 9.643073163026132 0.7131026608714945 -0.10508432863586417 -0.06248834834220851
Ni 7.3543577248497165 2.5848035336075643 10.387559554386463 -1.1851991102651136 -0.2719820910340993 -0.008995004409758704
P 0.8102401168340524 9.187874892115051 10.973266529919517 0.010062012221692349 0.2334032023196367 0.9072595160959986
Ni 1.2148765085522983 7.615094265561803 4.030877343725049 -0.08813973036172562 0.3877917765072676 0.5946845912412015
P 4.740968426848148 2.348375055636468 1.0857204076495497 -0.7682700500722576 0.047759012551833874 -0.9590836998561418
P 2.891661643762078 6.211583124936982 12.158067931731233 0.6030072521742841 -0.3087059288176941 0.941190878736121
P 7.7022097059209065 5.578196868301245 9.0880889548943 -0.5371749270605072 -0.0603749015436315 -1.1897880151873765
Ni 1.1414441700249724 2.341029973964447 3.1305597322123324 0.1675590501313179 1.1830517249048078 -0.4961344641794294
