# total energy = -381179.0511258297 ev
CRYSTAL
PRIMVEC
9.13804262836299 0.00000000000000 0.00000000000000

0.00000000000000 9.13804262836299 0.00000000000000

0.00000000000000 0.00000000000000 13.37444907412215

PRIMCOORD
 96 1
Ni 7.996646291589402 3.432321922320701 8.223654460814986 -0.7977893996876131 -0.4740204058892094 0.31098392621859344
Ni 4.376089828795962 7.641551092393803 12.811371305454148 0.13719226491400244 0.17541248473746565 0.33555493068973824
Ni 5.803954682505736 8.329197939576385 10.834066102958403 -1.5284868908227354 0.9842280603322534 -0.10560034904033426
Ni 8.759618024306075 5.988881251540486 8.208006476587327 -0.36092426269246225 1.5335059413038814 1.039966748655454
Ni 0.16707266131225598 8.525355163023532 8.452130199689577 -0.7486772155419945 0.5368959623675077 -1.0734707939501706
Ni 0.9900795066071038 1.177528175412253 12.24512426863296 -0.44437944309432503 0.9932809145631409 1.1492656295932981
Ni 6.608056745173759 2.188990701811881 10.319404230680284 0.016017972694811124 1.0179632478011693 0.017609228441330962
Ni 5.300457670732962 7.778950701624741 1.9930336014986891 -0.34953067614353994 -1.4547448239435783 -0.14897537359185956
Ni 4.382586977117537 5.854186502932876 8.088438843776531 -1.8965243675212113 0.574288801193669 -0.6353113636236284
Ni 1.424620848570311 3.3475665767755465 3.4350002826203547 1.4288846683473648 0.4947275565295738 -0.22636969251162306
Ni 0.8226778757595782 8.465062357642731 10.732139461476441 0.08947336157148461 1.0266530622656835 -0.46101062389310277
Ni 1.971368216188392 1.7399381481262257 1.3460181471389623 1.3660160538476023 -1.1626307380462944 -0.1177891777970423
Ni 5.763007113407318 1.9459370435035224 7.686884008158219 0.663255141221748 0.2063425986574188 0.1191112390425755
Ni 6.332069581167853 7.982025423355196 4.074351660612565 0.7894564543418856 -0.7181067989543052 0.7351226167860114
Ni 1.8707675046944179 6.9888024300777385 8.949472739740015 0.9028989251344579 -1.6730301967851704 -0.03934224924304837
Ni 7.858003908558556 7.375085768825424 1.495865598062796 -0.32994838313623814 -1.213846084577845 0.2813373069967542
Ni 1.3765638822930095 0.5048010104584127 6.224949790049953 -0.5979154394736734 -0.11166326740496253 0.6488387086861019
Ni 0.33503719558679845 6.142126226720243 10.680380674123091 0.09826833415529528 -0.450447760775592 0.39842508785139763
Ni 3.5420972286316386 1.2875410708319963 6.852078122198368 0.4058648319588945 0.5909068693663243 0.3703758950236653
Ni 2.9825383252233357 8.964757943674613 2.7873689241862616 0.5817357443900175 -0.32525534853594307 -0.042454312509468815
Ni 6.97694125072274 0.27990647049693607 9.008801481621624 -0.4225795736104141 -1.1894473440185065 -0.8570589839822078
Ni 8.899658527861817 5.51836343567849 13.194990904770414 -0.5190977578438222 0.5071138460090686 -0.8224560491963577
Ni 6.64165732798449 8.870316272924297 0.0857322023040526 -0.7873548346178505 0.40392776283718174 0.8632694836682939
Ni 6.263205291784749 6.939712864981397 8.769974168037216 0.989832036782592 0.36878618193904233 0.4592805285758736
P 8.298951018416874 1.3156496900122547 7.337891193841872 -0.18299466796009775 0.4230282311120586 -0.9018113484972341
Ni 1.0582218906211436 5.254895390098123 1.7027408317298802 0.510057759128741 0.9971452826145538 0.7114029045715684
P 3.776095086677437 7.628346620769787 9.943916575515031 0.5541688905153423 0.09595356997918959 0.042316244269707766
Ni 5.550492793623153 7.160990567663437 6.315548913867467 0.010037586741660132 -1.4071794154597894 0.5273126895544467
P 8.807254640621643 6.268834326054919 3.396360983094411 0.9273213198428802 0.9799937105359315 -0.5334391141671587
P 4.940866554555346 2.3783035313168917 4.835345007096298 0.5619932716557676 1.4700912244926616 1.3356883493983382
P 2.371998281890891 4.747578676499161 7.682604662786921 -0.3978370765584116 0.12788178614635398 -0.37534198077968906
Ni 7.837754006054182 0.3444831902703593 11.644397569298462 0.10836042828397467 -0.015451301558063712 -1.8630007818424688
Ni 8.568998454702633 2.422138721891566 2.9424990775639666 -0.46923172625131443 -1.544277835108405 0.0769312632404159
Ni 6.950623687901172 3.2343736425148637 5.761846581991228 -0.03234576332055719 -0.1643091757354525 1.02925733265775
Ni 6.420991874159757 3.4700985906208275 3.4016308922885767 -0.8048761313310654 -1.5554199677681535 -0.16400038624578206
Ni 0.9410447697666401 4.127635587283594 9.439365033620863 0.4477090216881902 0.2623926475734513 -0.48869009208624226
Ni 1.4911092468653562 2.357532760381675 7.8490495405693705 -1.1093839629070121 -0.36712139264210963 -0.5483664249009523
Ni 7.444781620089349 5.036569275190862 10.2967875751305 -0.103702360686673 -0.33934036587409944 -0.14903476607488528
Ni -0.08933441871525474 8.078121079824506 13.03916534634732 1.0246118634659385 -0.15649713589020145 -0.040162945372130825
Ni 3.4179112290673634 2.8764730642268277 12.838039769113337 -0.6974436141779988 -2.1514934689370815 1.1394764114170184
Ni 5.674788449699186 5.152503622245458 4.822826802475025 0.7137845174298675 -0.3971896727823998 1.1158425740481621
Ni 2.9808386492911096 7.907349338848997 6.935039669972039 -0.727713983026766 -0.7757380763145285 -0.7111334529602655
Ni 0.9353974594111785 8.043880834028528 2.1457028799917244 -0.4450271039806529 -0.008520635876501453 0.18641294961302735
Ni 3.451274222769289 5.7171067251945615 5.573601075867314 -0.41645340610801823 0.8375275988174995 1.6950889763574226
Ni 3.2926469404708154 5.099128315147965 10.228792313603066 -1.8351369655526653 -0.21511520264372627 -0.14784665930405505
Ni 3.1155333978987194 1.3185921397443885 4.538860299630303 -1.3728590449113647 1.189414691008358 0.1591281457551453
Ni 5.208318786729534 1.370816053468438 12.259099991056331 0.3162644578912424 -0.21316759199905225 -0.29168394033840084
Ni 7.776647914877853 6.322200495109765 5.4104193931138855 0.40392082085864633 0.702338480376455 0.5187758557280292
Ni 1.9897996482061362 1.9557878534763176 10.315605546352185 0.4292577569615382 1.364158431813573 -0.31409264705090423
Ni 5.323704851225347 3.997582964340344 12.58425987634666 1.9258791665342447 1.5571012121253185 -0.7628514501598475
Ni 7.447824588290592 8.524733776123579 6.40751143364782 0.706619367139996 0.2396646098483163 1.6719989273071785
Ni 5.198139007221469 5.967077881786229 11.021161129513139 0.21226976277513118 0.5655753325800712 0.1516081832290163
Ni 3.004268590636422 6.930848963614411 1.4857406468106094 -0.03719460677242627 0.3368204276657231 -0.035339041620926236
Ni 2.4997024278740216 0.1667637954708084 8.888097076305618 -0.2917399903873169 -0.12229246498403455 -0.295189125278182
Ni 8.507051663602837 4.309436945733282 4.46044584187747 0.2990187834369173 0.6659190612071564 -1.969168830460815
Ni 5.133660978308627 1.1507994006715978 3.0969475329602516 0.4996303931478298 -0.19299831614002888 1.1000475159974346
P 0.521869960317582 7.445759390652511 6.574330971178771 -0.18599848778342806 -0.2858220822409852 -0.4278053407857278
Ni 1.713629723347304 3.921938247313628 11.936442101842582 -1.6874548568509324 1.4870098546248713 -2.3263801630780647
P 2.8507768883052136 3.7418639789241057 1.6165297959911573 0.08752035161017185 1.1479708220412745 -0.15519410080806176
Ni 7.403779222735051 2.4542406657082916 12.549673298734383 0.8244633094343736 0.8126732587779809 0.6581414741442665
P 2.120117274386131 8.710510183124441 0.05179077050261125 0.21097726921595278 0.03066606162528912 1.1593091298722291
P 8.675228200466776 3.289092241881374 10.909939271051279 0.15070006959245014 0.009850924652150777 0.1934821977549829
P 1.2904743825214837 1.1756000484138676 3.3831199592998087 -1.2564598054833134 -1.3842330910762612 0.37950562523907544
Ni 4.481122490973429 0.5737356627698935 1.120272855407108 -1.0721117088191148 0.2517192270200052 -2.913524480078163
Ni 4.691288333797473 3.8780847806536607 6.691036569032722 0.28715185679600225 -0.47316962785313993 -1.2288597843778577
Ni 5.540733364076822 4.208278813637879 9.286014057146408 0.6664610497535555 -0.47869801387053684 0.027114596828604915
Ni 0.026712326263891806 4.5925791971313 6.592105377930241 1.5477395684047601 -1.1993388921006054 -0.5039295347438161
Ni 4.446425343045132 1.2213816420722206 9.77075706399602 0.7780482125049439 0.15776109020428958 0.08647468395447687
Ni 4.838895136664416 5.037629288137842 1.800869702688009 -1.1857374992670868 1.677885982215575 -0.5408338639693331
Ni 5.207203945526675 2.946634955665717 1.2779315051850655 0.2180711999482567 -2.3739116330001244 0.01889709401481907
Ni 3.610952379972096 3.161625685007049 8.545443322173064 -0.9783985981346698 -0.471358285676014 0.7131525402728235
Ni 7.137460107849014 6.848588303711717 12.028818574954814 0.5083091518687504 -0.23172247218310413 0.9635003408665987
Ni 6.635480011155538 5.081930518887482 7.225399147452167 0.29013253669088096 0.586889520676815 0.09636546070562758
Ni 6.784832180167938 1.0585325840711204 4.962281557497133 -0.19149936299699924 0.2593890848604371 -0.39042792857853403
Ni 8.62685140269685 8.482762746248765 4.3436333289245574 1.243294214635633 0.021248882076447272 -0.3230812237027597
Ni 0.6781588175028475 3.4014079240480046 0.42671278082805525 -0.5111201389549843 -1.3235671406547722 0.2707623596943853
Ni 8.927904217681771 0.9910390010849734 0.9523101487410947 1.4254208781684805 -1.46192591507305 -0.8488764481714155
Ni 1.8004137143599548 7.816270467792548 4.750229622670876 0.6416391056138692 0.35039328125415137 0.14235478295154838
Ni 3.312174937606125 5.320013081996211 13.165781151451267 0.012433340667346329 -0.6465056896775511 0.10523345261921876
Ni 3.758924704544893 4.1580835453813245 3.7534592412380943 -0.13033847521696265 -1.213603886660052 -0.1893812882127319
Ni 2.473823491099479 3.4018465500950312 5.820907579223298 -0.7718281997371611 0.2618768842792974 0.01942519860414719
Ni 6.745639115257624 5.686009966068937 2.8166453852167272 0.9496444088201129 1.4594039199821447 0.6549864734550527
Ni 1.811059534042985 5.667806985117353 3.987445219828452 -1.0922457605648286 -0.32109684628287927 -0.719074305073897
Ni 8.830492683071382 1.5780028943897635 9.441090296072499 1.489766591434402 0.33611568828921473 1.6655624276532153
Ni 9.145809982627297 2.167680786360528 5.243586148518965 0.16290561051970653 -0.44115373706817573 0.9291874265173418
Ni 1.9069358774887817 6.961260369541557 12.170280957946332 1.0569614834412377 -0.6657956482554146 0.18378322529966412
Ni 4.479760922619119 8.771077129784633 5.153884380489326 -0.7518057338686471 0.15894354054816498 0.1071761781678864
Ni 3.0743391016488477 0.27950165520770154 11.525765672054654 0.7378649554178389 -1.2670234399317728 0.17858754003133762
P 6.420132898150997 5.744813270498379 0.46279891123860145 0.7072359176780723 0.044427634185755745 0.011190469399180726
Ni 7.281612730595626 0.28146359296387885 2.595619892511727 -0.02394982594737811 -0.5804841313711034 -0.11401094170153268
P 4.572000325091658 6.739827320134527 4.059292166331334 -0.9519817987040381 0.8887982240670177 -1.34093417117831
Ni 4.7927662973855005 8.77231990358454 7.923477984119854 0.968661316242248 -0.4096561806805267 1.0944270844868633
P 4.238973498887062 3.1914157040342417 10.793273880584973 0.12065210116713412 -0.4876032867799666 -0.07431799398728492
P 7.156576893065237 1.8360520806808283 1.238668991150638 -2.8883796053814192 2.2375318366850885 0.11732483656611406
P 7.948424840544464 7.620049278046876 10.09416518651104 -0.05656015578323163 0.16643342116730692 -0.41596746761053527
Ni 7.852119009094288 4.0820458925208145 1.5439600303149472 -0.7628378233130926 0.5399465762683734 -1.3327835170467177
