# total energy = -340897.4647705111 ev
CRYSTAL
PRIMVEC
8.98825684717452 0.00000000000000 0.00000000000000

0.00000000000000 8.98825684717452 0.00000000000000

0.00000000000000 0.00000000000000 13.15522244277165

PRIMCOORD
 96 1
Ni 6.054390991054776 2.0633083057213972 11.225404407194949 0.5641951644030929 -0.7192008033494324 1.4624995281883328
Ni 4.593179051689995 0.21584130522008532 5.942213949379868 0.3323055705145051 1.2621049195842327 -0.20491820750606643
Ni 2.687057383000327 1.4829275680855418 4.857447287548206 0.13421852699765915 1.2059376283640457 0.41171769119524576
Ni 3.343254067763506 4.320331524600836 5.016756950864639 1.0511207083897447 0.03572239310227396 -1.2956925257316911
Ni 5.26168964843473 4.494946391802083 2.7396674484094143 0.03647084123252428 -0.11380653900021044 -0.4357163681026883
Ni 7.2364636234858075 6.079360368780883 2.67667954155952 0.5462995150695946 -0.9791303340943719 -0.917231025486414
Ni 4.992743024849219 4.419804563943823 11.392199490875061 0.19772374664015627 0.22433440724914913 0.07306380986520966
Ni 5.565501720616197 7.844303486014843 12.344189823820624 -0.06236622094204744 -0.5234868880504533 0.4889340897762483
Ni 1.97373133724826 6.500873665340809 0.3477934109465441 0.1447191694186669 -0.7780291863415504 -1.0325694277501183
Ni 2.8401004335915476 1.5474003349787602 0.4498748424479601 -1.2492239498565065 0.11100763609883463 0.36233759810022115
Ni 0.6283978037583908 0.22886798597546537 4.735932345758232 -0.9306074467933197 -1.4715426122272075 0.1675341104306534
Ni 8.700632699377547 2.234211022814336 1.3553302728372325 -0.29780625118605486 0.4626126782729001 -0.013545085674286349
Ni 7.013294192398158 0.5904655619010426 4.749061492642509 -0.7903992778711292 0.14803794937925474 -0.11606885267182591
Ni 0.7699448737478513 7.230126902356613 2.3426426578303285 -0.8548889729140825 0.3189286349869669 1.0658459304150611
Ni 7.573037892143754 3.8649684524770085 3.9969385347173088 0.8458993678209625 0.11741636783865586 -0.5161397036567628
Ni 7.498543218783794 3.598035198441766 12.49993474444225 0.4751820302974784 0.28970804755895263 -0.04218897466322412
Ni 7.583347422831962 8.836687944388371 6.964874452365568 1.3849195756203245 -0.3894192848083616 -0.00919966422139706
Ni 6.699397295951503 0.8678611469921478 0.3027505590391157 0.7773115914492355 -0.4844971370508172 0.07544516561319264
Ni 1.8238251883224141 6.529312510238362 9.071446833949759 0.09536298758304222 0.262277976372458 0.21453696154275312
Ni 9.232018448537879 4.823602006112766 1.2647538101944975 -1.5288597007811218 -0.6411161432308636 -0.0855935669011042
Ni 6.411152884756939 2.014556000182736 7.022547602898167 0.18896862615534551 0.458413552589888 -0.42429938451499827
Ni 3.329079586599334 4.151307353204354 0.39436696300759233 0.05166271848161425 0.36816140387084983 0.012785581800442496
Ni 5.9382627116374636 5.624329862163125 4.77596424443229 -0.1742187215396806 -0.004698176806617715 0.7892199128510473
Ni 5.11546868484643 2.8683774898645247 9.27103826948265 0.12394131344136719 0.2868623505800414 -0.963583130388392
P 0.24601128840059225 5.639618887185482 12.34974187012063 0.4287124259810294 -0.9893620391247092 -0.6596784796140832
P 3.963030335483423 5.965128611573868 12.509038051051682 0.3195755245423464 1.1676145644141311 0.6367637797994389
P 2.3715605768217616 8.29125354966076 1.4306042280722293 1.8818407973671076 1.0448222769755424 0.626672714112024
P 6.221365839873305 7.628171860096215 5.743622906842266 0.32469407671583433 -0.14273479199878644 -1.013115432790565
P 4.645625530823121 0.9836029313618634 12.656770839454067 1.3345982016579532 0.385347171621517 -1.3976784179478896
P 3.955498176183755 6.18236579309376 7.982076386923241 -0.785756379782479 -0.44060840608766694 0.9976769867483075
P 4.670424131667732 1.1198828827957088 3.8830923737321994 0.5662641311169796 -0.07874749051354826 -0.457587971364799
P 0.23719201070985954 5.58298388032724 3.7091938706075434 -0.976403164971196 -1.212161240676254 -0.8411284287948804
Ni 1.559372693197325 0.9692127320315912 2.6183106999412473 -0.33156766390721604 0.8245589544719735 -0.6830654910794559
Ni 1.8691799327449958 6.339094029022528 4.77571437088989 1.0039751610521934 1.0406462912209822 -0.43208725599053327
Ni 5.801101911025375 5.5183583130663685 9.108623163400065 0.4115112316113945 0.4022493466934943 0.15113458602670746
Ni 8.432548948456438 2.3079057413083404 10.22998820976202 0.4308161025875935 0.118832274349576 -0.1917757565868375
Ni 2.2307595321567315 5.239201029618777 6.901506342247922 0.13741183712397625 0.6171676028350661 1.0900783205998645
Ni 0.5292204780680997 0.09150045545419776 9.306912200505124 -0.25333002315055086 0.26446547094208 -0.21972339083969902
Ni 1.5556695313459372 1.1636287292294594 11.323121141135603 -0.1644143338547491 0.1190050524820144 -0.40514595151499905
Ni 4.132180342476797 6.7282226358966515 1.6316292905839946 0.23990629354547716 0.42950046909996353 -0.5405006489996304
Ni 5.550769967522934 7.775318614147361 7.813347030353762 -0.21387284559619296 -0.04462252380538122 1.111678929588776
Ni 5.31320134884809 3.0114076222459243 4.761138114641356 0.3762945745009455 -0.4601523896578656 0.5529275619090736
Ni 0.48466119438301275 7.257810733672814 6.58380741312375 -0.2968534003544823 0.44447920189698287 1.1030271674510488
Ni 4.985813078763247 4.482578550279002 6.973833048038575 0.8124637138703361 0.7144925992404856 -0.3590319307657559
Ni 7.985778649948937 7.348241586553431 9.01039319998923 -0.09275640319813057 -0.7023238250884356 0.17606451649916774
Ni 4.6462007792660565 0.2624373279234357 10.35035804762028 -1.0150836122605291 -0.3391673306313449 0.022541889856257952
Ni 8.06095643083488 7.2499729736378375 4.586845027037875 0.12792832311357324 0.3889549435774334 0.25753737636367907
Ni 7.224014887650438 6.063514071829433 6.97267536054717 -0.18291470665178175 -0.647293218575853 0.005032420217584882
Ni 2.1632127813965845 5.2103217601321035 2.494335672232038 1.6383457580291074 -0.23128435620442103 0.6193381281238236
Ni 2.3166962565769262 5.110695920421462 11.206947021607995 -0.1178115463945455 0.5879264465817616 0.7446786359055626
Ni 1.207536364287785 3.3503547907309734 3.763064988462625 -0.6197880711770487 -0.1575903689543802 0.19260545157698442
Ni 3.6718018229911378 2.760257747363685 2.6039052205742097 -0.6557606326169159 -0.3776006949068787 0.7172809606189001
Ni 1.113743903318772 3.205697783846901 8.174155437321689 -0.9382083990690294 0.3829645303219534 -0.5214451750300761
Ni 3.841706843565863 2.5345985691089616 6.864144854705048 -0.79548774813763 -0.7000728242707298 0.14467571777524116
Ni 4.005769497142039 6.973970568369463 5.952264618268756 -0.22317458261309303 -1.1927776939433201 -0.9434956156098978
Ni 0.7855682619276633 7.507019145060151 11.304901045531357 0.3497263370941138 -0.23085703885901532 -0.12390660354868982
P 0.161998050961458 5.614784333313189 8.040419162596443 0.2038074909403909 -0.053290998113656604 0.2473648067060514
P 8.410294024320427 1.6062015117549253 8.00307205626464 0.07487206671854203 0.19796234501352356 0.5601161092377127
P 1.7749290706730196 3.277163414624536 10.247971015383554 -0.03773968064261887 -0.9595608966028765 0.4183128279142603
P 3.960594517857874 5.9703597771018 3.725282850495855 -0.45265968082524616 1.0194372612435347 0.10253353718955244
P 6.801728600995319 3.946590813575198 10.317311822225102 0.3902530935635666 0.3864450326713861 0.7213227347884416
P 6.064179202841576 7.542864313660479 10.09846214741361 0.9251996455141873 0.3098474986213051 0.4840875603172244
P 2.1780703700867408 8.366727943025092 5.9122731667508415 1.7398991906935777 -0.14633742174838021 -0.5043851342239958
P 6.9773771177424635 3.8446639800928204 1.5451074306382526 0.6808196324680726 0.47758626886359684 0.184402861161534
Ni 5.251928401418692 2.7823868359028046 0.716560919417879 -0.08033951759101647 0.49268584350919664 -0.7465933364297722
Ni 1.3610737690096522 0.9767179265604964 7.1428518264809036 0.024234961287964714 0.32404950115329995 -0.5699482648367862
Ni 6.700071415220567 0.6589425972524969 9.15616654838287 0.5241078094639039 -0.055568224183607524 0.17812242746946097
Ni 2.8663461438004134 1.6679508368011278 9.082036798253897 -0.06615088479546027 -0.595448980211052 0.3622985173321696
Ni 6.493817883657946 1.9932897843080177 2.762938944403173 -0.11050318565859034 -0.15506760253252647 -0.5872456184646532
Ni 3.9979227488501414 6.633711114373971 10.38119406063862 0.061748127742074305 1.1044119636137173 -0.2805718895856394
Ni 8.185614566070074 7.024709278687631 0.4591974625262601 -0.061300498681694425 0.9007713372684938 -0.20333646484124335
Ni 7.699970056379922 3.9045167829287246 8.369510707367786 -0.1786369052120343 -0.33534024357577086 -1.2682447139333834
Ni 3.142069913104242 8.46194953684452 12.306236908972357 -0.5813161403540956 -1.163497199811648 -0.0901117664864319
Ni 0.04566304163496669 4.871086967425587 10.237973377210498 -0.009004003270823202 -0.4579124445837533 -0.24987908848747287
Ni 8.727192998578643 2.3474540717600565 5.74343864757539 -0.04866686907808393 0.24602551906933756 0.7144118666012212
Ni 3.524385421232366 2.6053721041036915 11.492165985523002 0.15310713637204598 0.08658112762535411 -0.37170052737235987
Ni 1.0145944412249355 3.321915945833421 12.407939934857406 -0.018507314775568127 0.2553663368542892 0.29352716419472674
Ni 3.1171634531765817 8.39895084408632 7.965815731327741 0.39690993675845193 -0.28842943795684517 -0.028922596571621155
Ni 5.586399417957161 7.767229182918601 3.454627559269691 -0.4015505208542568 0.5808338014010385 0.8406419760767652
Ni 3.101362097509737 8.459576637017417 3.728847593190662 0.38350214799297827 -1.488364568880553 -0.48954806921116334
Ni 3.2273504947692153 4.238888928641064 8.875500136598271 0.651338078069188 0.5202218441459363 0.6266084365329919
Ni 7.311812181253249 6.20098047317683 11.353745930116306 -0.4704522289219769 -0.5180384633413724 -0.1250116636874105
Ni 0.7492943534722107 0.054459848683397274 0.2489810084872393 -0.6413223457043986 -0.6384807624905455 0.10465315463571655
Ni 4.633491383979982 0.4986307432893894 1.7071531193613911 -0.08513642475902758 -1.2906084263405644 0.6695785123366146
Ni 6.1218478592457135 5.5070420976030245 0.35798789194616604 -0.7877654397927077 0.4194196878251938 0.07345050378066705
Ni 7.739419516005508 8.821758449642848 11.271091717123602 -0.24452630881599174 -0.41557280327527785 -0.10244457702017196
Ni 0.17989996227070415 4.825489540066142 5.86854439800524 -1.0653787609706555 -0.6715261229812887 -0.3240029641860807
Ni 7.985724720407411 8.895237449970752 2.277998215229922 -0.07089868389309079 -0.04505704023963853 0.41701544925907535
P 8.569700760811605 1.6868890941333472 3.5877580254784722 -0.538086383131183 0.5209276119637093 -0.41316110850999166
P 1.7593883744568795 3.109712188189201 1.5210332833014626 -0.14255327211559968 0.5108031219351976 0.4242911569848822
P 4.828195005399317 0.9944158044376394 8.118048041144702 -0.8997683499252762 -0.13926765938579241 -0.12237756849867312
P 8.556847553414798 1.507159908744139 12.303251010023251 -0.5344845247125376 0.7103235554644606 0.4246171728657332
P 6.333116838170166 7.676178140310445 1.4035837301167866 -0.4498384093263672 0.25153924979871517 -0.6024413523684851
P 1.8986883802161287 3.2167533398595394 6.04871850211203 -1.1926823060160363 -1.021345791120157 0.15736128366270963
P 7.016655800486554 3.9191586534527802 6.1756272968802035 -0.7288725221112415 0.9783484616230247 -1.1272760126960841
P 2.4689303640452707 8.50696272750411 10.079203009309316 -0.0944697863448115 -0.28714337215557 0.7749618602701364
