# total energy = -340859.04902165034 ev
CRYSTAL
PRIMVEC
9.39088177198547 0.00000000000000 0.00000000000000

0.00000000000000 9.39088177198547 0.00000000000000

0.00000000000000 0.00000000000000 13.74450471817370

PRIMCOORD
 96 1
Ni 3.1047946016013195 6.192206680752064 5.866938459730147 -1.116206128035168 0.1524324789025246 1.451217013295978
Ni 3.9442831007621284 2.7171296046903706 12.109060495199412 -1.451946692373151 1.2287348287642195 -0.2916803407939751
Ni 3.7382941056495667 7.124599174836447 13.073470262132519 -0.3554120746249814 2.0138160368565448 -0.15647836683712407
Ni 3.7573763777292895 4.367004259914025 4.490591083364212 -0.48734617646383804 0.551188981951412 -0.5572819822230274
Ni 8.593567880579892 8.049901553064435 0.1988124831424218 0.46948600835396564 -1.9586211368519557 -0.6193748948990301
Ni 9.077480026381137 6.597573490099174 6.408196965119009 2.0823454491865108 -1.7411222644674014 -1.0886349032851188
Ni 4.267517256758225 6.562085347289491 1.566323978701363 -0.29506416966454346 -1.2829604228770033 1.7121580160245673
Ni 5.49422938137932 5.862051444774297 6.310198416748954 -1.604341890279837 -1.564730189425486 -0.7620369246783522
Ni 7.087082601530101 7.258813659365679 5.907786917944901 -0.364216817400805 1.200112022821204 -1.543190258471181
Ni 5.227847624581375 4.714363591585716 0.4821776499089591 -0.27620512797651137 0.9601237110848819 0.4542344815115339
Ni 8.096987435056429 1.9075322827095609 1.2522318462631459 -0.6491007040982371 -0.1741636999320291 -0.3764683810746484
Ni 1.462019453115987 7.619254489564464 11.944071151500662 1.094457937724799 3.4861562052843835 -0.7347888875956764
Ni 2.0947676866099147 6.5707625221918855 3.715881826837821 0.963253000742483 -0.010390599205704685 -0.028025538678648508
Ni 6.8955931281159115 4.307973176108346 11.213482136453086 1.6542773416576992 -1.1003596479212145 -0.6131952484508794
Ni 4.117065937373755 0.5895802274427113 2.016332223474348 -1.4700086920811846 -0.49257348630104847 0.3376431806773346
Ni 6.541913732906005 2.0728775408334212 8.36428762010703 -1.6913086833793838 1.2717735530222485 -1.056155956820807
Ni 7.445138147718921 4.929715295981489 4.749056326696012 -0.12355487663622591 0.8977328075524862 0.5127823571487556
Ni 1.6110057949195336 1.713413362355252 11.131661260382115 0.3435271502619374 -3.0232558205677353 -0.12247578463943423
Ni 4.006338048548944 5.763156067180024 8.630655290582082 0.23502891084851782 -0.3472483078672665 -1.2663631806399547
Ni 2.5932826538107503 3.312558473398462 9.903465376416241 0.9330186273379737 -1.308581208768901 -0.3604079851776761
Ni 8.944946509717193 3.1075743026523024 9.543455587697995 0.5274044779373045 0.06819105515394062 0.18864492426733964
Ni 1.1186042918544747 1.0070500054199127 8.428886557808411 0.37644292715335165 0.9845584470884785 1.095321828386991
Ni 5.016252272957201 3.3849527821891043 9.910173283378123 0.5758651445418533 0.12619719935507942 -0.9035352731668762
Ni 0.40625330860120656 0.8623421494232174 4.134856024100048 0.05350902766173365 0.8556489910085587 -0.72416663199514
P 7.424065008670249 9.046443161605799 1.6923749695697188 0.058424976906112286 1.240463172944741 -0.37980258765420394
P 1.6389436686583014 1.1109225504365547 6.252842666279409 1.328353763410138 -0.002407323889911983 -0.9281281320148919
P 5.445537658577468 4.606180631763665 2.871501617280197 -1.360259096759167 -0.7002340324389423 1.1908187704447362
P 8.142937020335014 1.0820361976229584 9.006815518041815 1.991134278988313 -1.357287929945985 1.244708064264024
P 1.5184210899815465 4.734957795656008 8.956826914445568 -1.6905638347935592 1.1107510184578677 -0.7343623415812192
P 5.600459037760141 7.8938250954044955 12.320327165956071 0.4837301769778056 0.16558881377882448 -1.1508424871621148
P 5.054642198282943 1.4064254320963214 13.78505119306761 -0.126264305147589 -0.3194233152351983 -0.8153073539667185
P 8.286664468258321 3.171667071817711 12.614816771455699 0.4606938639836324 -0.8991669688958515 -0.9123248464340481
Ni 2.5748389617021994 4.617947406820698 2.352688258789833 2.7378338019786463 -0.08658575561104442 -1.138798154403071
Ni 9.240524518432393 6.810220620499395 4.0119387705313985 -1.676165399980042 -0.4673363090008145 -0.9136055129186846
Ni 8.883032425159312 1.0807590376806147 6.81921238994641 -0.3649033019448683 0.944822047730805 -0.46866325534235415
Ni 5.405213211574352 1.41543128786623 11.265422165314178 1.7347981220215862 -1.8079874017210666 -0.570969507012449
Ni 1.4757677042600397 1.570728302326063 1.7024222741455532 0.32198387687352287 -0.04490560226343879 0.11711683432036606
Ni 3.4320386641810976 9.037277660843099 11.231624381251716 0.439680752067075 0.017634939472943822 -1.371506130427896
Ni 3.4329307979643526 3.1401794447097826 0.5241586484843498 -0.5089028195886912 0.34263446324433894 1.3849776825517697
Ni 0.6172579737520459 5.803621377412075 12.42456501627975 -1.984042405138538 -0.9448300181506051 3.0618977013096496
Ni 7.466455449697745 8.755053486230935 7.615761081486877 -1.2897687040480885 0.038691245922610785 1.3373001739701487
Ni 6.986759809882621 8.938288374429534 10.357006470970914 0.2849093406187287 0.25581987945194007 -0.160843071563723
Ni 6.043802573628115 1.616828141715512 3.2896926149895456 1.4755756446460007 -2.218149575503735 1.821663613656579
Ni 5.645309889853033 6.941993475727088 10.122195920130066 -0.8934172108962677 -0.7001435296076651 -0.17499622313565347
Ni 8.198681295465544 4.83265114036337 0.15992953651540737 -1.6464028240056292 0.5840636211922458 -0.2681051245771963
Ni 5.620123544519462 3.2357410592192615 5.203394707126458 1.793541401499066 1.6388327249678551 0.8915387629266323
Ni 3.960501153853507 1.8355605636057235 7.364662985028375 -0.2313740877047499 0.5492210595917638 0.04738594548313129
Ni 1.2185420573428671 3.736378365736051 11.982266685570474 -0.31685504028738976 0.24380331460703816 -0.8328170807157076
Ni 4.702718897993759 8.730252167056452 8.859075346270247 0.74994399806956 0.681138192149756 0.7789231589107294
Ni 0.9612788468979785 8.44509803728244 5.386513148389139 0.06350007743617452 -0.5642740972701443 1.1478903465123262
Ni 4.070599853589075 2.562546297257142 2.8804088687898513 -2.0224086636215617 3.0779760949287507 -0.45003355605630885
Ni 4.634296932259083 6.653505582868283 4.155458679964076 0.9860005788516439 0.8203197195796452 -0.9560582827662568
Ni 6.964165347961452 0.21667769692414676 12.96581037443391 -0.7504240230297722 0.16874407157835453 0.556889117659983
Ni 6.946904906975955 8.335374972824033 3.705024089151514 -0.53552505016191 0.7455882922040257 0.5547697573241349
Ni 7.436273155177947 6.701370908060384 11.480455518812558 1.1943589223875108 -0.22622828183775232 0.9062287608386391
Ni 0.6059475955567613 8.50842075412967 2.052397905522663 -1.5520307395809465 -0.4550991435046743 -0.45836958672583
P 7.970210529014961 0.5098863861286593 4.994918067390905 -1.7810972621984424 -1.1366960204584036 -0.3701259837963884
P 8.766407062483092 6.321659988143296 1.704758725569488 0.17407705375549376 -0.15085562133370795 0.7825144758064135
P 4.146111935180144 1.3355148826504608 9.442887694032168 0.06739966960089683 0.7550116424004546 1.3817206090670526
P 4.757345658174739 9.018740059915256 4.25576644620047 -0.24895863355573253 0.8582943990512059 -0.8608621597783819
P 4.3559605827655234 4.112952731088853 7.224290899218299 0.2774503132375222 -0.522390569662481 -0.8712447885642866
P 1.2020986230851924 5.0159329829716155 5.4807177804598775 0.09163463088886155 0.7611468087639149 0.03574990390609972
P 8.11431361221543 6.539584794187613 8.290341937621717 -1.0634445200624203 -0.30869718706694577 1.088663185419893
P 3.8357245056629163 4.986924548692942 10.724136426367725 0.14178605493227192 0.2042108970263967 -0.10857254429478075
Ni 1.4591927976553587 3.2245095644321804 7.0555489591007206 0.9815129753939354 0.21169974920427412 1.0344764149648444
Ni 0.30219106776959864 7.983432890770991 8.096448398433704 0.7772941079477388 1.1837850035264064 0.5892266534504239
Ni 8.692744984632034 1.149500293400877 11.242757271778544 -0.7541058427567335 0.9089397320118991 -0.4185110599679953
Ni 9.239838984051575 3.2941429539356974 5.425437414896641 -1.1975789719867054 -0.3527597246037989 -0.4757602713984516
Ni 5.3106470305493465 5.456121182511448 12.214398017796977 -0.5574398479571302 1.034883934815908 -1.1572316785179102
Ni 0.06630150459510865 0.6903875885977286 13.473078582680767 1.2853736603041865 0.5493002495691314 -0.32369391758609417
Ni 5.3395803377725874 8.484032633760064 1.050870677765194 1.6519862316306775 -0.005112124415584745 -1.3474873989157954
Ni 6.607330616423402 6.706582847530977 0.17471360193622823 -0.2724222638953115 -0.26966038487945815 -0.30237741549650504
Ni 6.234033668863819 5.0801196609563135 8.312841551635403 2.1212989476315727 -0.9665316714937549 0.7713787709045683
Ni 9.449011488138067 5.629213918226731 10.424299652697725 -1.030493004837064 -0.28282931816124834 -3.357504373741224
Ni 3.3367306034837014 8.760115171590664 5.926891728141253 0.7175966920871061 0.4117130632095555 -0.0076456894707158645
Ni 0.9204707694755195 4.046531023205054 0.6445525720786774 0.681364192117633 -1.255867166204637 0.42394868604379893
Ni 3.071860778676325 0.15059781714256248 13.47310581623836 -0.4575113524905927 0.4427941008850761 1.0532256705478893
Ni 2.2661231091683334 8.994774529232455 3.4001153001516635 2.568312485914635 0.5118963549993765 1.382423548671348
Ni 0.7299062979313363 4.3848281538152625 3.3307063527262497 -2.205046205352557 5.219835383210178 0.7955851929474427
Ni 1.848510589785811 2.6877643168983956 4.071575566221497 2.0831874854718317 -1.0943391527587474 0.7402686797633251
Ni 7.733006242370412 4.113938773691399 2.5100080692171716 -0.20959195883265194 -0.48609302078302735 -0.2790693368981839
Ni 3.892877413082796 1.9123404142572078 4.926566533270696 -0.9014483087308606 -2.9941103093520307 1.8199947105945882
Ni 5.777721325051899 2.9001672843684623 1.4716930005910474 1.6167711171821253 -0.9857223854895927 -1.1045140364092203
Ni 6.195887906468231 1.1273941573400166 6.035006134525223 -0.3003336455935989 -0.7631586969876212 -0.10018509156203392
Ni 6.649298467764092 6.257341837811592 2.5382389384721242 0.5317604409131552 1.3082359096143406 -0.08262805651487706
Ni 2.492828389816264 6.610129099238243 10.031660305628986 -1.1386945389456713 -0.04818324457344605 1.3960935899592728
Ni 2.704273487329573 7.807335072838427 8.103526306143591 0.07679808009666128 -0.06363865989656782 -1.6504623387869832
Ni 1.4880697595870263 6.372211105567089 0.8103448361823579 -0.9277566076080862 1.4095471443610175 1.8069988125555525
P 7.398596936878809 3.7713594009215674 6.629070508089032 -0.8295569219071972 -0.4964424823381514 -0.00617373291087969
P 2.690262291491509 5.394873850570526 13.210736783288676 0.09354624608927761 -3.652989175882954 -0.3340302665150957
P 5.172544720901508 7.844494792631472 7.077925552561136 -0.06288558378062718 -0.15526274926246808 -1.0870850422994955
P 8.815577720263322 8.38653649757321 11.69473196722746 -0.22717341935984103 0.41957343979423867 0.4936674906961756
P 1.7796284708366141 8.837496038685604 9.683375032999095 0.22380913087329846 -0.718346168658621 1.9230003023245525
P -0.059729765421196165 2.6623150268708113 2.8639288100926534 -1.2354307527271562 -3.0480227430997697 -0.6567980727424947
P 2.6917178781905036 8.004224303361791 1.47250343370152 0.8313952606675166 1.9253122382871808 0.1738273996385329
P 1.8029835941940309 2.1220106350859362 13.285136045371159 -0.1724444032480772 -0.9831631094028487 0.3048832126374943
