# total energy = -340854.0673461215 ev
CRYSTAL
PRIMVEC
9.38408872949483 0.00000000000000 0.00000000000000
0.00000000000000 9.38408872949483 0.00000000000000
0.00000000000000 0.00000000000000 13.73456241383863
PRIMCOORD
 96 1
Ni 8.685283934459559 9.108440654378335 12.722201670029571 3.1582112257314185 2.642504752957333 -0.03627775138511172
Ni 0.9558069889030902 5.993326661650478 12.27879502471411 1.2845169687308458 1.0942751322900315 0.23199038113251014
Ni 7.760998100108331 3.4446175056125172 1.0813107320087987 -1.153676099956168 1.8863438274437836 1.901035110907371
Ni 6.952793445217226 0.6629295749216516 11.485473534788547 -0.016533478878648946 0.07946971339155345 -0.05591249489690371
Ni 6.34786692367011 8.801168048053174 8.711997620277597 1.0843576160660033 -0.6196016661978555 0.20224888820401943
Ni 0.21917196468203415 1.8834147907182528 8.114627167097602 0.884274110944419 1.6399174733916015 1.9703687643061871
Ni 6.139934282241057 0.8277104220395135 6.909048576488745 -0.11833630854976394 0.12271721122627897 -0.6174727927803108
Ni 1.9720287420231783 3.7684342606351864 5.597919630962221 2.4172758589183725 -3.0789669980871106 0.08101983148749273
Ni 0.6523856126547646 4.825176509544183 4.250902175918535 -3.1765958988861933 0.920544406130363 -2.4511568279365332
Ni 8.989816386831414 5.568386964844278 1.6335061813148215 0.19274943335401643 0.98113810855302 -0.8452848741654151
Ni 1.0248081944463623 6.658930701903263 9.517392678957677 -0.6595093010260706 0.3189561457907926 0.3005863850343533
Ni 1.841073781686396 7.4069458107105195 3.2133109755982368 -0.7525174152236911 0.6999375842444462 1.0579500726067521
Ni 7.685174661948445 7.513305074089745 13.097223644441254 -0.14477547657789902 -5.954904521050435 0.08768387377122963
Ni 3.90730939198768 3.9430909228915954 8.84133664050904 0.7957888243178166 -0.8207706910741347 -0.2988210656038144
Ni 2.4344109534652616 1.7902870926614827 6.988887466280885 -0.8823139018942547 -0.06089657837505641 -1.115078442188628
Ni 6.997433556024971 6.6828788967280195 10.899721522052332 -0.12762519005085762 -2.127434113995033 -0.6836689289914097
Ni 1.8999964757712873 9.426411122028032 9.50842430521394 0.31775081262878174 -3.726280271267621 -1.4923047844752235
Ni 4.453313219449903 8.643139991294206 10.099010062132846 -0.43450409296214204 -0.5332136284199139 -0.7351321298677082
Ni 4.357145076595633 7.6441005049155475 1.633588761296976 0.15514216452420376 0.7025994473473254 -1.4309016987773937
Ni 7.233631073164117 4.956122085792084 3.11961366334638 -0.3377264844197603 -0.4461275361336833 0.7818503598598535
Ni 4.910628022896153 3.5754786250604877 4.4944981087316 0.15821437569162428 1.1790513454961629 -0.7739948683711766
Ni 0.48404444221538534 8.760825849953008 8.039306716101748 -1.0086753947413403 0.17430125395115786 -2.1831182949312145
Ni 1.6997587872247975 4.530497350497559 7.850689344816815 3.6306246921448246 -0.6287229117728333 0.6792651434967591
Ni 4.522793013526115 2.5196278645952024 0.3263382597050405 1.9236158244213648 -0.21258060914733068 -0.22864666147125784
P 3.774505766141306 5.752202497848713 12.909966966044092 -0.34478904769349655 1.3355569660267967 1.4060021073222366
P 7.037475463280939 2.5900366834706503 5.307598442792014 -0.022422333559258156 0.3716313646973213 1.2024486413741808
P 3.720556639163437 1.3276139744640827 8.531264760470627 2.543314678318717 0.06138354531380396 0.4510550553422877
P 7.991780997963042 7.884821152895421 1.532158959807031 -0.6416511897987272 0.20152178023000777 -0.4003418452581364
P 2.5487560764823662 7.581405407100424 8.138895359353205 -0.12817334924484378 0.7088400289403985 -0.9331145294858897
P 8.287586247675407 5.392726205077584 12.813399061003484 -1.259382378446747 0.1009808479904519 0.3900054963291348
P 6.684633721348799 2.3113480118775467 13.48069317566377 -0.25686503288700274 -1.7146573854076532 -1.867433363692526
P 1.188870220355926 8.207070765074935 11.413902027300722 -1.0805549544904618 -0.5240052224477685 -0.10518305899725756
Ni 3.324623161088946 6.387139335637823 9.741650819813309 2.3539896972652166 2.4407292048453066 -1.5509202801255868
Ni 1.5964962731763597 0.5160986130156993 13.462604405936418 -1.516529718460859 -0.9446873219251537 -0.7205115517410559
Ni 8.288318206608137 2.741477109835035 11.34686397315139 -2.1954493056927418 -0.035842206509589886 -0.3319666991178476
Ni 8.71063035852761 7.102009842516773 3.380845114393835 -0.9940792420947202 -1.7198042197159158 0.015428932960560523
Ni 0.3617190900137306 1.895182438175245 1.9450335335387052 0.7077100291010134 -0.4789636088270977 -0.5280549670371099
Ni 1.2946852065800436 1.7057833722865112 4.03554390495781 0.5613800635518009 -0.4922520984058877 1.648762068266425
Ni 7.294627650891749 2.8680403165754282 8.119708651226757 0.2203728514982398 -1.0081254357751412 -0.6938476692966243
Ni 6.052906241957051 8.523802532992317 0.3432737249088951 -1.360561201380618 1.845147812821448 0.3335728672627029
Ni 5.8354956707580135 5.9612799981212685 5.597218639522797 1.0083894880698054 0.42895976610514513 -1.3725088606607976
Ni 7.778996782582423 0.34498162908526875 5.141890447692692 0.8649746392848586 2.3960274910625574 -1.531811584320594
Ni 4.416199147924861 7.451079180718681 6.668541885735362 -0.7534311852872121 0.3638931155127991 0.9721806422494159
Ni 8.990482657141978 4.926946953460515 10.807356750421603 -0.3207196654491186 -0.2378977477558806 -1.9240012327852412
Ni 5.817027783839864 1.6430882744713882 9.51831325807692 -1.123068659482956 -1.0194136070944506 -1.4755221657002457
Ni 2.720522439363374 3.914488219981777 3.2447082601768686 -0.122825197559053 1.9544271533752664 -0.16136731949830918
Ni 3.8065805819371583 5.024879305024447 6.219546077082273 0.7750315371658071 0.5780032739307788 1.43396156864964
Ni 4.5649088044248245 0.6780858168736358 11.81603651130789 0.8778293837603398 0.7765852548061722 0.5856564196006624
Ni 6.386754587993695 8.815469399508084 2.996551660167553 -0.16684094101837074 -1.4207314431126112 0.8533694509457626
Ni 3.00059057202201 8.004355677063815 12.469623287339445 2.135981489344412 -0.9774511466197361 -1.351193644122789
Ni 8.868236131286926 1.725405502137046 13.698316765680412 -0.18845003464771415 0.10717952060199605 -2.6756185047921663
Ni 9.362308410880733 3.832424362715911 6.504372881212553 -3.1802846605916906 -0.34330346428690556 -0.3251473622031691
Ni 5.797471342611496 2.931476757412164 11.300399595465146 -0.41245919734696057 0.8223074394336353 0.8634337771603
Ni 1.0429570223425526 2.6401664862738814 11.8949144703986 2.696047204960163 1.9905956328760235 0.7723316217361408
Ni 5.081850108622053 4.264608576138377 1.6884725435274097 -0.3952711156034483 1.0908139132143084 1.5418381153186609
Ni 3.876801719034983 0.266317627221052 0.1431373845223223 0.08071901241762228 -0.18006386746654796 2.4414550272677373
P 7.073435291873598 4.285319260299128 9.734508589765847 -0.2844596546758198 -0.03864702294823667 1.4634269250986085
P 0.8166099833019729 3.855818896296678 1.9936271609920881 0.9134597313694397 1.9206834812659177 1.6974824162902638
P 5.7671982718808295 8.566697203268163 5.3052768192028115 -0.8916855729171417 0.09689459373622022 -0.6295569776383545
P 1.5038565477414105 9.429320189581196 2.2714496811814593 0.9441345347454773 -0.34170603789279863 -0.6248312900279109
P 8.196419824194802 1.07443125645001 9.477987951336742 -2.2731637269560854 -0.5356726314833679 0.33847904631506864
P 3.3697512445185116 1.7150266998344676 4.9435361457846545 -0.006521603168601672 0.5837759147484978 -0.04571704242114062
P 1.5042788317410634 3.005611059573438 9.680793126601118 -0.39504974362126155 -0.2844817661630068 0.0651581818648878
P 5.773485611431215 8.01199432541309 11.90967845743535 -1.0715545507640643 1.3897097979201163 0.04834779517576835
Ni 4.355784383707863 7.492181490018222 3.8485893942226217 -0.11069601839568677 -0.17218934981447764 2.313148494879139
Ni 7.525082105635618 7.9135176966940515 6.256546601131855 -0.44218603498743203 -2.2543036568267887 1.0403058771624278
Ni 2.5298659055645634 4.659491036258176 10.52228220634486 -3.0708374270014405 -1.1516912083156552 0.4146569763292278
Ni 0.9168029618773789 6.669544106427872 6.7235767517967835 0.6247479862854853 -1.031788840830352 0.9961381815062779
Ni 2.2338729740745746 5.372428420827604 0.6854964318630987 -0.004353391872689277 -0.5546877391332898 0.2996474181598517
Ni 0.2602038933149672 3.9711399645574246 -0.05182926129961178 1.3955140633067193 0.3136285629302921 -1.5093427137941167
Ni 3.146250399635592 1.9875312568548775 2.255201131283707 -0.1243578321534955 -1.6394299922322217 -0.5714143078593514
Ni 2.876551685190653 1.5028993706755307 10.46304514528245 2.100383280524828 3.8257984186696175 2.8408494210109394
Ni 2.4667672919275496 8.893601323532739 5.429973530664739 0.14227302187101948 0.6765418310283251 0.16469381276838088
Ni 3.2196715110418967 3.8029020190957383 12.353401346546107 0.6889304345006652 -1.5340862392873837 1.4449219243158857
Ni 7.800364352964856 2.3610367625033626 3.1980383709441265 -0.26781484703028713 1.0456033781159413 2.7986511903763347
Ni 0.15708495582641113 8.034412913750215 5.16203902492946 0.7702150896137703 1.9204312560457957 0.27153086242929364
Ni 6.0595595609738035 4.356788481218149 13.196236104635409 0.14407536518708092 1.1279154460522962 0.03968137775002198
Ni 7.387098462726836 0.9768648843524446 1.563899702038714 -2.1918299637725993 -0.11365664368590749 -2.480095365347754
Ni 8.859011571916731 0.009780097431959478 2.9577240540128074 0.5468132214812195 -0.6169218053728471 1.3868345332548502
Ni 8.432748718578287 8.30695500712615 10.277958068234616 0.9120877907225775 0.8994870712394315 0.07324892929282223
Ni 5.536049394559753 1.396784093607216 4.290443911237137 -0.6322522650823305 -1.6206228868280477 0.13927485847464402
Ni 4.7925668006821045 2.941508348426139 6.684419764122309 0.11941077256086534 -1.0580248917087456 0.9636039563239986
Ni 7.099344761274519 5.01867642227399 7.277793533847811 1.6099872614910724 0.17770590875733266 0.15607830318522797
Ni 4.816590068217909 5.330763066195192 11.237605026307882 1.501265336102621 -0.39832764304158497 -1.5405363657881015
Ni 6.381405657331426 6.219623965019988 0.9597304764643091 0.1485945932136731 -0.4695222609085398 0.7836344483434697
Ni 0.31723757030807803 0.8224487634038392 11.065305647178423 -0.11964757116201975 -0.7498025873956893 -1.203242855140702
Ni 8.230352689589127 7.175543562989652 8.230381780264658 -0.3123928907509781 -1.9241734966970476 0.9381186675687005
Ni 1.4718755728343695 7.642036005361689 0.2894906963042229 -1.2227981515648103 -0.2654293775172461 1.9674400206951665
P 0.27446583159657534 0.9956236780259112 6.334655064934305 0.25328631439680893 -1.8422110987906273 -3.0715851038007425
P 5.009526935614845 0.8622354234422406 2.21215725399465 0.3093209366938737 -0.6187969109083731 -1.8958738784214058
P 8.08049817424566 5.544701524508195 5.158495592967929 -0.6812418076071558 0.5468597584484388 -0.19328396570124776
P 5.2535977033252985 5.517299984975167 8.115821761612175 -1.9661130743536268 0.714965425111846 -0.790165307483452
P 9.26947161957928 5.058220972819257 8.340079902467805 -3.4860564464817254 1.7977266432250072 0.9665213870811097
P 2.240085240913912 5.830362574140011 5.126452683074272 0.27542068440200307 2.353356177446276 -0.3820227352339743
P 2.4794545800948966 2.2898396801618963 0.028640239265342857 -0.39238685207711776 1.4378009970003882 -0.13882311564920607
P 3.2585685594543627 6.106658303068416 2.425427565179314 0.9958137082873237 -2.3223527870862264 0.1554308994092162
