# total energy = -381169.29909443343 ev
CRYSTAL
PRIMVEC
9.22621024437666 0.00000000000000 0.00000000000000

0.00000000000000 9.22621024437666 0.00000000000000

0.00000000000000 0.00000000000000 13.50349129226630

PRIMCOORD
 96 1
Ni 4.881578722140259 6.307277344130033 10.718085910267686 -1.2927745807539477 1.263176812492173 -0.4983499837735095
Ni 7.989981284375823 1.3084427133986025 11.08536750891051 0.15309582351813633 1.2091957302900271 0.6569484822774299
Ni 8.16630339225889 4.309000101700559 13.386537549883121 -0.3529985800874824 -0.22330210932989283 0.1742907124281966
Ni 7.492743898459336 0.9316627310989499 1.9703624200962102 -1.7334763178863692 -0.698877518411048 0.18819575254506296
Ni 3.3626307911465516 3.716123818273955 2.597248360478419 -0.9933595903198763 -1.0412348167346004 1.5674954108754486
Ni 0.29851865216946005 1.7801696274247287 1.4303975309712431 -0.05039465040246806 -0.5498334963647822 1.4984106402626451
Ni 2.7727714785366375 4.271191091282224 0.11303583993198549 0.6988042419709514 0.4141820935753383 0.14869306646475036
Ni 5.216268732373428 8.69518668001405 10.78694019622449 0.4775782984437969 1.5421589889931893 -1.3271386600561144
Ni 3.474756926728306 2.943557860150548 11.756423009194314 -0.3122990454855912 1.4605390620278522 -1.0408157269193108
Ni 3.5127596875660614 8.232722881278312 12.229652872902518 0.27888370324993905 -0.2530793405923254 0.2449734236557394
Ni 0.737059809833041 5.48916158502192 12.781311061150031 -0.7518676974548342 0.764454018760277 1.5873016469680987
Ni 6.582218415498113 4.276468483658819 6.9404435659646 -1.0615516739150814 1.1666144052843908 0.2382427898001252
Ni 1.2294294471168496 8.674104789139014 5.8530746942299645 -0.09028428750855419 0.8270079302330983 -0.5014039401084848
Ni 6.422586522316552 3.5102778369553898 9.833714888686135 0.23342942757188187 -0.4896925652088276 -0.7629386105570151
Ni 6.757045877288507 0.8378358613209357 9.404317828198154 -1.2139584417859932 -0.3653532449980934 -0.7848204982317709
Ni 9.318103504661273 -0.2713327004616351 9.593798357423005 0.9491335306219654 1.296904029541289 1.1946078051735234
Ni 9.307585624749878 8.723538824722578 1.3961258496388986 -1.8254781023066624 -0.5903232289487124 1.0283913851130289
Ni 5.574134983253465 8.999153409453404 3.500483291943163 0.12402256030126382 -0.6711093471588442 -1.4275901179056574
Ni 4.784943393901693 0.024050885397392974 1.0022746101462139 0.044900460057116225 0.8119443510317564 1.1832748966592073
Ni 6.44319787645871 5.717685591623128 8.948885324445289 -0.4452284213581816 0.5067775457155723 0.5467003500524391
Ni 8.04430521149714 7.779457614359821 11.434351686991688 -0.38505098053733683 2.246824317730608 -1.8961045063749733
Ni 7.853700929839651 5.925791994501598 4.466374341185349 1.2870847294580219 -1.3616577768789067 0.8277075274032841
Ni 4.4405197316452565 3.539746353128197 5.308397979428902 -0.9492224907913459 0.861768216532419 -0.5012692143028336
Ni 1.4653528744978284 4.2301252285755355 11.030259353901062 1.59349054938763 -1.9259637558282505 -0.2589777083546314
P 2.323473482111041 1.3831473394008622 4.798330625262602 1.074791055423491 -0.6112478949165215 -0.4088313707863862
Ni 4.804299983422841 4.904542759946807 1.259753232998241 0.1838215347367673 -0.9269611082899842 -0.7764921808717337
P 4.64774964453111 5.201266914184015 12.53028155940157 0.09784513057494762 -0.3726767752427001 0.38558679843614885
Ni 4.0519947834445444 4.473042123476548 9.622831396462638 1.765056920906128 1.305377871340255 0.23483145012573103
P 7.81265351955386 0.7582911653173439 5.065713585031194 -2.073350958997384 0.006303573620524628 1.9678850786523847
P 1.1094979374955856 1.893762730467809 11.279574625748175 -2.138409382059614 1.557442654625137 0.5058966857725158
P 4.970021175500474 1.9576542378243178 10.37114072469565 -0.356138925488677 -0.31677250787591255 -0.02499755048560211
Ni 6.713922569651783 0.9316442786780528 13.144312620765753 2.4500458542605417 -0.6953533073078734 0.27662473201243326
Ni 4.214080848605432 7.071235247904903 0.9201696407431372 0.6662959849306009 -0.10602560950321094 -0.08321735335944377
Ni 7.593374175822143 2.34027441133793 7.894343309486749 0.09373393662005149 0.29475640861613756 -1.7756112993832063
Ni 2.4788244136444555 6.5292046102604955 6.154824365298523 -1.8865019502882026 -1.1968698617348226 0.7019916385599974
Ni 6.398127838417332 2.6353839787466344 5.4402866577915425 2.4351946481803224 -2.3634930087699617 -0.9243848629223758
Ni 8.167161429830609 3.0849679876961367 3.0168554890593966 -0.5948108324064207 0.25191617352215967 -0.038233332449585766
Ni 7.914935288586965 8.19652845768848 3.5839620440820354 -0.45179270483926065 -0.5322916308262767 -0.4668313443399379
Ni 8.468295712662243 3.82024160318633 11.031205040472043 -0.5550893454470828 0.3313974568779389 0.2044430676418608
Ni 1.1477221273841074 8.155093546563847 11.708836983563605 0.3711896491742124 -0.5037760398850872 0.4787188398061432
Ni 0.8629846657617113 4.116375279954829 1.7796520370185624 -0.6781225452518836 1.3081135251038634 -1.6574950772640487
Ni 6.512246835455981 7.7983344409376425 5.544749502974695 1.150154974176787 0.7397675717571904 0.7580637989632171
Ni 4.168291166149063 0.5048462416734414 8.727644488372201 -0.22363763829244065 -0.621432034538375 0.07556060814513438
Ni 4.291507206690026 8.005462865508562 5.92768152240147 1.4728780432091795 0.10746105639815685 -1.0595714102602591
Ni 2.6349872516973454 0.4938864262815575 2.6426200956014663 0.5178255759996179 0.14360048243319143 0.29532179420130433
Ni 0.9694163842545936 2.901329494927336 13.30318058372217 0.18830939530479182 0.8192966776317697 -3.2701169481644907
Ni 0.512902568637153 6.1052510139371865 10.429975346105284 -1.5981722711340154 1.4215094589292163 -0.5795346229736407
Ni 2.6633024915640777 5.804162862157792 2.0697748376798026 -1.292623142777748 0.9043724243561909 0.0891630294199174
Ni 1.5664444623830651 0.9181407970654917 8.08584991452611 0.17824506909025434 -1.433145757616564 -0.07985846418953989
Ni 8.61792639371753 4.638541886503415 8.429028038371987 -0.13110646373123871 -0.46582732855545583 0.7076912600479361
Ni 6.247168583057448 3.536932358941376 12.194192855664394 -0.882600579896738 -0.46337501036022133 0.31684681275727367
Ni 2.6835724759196373 0.8252153280483049 10.681694045774254 1.7388514661553538 -1.6815289782848009 -2.282683236410746
Ni 2.317817815106054 7.536125539988622 9.578850051254193 -0.2547544143019032 1.343855972810795 1.1215360248885138
Ni 3.2808681141511182 1.7573532089853574 6.813767696505414 -0.5683102150127309 0.12125373930687504 -1.1097907114271275
Ni 0.11414759829104099 0.6701208851653621 3.745584953478403 1.649210211547437 0.3915849250011127 -1.0143117670915112
Ni 5.761897592092787 7.628876633628329 12.68042706299989 1.0019779281165067 -0.29753191447874566 1.246645133385737
P 4.789030605130419 5.8259459450269215 6.5519481416373235 0.7855391215653504 -0.7306108449585869 -0.59673684578454
Ni 5.031200176985096 2.6321179002478328 7.900001744354872 0.796145693436603 1.0213064532417895 1.2130760391810398
P 5.48759312924566 4.51474459470419 3.501644871838641 0.24985671988996971 0.5975889093721901 -0.039675464212751026
Ni 2.6138592297700667 2.9700739889798045 9.368668673645836 -1.6270570724891658 -2.3187804963539356 -1.5517175792159017
P 6.50287300564021 7.869874476756036 1.4757286707683166 0.603420942672935 -0.07538191647542501 -0.08169268918480124
P 3.653920707429539 2.3031204618614445 1.0054253610144084 0.08526755102025314 -0.8373892734674224 -0.21304109372351698
P 2.8560103492038458 8.360838039567478 7.293033347089086 -1.5141180236955731 1.348569833346697 2.9775585756409364
Ni 2.257884352031992 0.7904509670780054 12.871879233397602 0.29117023392677593 1.8159390524679757 2.179236443378305
Ni 7.7318503684450794 6.2831600300174095 7.072494625631136 0.41271733610435374 1.281387936183561 -1.264526641651848
Ni 5.358213980125037 2.4762503009292973 3.0010832822975266 0.35828553951803455 -1.3493913008067278 -0.09932634310616442
Ni 3.606488759513321 5.715093026487073 4.353971419290137 0.9750402231853982 -0.7087811506780052 -0.19500043417172222
Ni 4.718339380673298 1.4299611312170246 12.785119640823211 -1.3773268508747312 -0.02410820590211332 -1.1272078784623103
Ni 1.7272757629229432 5.352927361537993 8.49631571379462 0.45088124876858476 -1.2914046969896145 0.7942124809696322
Ni 5.944511975501793 0.6852444893326962 7.050915442012921 0.31516325440726367 0.905830496958956 -2.371306848387426
Ni 6.081908701502245 8.08936602332807 8.191177255628297 0.3589074893727496 -2.1150668506789314 1.0973702262755876
Ni 0.9201677955010477 5.017019491525608 3.8185984151054355 -0.2345010633695058 1.8159598784035822 0.5682351388004213
Ni 6.985163930629976 5.18883920870976 1.713255613525261 1.423204330133136 1.409096172866528 1.2145821914129211
Ni 0.610148672007416 7.234050183691228 7.827299206019957 0.6279387253086411 -0.1252304645664359 -0.22940899355857908
Ni 6.598493450729432 3.0778914842820657 1.0904107533195357 -0.17198571844410382 -1.4889505232910099 -0.6440119767214199
Ni 2.0728803801167994 8.199074891772293 0.7169217602868964 1.4870188534859359 -1.4357942509830046 -0.15893634145931337
Ni 4.518490436146318 1.0342581912873072 4.882902683339632 -0.81952576292344 0.920628481203737 0.7041531649876905
Ni 6.902331013222505 5.829599524364564 11.50355656894554 1.0034722532738458 -1.7321527139789394 0.27407933988276023
Ni 8.06962193296808 6.9162533647894335 -0.08600488855969689 0.013728919550318292 -0.48152802712016424 2.682444269464748
Ni 3.915926631748691 6.648195046416004 8.34888456131028 1.5203503777585299 -0.6286239243011238 -0.5065286629295599
Ni -0.11742382562133645 0.6533494798119093 12.838174964007846 0.22592052078934638 -0.5866905172921315 0.8755740120672598
Ni 1.1850790534904618 7.706958052654775 3.455799832119581 0.5200706632800527 -0.7935699622896268 0.08924813293455597
Ni 6.095480457072125 6.692305558570728 3.5176726446299376 -2.8991157608520006 -0.37219469339995903 -1.9163375455923963
Ni 0.5581331427403368 1.890201413234652 5.903307719638376 -0.2383654314209185 -1.0940092802231545 1.254444831935814
Ni 3.298176484952679 4.2546392697374475 7.2510236430535056 0.8062712119063792 0.4200223544061992 0.7492778252404709
Ni 1.2665649441724378 2.57179693633493 3.407430501221786 0.7975621141681554 1.1557154989837 0.5612250260311753
Ni 8.700676275230963 3.7027734917548405 5.24950892337762 -0.9313610371298927 1.0308383039916247 0.6293389480902775
Ni 9.371338738949659 2.2520441608180324 9.30424296870435 -0.2578860179523494 0.1625150599495072 1.7530812366014905
P 0.2673866502527717 6.71072107462612 5.531827272620396 0.48619689335074334 -0.41034317944522236 0.1273174290024517
Ni 2.65515574773797 6.152018674701106 11.885192305804287 1.0903074058915352 -0.14058920641069336 -0.671741067205572
P 0.9146431406844299 3.28118180530637 7.642813747131975 0.9846754322823169 0.6345629154933781 -1.0220441027387623
Ni 2.0141186457697087 3.86136282315571 5.4122537399645365 -0.28287097003246126 -0.8890761603187527 0.18362176002113537
P 3.66348828766473 7.463192346392491 3.1233979220776624 0.12441593908494057 1.822527504318771 -0.4974788940224658
P 0.718399799200761 6.603383342267186 1.5159697102609009 -0.7411755078483107 -0.7918802332920297 -0.663339216295122
P 8.099819319766326 7.3751189414502205 9.210798986659956 -1.9299937029232501 -1.7437121366817647 -0.7333341574270209
Ni 8.407485759595566 -0.20508297371446613 7.4081367807826 -1.500731575086338 1.161950167039502 -1.2453539253781392
