# total energy = -340856.0312993161 ev
CRYSTAL
PRIMVEC
9.36378053725866 0.00000000000000 0.00000000000000

0.00000000000000 9.36378053725866 0.00000000000000

0.00000000000000 0.00000000000000 13.70483932171898

PRIMCOORD
 96 1
Ni 1.4168804686687384 0.7586366532511488 11.782022882177818 -2.2187008200215144 -1.0811679054841123 -1.4189949200374787
Ni 5.45724881645584 9.40647948720132 9.760915439512429 0.6663024126885041 -1.89296673207694 -0.9310031395698418
Ni 4.66297548681663 8.972383980166235 1.2711407139157134 -1.4952705519717668 1.331890315808487 0.880918821318941
Ni 6.237925936594954 5.7909365036083305 3.2252418786460226 0.5017271277758585 0.14342204787379814 0.3411175123791803
Ni 1.8920080625009459 3.45818464981261 6.627317818441054 -1.1274395348571422 0.17762106235301023 1.7485391257567626
Ni 3.6411341961024677 6.782242505631162 9.261017836733524 -1.5265431368328033 0.09470169984995948 -0.7550396674249125
Ni 7.359472763643152 5.1740787258963366 0.45727741878397543 -0.08159035927898206 -0.11012857592799098 -0.6798788658213581
Ni 4.206041718782416 1.3102831897781795 8.059925693085248 -1.1629585536993583 -1.2278197731491178 -1.319198322163115
Ni 6.309437129399521 5.5944001115990245 11.754476512269152 0.04660587278399716 -0.5331611779154237 1.613103438522551
Ni 7.938135680094202 4.196977579115686 2.664727841845858 0.8960849875364181 -0.4198038106374899 0.2195706673119186
Ni 5.090057522146776 1.2668446113546639 3.0065133265022626 -0.6394480114998213 -0.5642620130852862 0.26240113221388356
Ni 2.1326104062371467 0.699381712936027 1.4081581069956397 -0.3736064861458211 2.8089196621818786 0.8808141774202766
Ni 7.745260526318049 2.1121037266192335 5.610542333057161 -1.1341588558588467 0.975103986543798 -1.402535746040191
Ni 5.4625487163022965 8.85777130504146 12.847972261631789 0.24386630663448966 1.15793898899758 -0.018665951840619466
Ni 7.910671711455235 1.7343500877398477 7.939281806845451 -0.8055680151917675 -1.4588606458841649 2.932315901753053
Ni 3.263155826487543 3.31007773131191 2.3205030923307928 1.192672021603391 -1.4584058177349335 0.920820285499569
Ni 6.377951912396906 8.776343868531244 6.488487597427781 0.5787674057903129 0.538948216910846 -0.1568750880549105
Ni 5.5886975691847285 2.284135104674166 11.909861897467113 -0.13151166958945737 0.27625037939215 -0.015332516592012305
Ni 6.128144972284263 4.825493263733754 5.528888293055277 0.24376500516993505 -1.0592122271486275 -0.9444011581433025
Ni 5.609550708686597 6.847508056743881 7.235812803656812 -0.07821527215916206 0.7672999728495044 0.10489303856066452
Ni 8.821786296013313 6.998274288948456 0.8402111011175298 1.9203885757333183 0.625073230835388 0.7133579714154101
Ni 4.424367628358335 7.084598982737289 11.633750224759657 -0.18020090726504448 -1.2841703840247045 -0.9059698507502979
Ni 3.3491808792956568 8.513643002467063 5.895301457192537 -0.20182465618240725 0.6108573443463221 -5.409542430193445
Ni 0.19572455222717225 1.4622105307830386 6.540209376212031 2.315924257852063 -0.9298723683995083 0.6529195636236947
P 7.186139820078225 1.2957037833101015 12.893540163774533 0.23068194673373174 -0.48914826266958344 0.594519269307931
P 7.763679082851581 0.0745216482827225 9.825575154017256 0.4577026425657924 -2.524710432953968 -2.094843067432889
P 0.5554248220182764 9.26644414761872 13.849014722771836 0.01909635450981873 -0.0809637814385767 -0.058936369324892046
P 3.9593622814060203 9.032874003148756 11.154587777846466 -0.8113925922933446 -0.8907268085482983 0.3602881717703601
P 1.7226453619305364 2.446250239023449 10.592456616128487 -0.956918830994339 1.7460600680886507 0.6905060065179011
P 7.86062230389462 4.0914009523156984 12.055777691296312 0.0991713055855389 -0.7298120032063754 0.15052934834254075
P 2.1553082105265626 2.024814563423714 3.603413142142285 1.3423374792837397 -0.024310037500274263 -0.8889715164200884
P 4.1075160188099575 5.120967362064006 3.0227529312791335 0.3784417027509353 1.2724060443999248 0.4217917876017962
Ni 7.91891183842499 8.987384756763447 4.590586907765396 -0.7872512191604507 -0.05456986482608021 -0.039498572315254554
Ni 2.711048591952658 9.25133100565374 3.497200714636336 0.9163200836363703 -0.524263875425794 0.9181435099983543
Ni 7.528526459452196 1.7377397763342242 3.2856663551640106 0.22266807529031976 -0.09354444631706471 -1.5866331601461643
Ni 5.183620418376087 4.804892946309367 7.662019325496422 -2.9540234686334736 -0.03094116966354671 1.7467624934723145
Ni 0.31999409433366155 1.4900584144285518 4.168546331935836 -1.2566780921417067 -0.3551436514549432 0.05914334312937557
Ni 1.9405967202805585 7.867813687431861 7.630594477643584 -0.34770879244345276 -2.3064834241541377 -0.8105071043645978
Ni 5.511343377256153 1.3386835364818923 5.644338090169935 -0.5551641645490761 0.04549824154211519 -0.8907651179854014
Ni 7.061498535880032 2.7613508215907543 0.8018907651959097 1.0568830647948184 -0.3747542265970191 -1.096075418723564
Ni 6.9408181308957095 0.34217033604101493 1.2816262754847267 0.7366729919922668 -0.6114659244645986 -0.2931805794885854
Ni 1.5071285865488515 4.577334349015062 2.974923676110029 -1.7012665659230444 -0.4401471501805323 0.5238843805991881
Ni 2.5743842134031407 4.934600035837829 5.241251679126941 -1.9843074858744667 3.613564137118112 -2.0270777869624577
Ni 0.14201109729921083 2.283414093564312 1.4762028282045216 -0.3043049715365211 0.37077595867556146 0.171292291921505
Ni 2.334287513821902 7.873272771549323 1.204818928345962 -0.97741900783022 0.2111135376835009 2.0578420647285074
Ni 4.876759962778537 4.8926596623179055 0.1260130780630443 -0.6117443749369659 -1.6529899903048435 -1.0766563907670037
Ni 0.38484389358563403 6.559253433292812 6.095089890220703 0.9559119869963796 -0.14650942854987026 -0.15037919591792165
Ni 2.3273021334589052 1.4196240563984408 5.735296919001189 1.2059517694314328 -1.211790744710713 -0.5855579463495851
Ni 3.3500236195539275 3.0268889131911116 12.273588592936623 -0.03179503302340976 0.43173758596059836 -0.747324558168842
Ni 5.255496798625905 6.749384999339264 1.2473267469731213 1.825662707513643 0.312940535724332 1.3484675034408777
Ni 7.084879896156712 4.002903861416658 9.918206354072147 0.3037087327134189 1.379954261195249 -0.214664745369869
Ni 1.4630439072606616 7.564595742506169 12.760316038234889 -0.2841596069368977 -0.7914917396043595 -1.309796569233241
Ni 0.9217003385800192 8.64084059878201 5.170356623088975 0.2792050911450998 0.18890691967947468 1.2353253374975435
Ni 2.277243362117643 3.214782535662822 0.47044757626461237 -2.0292609106567054 -0.19326802486164776 -1.0917078857834877
Ni 2.287627794855664 9.199820848312122 9.461081564912725 2.619355054313747 -0.5653994691238392 1.7320470416390106
Ni 0.7190887256866481 5.523853388201144 8.053415992779142 2.586718242115332 -0.5492326295559896 2.3246909483011
P 4.050977511260661 1.8005707444786065 0.6366537463787665 0.32146425692462705 -0.03418718740467015 -0.07052407416249144
P 9.29566850701941 4.322246236617257 4.5573932417482546 0.01187541128134729 -1.6809985597026276 1.0367664965506016
P 0.5230158408193908 4.60101535027246 0.7625628864766241 -0.5998105996138573 -0.20320456724906938 1.218613166949185
P 6.102226027452124 3.038921371323083 4.1762620871893334 0.6506675343647246 0.19830455884429074 1.7713345263847236
P 9.258616026997455 3.489188127536314 8.058116610664161 -0.09553627993611288 -0.12929229334063538 -0.12622573860016972
P 4.618806533502613 5.1785265217038745 10.455819392542846 -1.0277455239989137 -2.3301892524115098 -0.09575019571913188
P 1.2710957677686057 6.205929898122621 10.52925016038014 -0.4815899907063512 0.18608744795280854 0.3508738204349957
P 4.415659312356208 2.8486212572249783 6.586641555308535 -0.3477897821930333 1.4106779155313511 2.6451792144657027
Ni 6.7820458662375644 3.5361287599219753 7.332143633445507 1.334514640805211 -2.1730431700833996 0.06472777919568853
Ni 0.34338107287873004 2.6572443083524164 12.50496667635702 -0.9534347291004805 0.8198517788042913 0.44739046200650695
Ni 2.98589428151658 0.16822219208754993 13.01569161869857 2.702601204028597 -0.35999120935523166 1.4473786133864943
Ni 1.5076061393618714 4.9031377328624 12.584372472625454 -0.008185364024269774 0.6836370473122096 -0.7684119749667605
Ni 9.280452363467305 6.185498128749887 3.739378982655502 -0.7571189185514444 2.26306006286318 -0.8475906394804564
Ni 6.96452722349505 8.084875486620374 11.268215383247128 0.8001257611302736 -0.6712258181320504 0.23003531428866836
Ni 8.696255452653611 6.124268367096219 11.842598115564229 1.1587517147068624 0.06667590406099484 3.0578286734465983
Ni 0.3015165459820505 8.577101343914824 2.9684411307677996 -0.008434761030914506 -0.028804068715885877 -1.9604715597971332
Ni 5.523450745633304 3.4740000753261513 2.2652727049379444 0.46411651651193614 1.4410999794666344 -1.1132215914855472
Ni 3.531896331069328 1.5119696611435824 10.48144712379685 2.0056574123051525 1.6227718148502503 -0.8604867787168342
Ni 0.4544214656865035 -0.07390738427224984 8.48045870023057 -3.861233876659092 0.9601100842381273 -0.6346673022817263
Ni 2.716526403631416 5.67490989760579 1.345672662357148 0.5662672164407732 -0.9307138904641971 -0.9457872398575519
Ni 5.945569977220303 6.5459568647734345 9.695063715731179 0.6399938567009623 0.962305292117233 -2.122963736928505
Ni 3.7093867932417233 3.192112822715348 4.685368968235004 1.6332485460118582 -1.1111006884878025 -1.3235044057376368
Ni 8.15383036730819 6.4938848805929705 9.826342047652284 0.7847395084821904 -0.4895768655665698 -2.7230088211506716
Ni 1.844543058399027 2.072120383254626 8.48988802734255 -0.7910294552559601 -0.6487474345238762 -0.08105762670396363
Ni 7.934839629306301 5.5008933980535994 7.62990904890019 -1.78963872401055 -0.4198056104097028 0.750193909296837
Ni 0.1408490521208624 8.246925074505127 10.649729244080541 0.6689367649875575 0.04895380419088343 0.225603760879876
Ni 7.552338553638659 6.585603112034733 5.75560789560357 -0.8936372973268739 1.6657470328601958 -1.7714121737001944
Ni 3.6597119369070064 3.6217324426009534 9.055267484567128 0.12010162798030286 -0.025794335355284612 0.8290481005915786
Ni 5.782996017619294 2.1905066619803235 9.388623693884702 0.06675329426614955 1.346350971318507 -0.14360459619824947
Ni 7.761413047934898 1.7992129962847268 10.708509440716838 0.9844648589334077 2.69043422964876 2.243315533246401
Ni 4.460324546044539 6.288256257574992 5.039283357964049 -0.21948145003222203 1.4230276953459557 -0.7590644723135895
Ni 0.2432625938181411 3.9875566249354892 10.406906747952831 -0.18336079305026484 1.0837757754206045 -0.7935949019902914
P 4.060041650927391 8.369824695502894 7.629483933258796 2.5050654050295305 0.6827448745152435 4.967521460028967
P 7.629655290444645 7.506137659924145 2.8052294977047 0.3135632569099954 0.23381046506038441 0.24954253108366056
P 3.0777155145454644 5.676520467877152 7.138179471980056 -0.5127664163091556 0.28277121122980337 0.8916400643911869
P 5.245449461991193 8.801672895182593 4.295357204110043 -0.4365360357905062 -0.31369772560533077 0.4820119087351183
P 8.596475006074396 8.587270409697954 6.836946648551622 0.2636910546699007 -0.32365766503152 -1.3352823722091713
P 3.7716746621085537 7.145173279745635 13.585443025107445 -1.0260473103608845 -0.3253723337297815 0.12246190068236328
P 2.023578544378251 7.017198489636951 3.660014387021919 -0.310809091203626 0.5486849845826357 -0.31067333695671007
P 7.068371550875259 7.557451177872165 13.599189055097897 -0.784576500541765 -0.8409654208544548 -0.9301549326369335
