# total energy = -340893.2958663646 ev
CRYSTAL
PRIMVEC
9.05169778532346 0.00000000000000 0.00000000000000
0.00000000000000 9.05169778532346 0.00000000000000
0.00000000000000 0.00000000000000 13.24807466845811
PRIMCOORD
 96 1
Ni 6.6031140199347504 1.8984850056862743 11.505979743158386 0.19835161003214227 0.4278235956181728 -0.010691675385891265
Ni 4.516199819904241 0.47928106547971394 5.882728309586381 0.824230110377645 -0.4765879095060695 0.9791766139512749
Ni 2.754648899438679 1.5480847298415474 4.765901767399986 -0.23573056490123273 1.0888886711671375 -0.6370468582574964
Ni 3.342457106746182 4.090733813709475 4.6639850805190965 -0.2375323939966619 0.8611220983079879 -0.11092330391514443
Ni 5.067556839930951 4.6007788847047655 2.6380494534596592 1.1518182208118228 0.7805810062291266 0.725332370168467
Ni 7.297958554432557 6.301140327639125 2.5048926417557755 0.19504748535957375 -0.9735996340841298 0.8385223586306011
Ni 4.993622571813369 4.569260872757481 11.312266167603688 0.8423479030242783 0.1402747604940681 0.4396095325095074
Ni 5.566839442171124 7.812475164170512 12.483926085084244 -0.5072249176656362 0.3472871315250019 -0.2941581129105063
Ni 1.5557605696265264 6.577434353106936 0.5581132073091504 1.9801099028533513 1.6838751099194744 -0.712833723480824
Ni 2.9380544014708114 1.6144698819441854 0.2505039279261102 -0.7798135319354828 -0.746276833630618 1.2575802922410018
Ni 0.5296782036528608 0.4148302612096819 4.806467856527772 0.2802587292205947 -1.518246701151966 -0.06732639316080018
Ni 8.557565673487211 2.3995779474983756 1.4889382205172672 1.0658163627287065 -0.038999264081332835 -0.22647176530712607
Ni 6.850080544337311 0.5956768482568922 5.053199941955769 -0.40371410416447895 0.9825409024378176 -1.9379713218120884
Ni 0.918321902954589 7.765107629270989 2.7578115626708395 -0.2630212822963857 -1.1739603041265005 0.018024718712194764
Ni 7.214891123174593 3.591071040159198 3.9358176255207913 0.8812345527871468 -0.22348234366149897 -2.2298182700909144
Ni 7.895343458075565 3.911166231569833 12.713673564648403 -1.159448740773887 -0.33588454611501506 -0.7619600486938297
Ni 8.262480323262777 8.88826040309149 6.856448413781571 -0.09785875742170244 -0.4908688449051159 0.7930020056012989
Ni 6.876457191900317 0.5903055707469788 0.3619828284259291 -0.14368198640340415 0.2212205442105158 -0.39068786710814
Ni 1.8333851946797057 6.311495469990559 9.139741009216657 0.7318539733370687 0.5596651377432232 -0.5032790456440106
Ni 0.09064641787584538 5.109140339898162 1.3836289572785827 -0.9334217763136635 -2.057964192128669 0.380032701387139
Ni 6.521078482232785 1.886681591677297 7.039497278918033 -0.36137394863537114 0.15627653523896312 1.0657919372486742
Ni 3.6061421170955077 4.3886885521554175 0.6332649287888551 -0.6765863111130155 0.04309965940295158 -0.9541836914513633
Ni 6.253709430854583 5.638012942441514 4.651823219274877 -1.1365019021697267 0.7570471847732446 0.9599391058779015
Ni 5.335052615079188 2.773340655518847 9.50848726628331 -0.049346668753927916 -0.10805523833873004 -0.2743197380283405
P 0.383266085603313 5.48145477626109 12.411670906919626 -0.8838200541261358 0.07644969561830704 -0.5317671257813746
P 4.112919525163465 6.135349429641862 12.519841411851745 -0.3863079928728895 0.4109913545521825 0.19069383637656837
P 2.5011379974835948 8.402274745007137 1.4574473636635616 -0.2934065794564625 0.9016534827631311 -0.7919645654757199
P 6.384325430969264 7.907825749424015 6.0432284901846804 -0.8749021828112159 -0.9138561954769101 -0.2971405925775979
P 4.836457941876349 1.1996124656409246 12.533075899292331 0.13201149204401136 -1.0189487516428903 0.48734797623605103
P 3.9156649254060767 6.336704448529671 8.169836195669307 0.5901530219194352 -1.441511613082756 -0.4050086546061863
P 4.767610727955887 1.1727198712999187 3.709752376645937 0.17119356156011162 -1.0146028159693687 0.5782071624114687
P 0.3132104700185886 5.711358850198219 3.4579459093978238 -0.49375079443860126 0.006136451915041044 0.46160043495830183
Ni 1.4813465615223829 1.075242137049399 2.616997919747482 0.19703623365482842 0.9937704526050499 -0.9197087976029451
Ni 1.7780521656636943 6.487170822050554 4.832977564049315 1.2246583447020005 -0.124088894762825 -0.5268709740313378
Ni 5.862549359547874 5.56082911479232 9.165706709696835 -0.15325857434824575 -0.08587407425600048 0.06219987056751223
Ni 8.543354507847567 2.386516347486907 10.166002598807943 1.3897859025736905 0.2839004397382401 0.40065937649855515
Ni 2.5679214242920576 5.055445668194746 6.977495864088821 -1.002278490076061 -0.18868631902823635 -0.3534300111979462
Ni 0.5280090705675422 -0.27179261612220984 9.05900710566691 0.2631516372266629 0.821332734225192 -0.05281303003597356
Ni 1.406561433805994 1.056459863990635 11.447409826987764 -0.11137273274773722 0.9245393862223691 -0.013947206208711465
Ni 4.1782456286165255 6.6834749935326805 1.576256329090121 -1.35659424631307 1.8741490851498044 0.6979984582402043
Ni 5.881422149585235 7.864685357424946 8.335728472682597 -1.7809537946420422 0.34929747708681136 -1.55154634374536
Ni 5.232524033422986 2.820518104763318 5.132794236744987 -0.7014748468245791 -0.7507230423274297 -0.5502926953893877
Ni 1.0981157775407224 7.25960651060124 6.908685762129584 -0.8220161334454618 0.5323268549395864 0.7360253311059388
Ni 5.030978928880125 4.6012043145041694 6.867987518213047 -0.21691240375346513 0.8176180043777661 0.6479506496541938
Ni 8.098861832751828 6.977555605294695 9.144404443953945 0.3943450042447531 0.0007811011403986548 0.46211954068656547
Ni 4.558362628534469 0.363312522841511 10.383019770502296 0.2694832358716455 0.08281137617027673 0.12629901504026636
Ni 8.164061212434852 7.302710695808871 4.774738940020358 0.1972655760568151 0.48133982236875816 -0.2817304286701148
Ni 7.272695265706288 6.265938274662965 7.047922599285791 -0.1692094412505473 -0.6529740710107141 -0.38779820426517086
Ni 2.388607289692485 5.280172170956159 2.561568037564373 -0.7815593109819959 -0.5676910933714933 0.666614287501968
Ni 2.4548204595357905 5.2599416262398515 11.483987738038593 -0.5176008615833214 -0.6512910268813363 -0.21277318477411097
Ni 0.7052340733011084 3.3723458130787303 3.7646925619748397 0.923421727678158 0.24445226104494674 -0.5521253777227523
Ni 3.858892676430382 2.7401480794675277 2.5438819251164118 -0.9838665632277765 -0.9789482999905528 -0.24435558756608242
Ni 1.0613749359284224 3.24146731372612 8.159926396852567 -0.2819949951854111 0.8098537870513149 0.245456533939745
Ni 3.6419868406197025 2.635447090325011 7.247240080985393 -0.48675559406769076 0.8291380892022236 -0.9238873544606669
Ni 4.132778950267528 7.119250883589582 6.11210557470808 0.6266760565461337 -0.9402449698830838 -0.9153410075525525
Ni 0.9343162530725823 7.208536831277122 11.168484472952155 -1.461586272345444 -0.12582644627922202 0.9394600120879433
P 0.3301652052794901 5.398152000858775 7.83880655324422 -0.13470575104672286 0.41442789103755723 -0.1309712237049551
P 8.450819000628414 1.6123336812493092 8.095872056948787 0.7886043907542354 -0.007065648597529767 -0.15651179117822078
P 1.721931638933894 3.2622047535225676 10.488421361059148 0.18243596724315034 -0.2506686742683038 -0.9296347984674054
P 3.9600182449183388 6.129619704896707 3.95232430173764 0.31627422808325534 0.008088176324773167 -0.04630376816254606
P 6.938560890915343 3.9033455646190998 10.354867179819227 0.5976629571432353 0.9578639685164277 0.6767729732025248
P 6.360383690130503 7.760808072787658 10.403063850242694 -0.49048266521029066 -0.8271873932337561 -0.018537139572239042
P 2.4106753290743 8.629436154492794 5.754460319896493 -0.5871736275761371 -0.10153337805981223 1.568335647388557
P 7.0736936882619865 4.075083428110149 1.5592717232262827 -0.6296076283706318 0.16656763275232603 0.5619765594852193
Ni 5.560883424979477 3.1253159267911523 0.23960296819373947 -0.23958567698126476 -0.4680017104989553 -0.3833203709994753
Ni 1.4720595195183868 1.1704478951371478 7.056017532681672 -0.18819163878000492 -0.35048198431321576 -0.4871106634142644
Ni 6.989060313274304 0.6049910453544671 9.447811925190537 -0.06273825956948549 0.4691041995345147 -0.659808063213412
Ni 2.612211381919302 1.569908373381152 9.225561966963525 0.042352753934598024 -0.2636530023431137 0.7908399649529735
Ni 6.325199740550062 1.8737286120401444 2.214906112935679 -0.08173331261474956 0.609287428756041 1.8159799330082402
Ni 3.954994552606235 7.001243898593386 10.189875546742972 0.8213317057839276 0.2008602353866089 1.312701915805494
Ni 7.84492550099734 7.163730926871878 0.2917660926193031 0.8779386556446943 -0.49493324478247663 -0.0354457424021196
Ni 7.5959132928785 4.035898628075745 8.128687177199359 0.15165369175497107 -0.6471206975537307 -0.1938840611790919
Ni 3.085262163762222 8.415055742384956 12.296147707816116 0.36452020757383674 -0.592507895304857 1.1865183432971693
Ni 0.12412864825867313 4.903024127936179 10.023082625792645 -0.09056916573882468 -0.9064048814051874 0.8097321738717861
Ni 8.526998089815189 2.3587819452449543 5.698725395495512 0.5552071019718696 0.9788408278784111 1.1552169620807267
Ni 3.563427154895842 2.693423215116039 11.512775757911408 0.057885816573190634 0.438908906898057 -0.7593748044651566
Ni 1.1326389531774095 3.3370622948218336 12.735785052179942 0.5203681399158134 -0.4425804422123732 -0.2861866646692555
Ni 3.193547625257158 8.450981931189888 7.986469615937971 -0.08912754819629166 0.399509322054512 0.5725425079265237
Ni 5.522060692859458 7.803477776498025 3.6765127317657473 -0.08631116179341909 0.4154576178536522 0.13411439731962707
Ni 3.057790260758199 8.389258403484966 3.790154988054022 1.2173330146851808 -0.3292390157740394 -1.3932874879690456
Ni 3.5917589691965315 4.276583274163712 9.293551079926893 -1.3282362639956673 0.5325988776540505 -0.40346599270941486
Ni 7.3384015404694525 5.936854747277702 11.334549637394565 -0.2265998062445581 -0.017631339928518022 0.38945939401767765
Ni 0.4132742743476089 8.932686136186629 0.22735058997092367 1.2950636338984405 -0.5188229069158807 1.321323596036234
Ni 4.554117382238294 0.2784691484634842 1.6234989505591817 -0.8223112960883775 -0.09591886008651222 -0.2136663860123417
Ni 5.859978677355735 5.658442624510734 0.5370028375608857 1.5748042858320364 -0.7439949795749766 -1.4467792892395988
Ni 7.956089402411644 8.518064064027719 11.55780614442357 0.6730145346013571 0.8000296018720415 -0.42027869339137947
Ni 8.843173896052598 5.156516926495545 5.6075521688042365 0.35015776820457756 -1.4762796126915607 0.02884494925615032
Ni 7.8739452443353635 8.73441774626896 2.704965035056873 -0.7962097139053191 0.2844555409107617 -0.7022564621856099
P 8.209129616078027 1.5711122491964848 3.602376610785895 0.7544287733137911 1.2432759598031877 -0.9018833393857499
P 1.9604076707441074 3.175742935567236 1.5176864129195007 -0.8946503119724205 -0.01688546290142898 1.2462687238829244
P 4.745026741796072 1.1745392625697073 8.256875511948083 0.2716627600214676 -1.8262764298382421 -0.20833083273204123
P 8.595546597706281 1.5013598654900586 12.47764601710922 -0.7916269796306431 1.3553112658355884 -0.08784019684343582
P 6.132833057636881 7.887767186967041 1.4555528433015377 0.9924630466475359 -0.9062349314862265 0.7372687165947367
P 1.8146029216209418 3.13328142090764 5.88835846565508 -0.9317161064764663 0.3206577018629316 0.4923683122687778
P 6.840250400461736 3.964634610826758 5.966137895023441 1.0296802791277815 0.32424567632450607 1.389239286041601
P 2.291428261471334 8.532139454199468 10.296178686406645 1.2513625934660642 0.47288037874749533 -1.8600980063733772
