# total energy = -340862.77945407445 ev
CRYSTAL
PRIMVEC
9.39309815606786 0.00000000000000 0.00000000000000

0.00000000000000 9.39309815606786 0.00000000000000

0.00000000000000 0.00000000000000 13.74774862031935

PRIMCOORD
 96 1
Ni 0.5964532770314702 4.105563506959093 1.569333082728398 -0.09291144071875612 -2.2733105369465942 2.448199287970106
Ni 3.9191292954108876 6.271987658081522 13.249543517542042 1.4506143467149726 -0.27793059530805037 0.4853016352299835
Ni 6.153568870043019 2.2255724900038816 0.6701656145528596 0.649318733646314 0.36671361568072974 -1.5527570762240095
Ni 7.779298113902786 0.9686444577532013 2.3120829237180573 -0.47741580472400363 -0.3905569979572306 -0.02635894960950299
Ni 0.6520115738102551 1.8967764833012732 2.6989714850730757 0.15464002807680463 -0.7916478055662496 -0.024208993146035727
Ni 2.18648780871347 7.2314362727721635 2.421899512495384 -0.2121790028335378 0.10288552121233248 0.9703800987055676
Ni 0.2552874994104909 5.924198806973912 3.11151447602203 -1.4501618325585863 0.1629089529538162 0.5366015710555404
Ni 1.7606704914968854 5.586366639876838 10.620218097812847 -0.6412490692643021 -0.6682947605281845 0.8176856243909079
Ni 3.6187004450401807 2.4208268206897205 12.884074037837234 -2.6170251206289894 -3.146802983894477 -0.7851727393648672
Ni 2.1937111011701695 4.902314269058719 3.234130100301955 2.3801455297249783 -1.675603356828985 0.13075370837751027
Ni 2.5953130114252834 6.351706881852664 5.1344815967488975 -0.9716432816887073 1.3467155537467774 -0.1361450545964107
Ni 4.436529319328147 3.485947789265756 6.574613554103233 2.1050043242366065 -0.5464352693165105 -0.8790360024739313
Ni 8.018343068038734 1.2503246842701083 8.041731882365367 0.7258293644095435 -0.41485238016948556 1.5891798378274178
Ni 5.856296100641689 8.600856048145642 11.317848191967972 2.589416357772786 -0.42148325522244184 -0.5486929550024356
Ni 6.2824891417832 5.757649784152409 11.322329639082525 -0.46150967501670837 -0.17866878689123422 -0.2692919457964459
Ni 7.888004438481957 7.574584933406939 9.679322730535043 -0.7105662676028859 0.1545155866837984 0.21736826034396112
Ni 0.6059769392185281 0.7469814316941367 9.447424984761 0.3182776316665292 1.2513821338500901 -0.07802372497364628
Ni 0.4534273898397606 0.6290116337459195 6.384055772478967 -1.3612584845579587 -0.3313326650782746 -1.7785343865672725
Ni 2.3997487085013804 2.292855251859977 7.17264017507033 1.1821639229832157 1.4039349403805628 -0.6043843350274688
Ni 4.820021336401835 1.1267396922638744 10.10723470863309 0.6830737186095719 2.4307116727083042 0.08071695553509325
Ni 4.5279335571644825 6.536281259972486 7.753840000059624 0.004729544265185404 -1.4645903492790906 -1.6453116478239793
Ni 2.577860635112478 7.247244856913418 9.191043189419162 1.3134467643913184 0.3461257642270491 0.7678987827757677
Ni 0.9780187696801012 2.9069196485625346 12.503770038266541 1.7556590246309955 2.7979865602091425 1.2072530047413594
Ni 1.5986865143632298 7.036463735030019 12.610163782087795 -0.12061507728161162 0.2094142956042071 0.13432034268284607
P 3.9739662022538145 5.7127225958294 1.7953601421754766 -0.5109964688929264 -0.12075828772769527 0.5480082702305853
P 5.487739109583803 8.185624752513842 6.440009518688735 -0.14579877563609084 0.47298527975647575 -0.4368535670309251
P 7.589905076445791 3.7272283007550113 1.5400641889766746 -0.7336666010657751 1.4284218697783335 0.5690499213922329
P 0.5285674782758683 7.279500755868303 0.9810790410486222 2.14884703245317 -0.5847511341775736 -0.1439054152681199
P 5.485775952076066 1.0245709639784135 12.6091878391928 -0.907731827746727 0.7916632321852172 0.7171130675824682
P 6.543016111326781 1.5352173503451312 6.569251973694541 -0.05642003066094154 0.7013239230690115 -1.2492956836347064
P 7.056489820228566 0.6197528569259343 10.049548875129412 1.2583418529973749 0.5787923454909774 -0.7461472500312891
P 6.722818795600046 5.23747879628882 9.252660973797187 0.060590102878231133 0.27948816960315737 -0.8790825394411504
Ni 6.0512498521875875 2.763862764147018 8.375540985536299 0.48814116156130777 -0.891280109948607 0.34880691060363805
Ni 6.992889152836743 4.48893341375718 7.034200937692153 -0.8395531138879606 -1.4346285128096776 1.4837512384782574
Ni 8.434842431917156 3.4568103988877565 3.5891243969798303 1.4012836188006448 -1.2155970058306806 -0.7336275202977237
Ni 6.375631102772317 3.2694180913309907 10.91453016268576 -1.2454233451634937 -0.7013465487768308 -0.5757209056545053
Ni 1.2963602581716476 2.3133228126703127 4.8703871285381455 0.25776903275851093 1.131839977917683 0.33679883039916836
Ni 7.699531924641029 0.7325047888667439 13.163936699867312 -1.6543827568873124 1.2911414160258987 -0.120793768951321
Ni 5.303775282841985 8.2776865072188 8.66179659014899 1.737562572140601 1.2795195155162544 1.8048192884057304
Ni 7.0213408470517535 8.334373854391986 4.6406760960071685 -1.0303438808537093 -0.7416395919689227 -1.612581247470494
Ni 8.54946640831391 2.7903982663449063 6.279215647087284 0.690165849569663 0.487100121891303 -0.9164103293573314
Ni 2.060319714723371 8.777042389641494 0.4749751569342579 -0.18999835297144055 0.928010375490105 -0.6890404777159681
Ni 5.780700446946608 2.4220385303476064 2.8304410436438783 -0.2113459654092812 0.07442032389310409 1.6887118691864853
Ni 0.5210595749460376 8.183116795314962 8.35618368892412 -0.9604831513068297 -1.0498032751299018 -1.303420490503568
Ni 4.950895372551631 3.906335895767162 13.100930615586684 2.9130369989187828 3.627381502617179 -0.2163426472929242
Ni 4.651180397638283 7.147659230611822 4.487663466890931 0.8275460621247555 1.0924193100282154 -0.6189470633329921
Ni 8.614898729839744 6.4397014250702975 11.97182855914484 0.009454460544680491 -0.11651236796714773 -0.7796849767774184
Ni 6.138333264887276 9.106721347567678 0.7274287586409955 -0.9542849929159178 -0.7711851668365234 0.7877276445762369
Ni 4.021016230752654 8.458982694093642 12.618673928987365 -1.24802298756987 1.3032484837020781 0.6916568322928927
Ni 8.925631808851543 8.145798016471703 2.6577151194965927 -0.06369162462169031 1.2864000446861716 1.1717632964751818
Ni 3.976380228471463 1.0753876248246343 1.0245315129662962 0.1584113221937788 -1.0498014753576885 -0.028608150654995893
Ni 8.140810281368312 3.4773718906793234 9.268855614271304 -0.04053961198525922 0.4700040856409648 -1.054278537292436
Ni 0.8092755191370297 5.120835303795592 6.255555372224891 0.07790468289727874 -1.4327148407267325 0.1421951174452325
Ni 3.8577453991761272 3.5463454101975858 1.5489866928838512 1.5122172071284343 0.21670260173550418 0.647813095635065
Ni 2.969627971632658 4.833941907820337 7.890066223519987 -2.106923909856823 -0.11978538229146465 -0.5709432817602038
Ni 8.294547118349845 6.245949990084161 7.633574528930109 0.7570322723749092 1.1252682382374364 0.8901922762010669
P 2.919074317533885 4.2864276113202715 5.422483378302682 -0.8545387886635154 -1.1763498874046 -1.2667642727331152
P 3.9931844810137718 8.68411646990921 10.328147226152115 -3.0846560780520873 -1.7834791321670578 0.5430167305532648
P 4.025863069384197 3.0012357468170445 8.671529718424194 -1.5748503085786232 -0.6845958116810532 1.4500613024249802
P 6.414800321945836 7.108856342265105 12.912338809399595 -0.09618985435971177 0.25170097218756005 0.7896929958327238
P 1.8341151257217652 6.7593391611028375 7.254315981180523 0.0722639396717336 -0.035550386300783936 -0.6365619482012779
P 0.526590231120946 1.0046482028592205 12.987690242543472 0.19950963489598542 -2.8673598085966425 0.6917617333018731
P 8.268039795446327 4.889887200241796 5.233313896581017 -0.45663332076101354 1.0501565447042622 -0.043409220223570404
P 1.2524569175440625 8.207989719145054 4.3263755183282 0.9314836787506862 0.4536374713574833 -0.7321792178869714
Ni 2.5733801273077375 3.0661890203386006 10.749611781698436 0.6736915060637235 0.3003889243115666 -1.285546952657257
Ni 4.909349699552955 1.0520175966942467 5.137245046216727 0.2062634086800512 -0.3251735874554142 -1.5148487312140102
Ni 6.5872669965849235 6.3939288579162055 6.064392675081494 -0.3111114529353932 0.5339949866706286 -1.6780723871947683
Ni 8.18021432799491 8.018080061291284 0.17154427240339365 -0.9695524605979498 -0.5994946110353353 -0.10040234977916257
Ni 8.809833695189397 2.212506690514585 0.6196100818344625 0.389528042472084 0.9105600412241415 0.2397679681954
Ni 4.9320997832072155 4.674860398006735 3.9241846608207647 -1.3031340696114009 0.14604148777451623 -0.31170332088312125
Ni 4.180971298691709 7.898102018964338 1.4310582245673757 0.8745638256351906 0.13447615153442002 0.31816450312743266
Ni 7.216181881420174 5.4374954277230945 3.2846255171923646 -0.2166288110747753 0.23890022087846596 0.9478256104438192
Ni 8.920531356570676 5.50967199370135 0.4356838274851375 -1.445868090279239 1.085314580662634 -0.9298307165282954
Ni 6.366613728574096 6.01035230295941 1.2273989496809454 -1.2459270242727898 -0.5542251976745745 -2.3739003201462148
Ni 6.625590836927359 3.3005656047073435 4.96997651207899 -1.8284749801514575 -0.5836072503811175 0.324255446516519
Ni 8.777897161570701 2.139578676686478 11.05730055760852 -1.5176301506138896 -0.433776213657182 -0.20779012973722277
Ni 3.3045576714096803 8.422603225062698 6.350813598221152 -0.8135803439732828 0.09901189718953916 0.24761446082301225
Ni 3.1333496719190954 1.5755325274896745 3.159383582677207 -0.36290812589171045 1.0014158849654495 0.8969648190382101
Ni 1.9628569285976063 0.7820618352546507 11.460026821708976 1.1896720584348028 -0.7195404460770383 0.14420829122051937
Ni 4.443865328962325 4.993314603675759 9.700012907770898 0.5985291617982725 -0.3819548581105164 0.6225152403002246
Ni 4.644520691068973 0.806076229916286 7.467199278423882 -0.8418408814808727 0.886929289179079 0.33982424748905343
Ni 2.1894090622297684 4.785539273191766 0.2004797111717454 0.8221583154502808 0.2609559151269248 -0.9748815861203468
Ni 9.188863990654593 7.245450775171897 5.38524068355422 -1.0474234620438154 -1.046754461001249 0.21137141933057793
Ni 7.767406451678883 8.576809716950388 6.793669995433125 -0.33984738741750503 0.3072164887563612 1.1496592654872908
Ni 0.47185101249849953 4.963688772195356 8.766829274052197 0.9563624442702368 0.0586031543551894 -0.1468156469363794
Ni 8.81375061710675 9.37140006648169 11.463037309657443 0.6639619374807856 -4.090662667712013 -1.8542459184679743
Ni 7.805035202760207 1.0563196356346476 4.727382845472119 0.3323989015592598 0.7575837740030049 0.28577040306744333
Ni 7.7825481258533955 4.082991892169172 12.510052142291302 0.4695988797827461 -0.039494458550196496 1.248764493721585
P 2.081379040715465 2.521905949592896 1.1908682517702178 -0.14178142694658163 -0.5578170287908909 -0.40213544682344937
P 0.6304262343232653 7.587453477835648 10.506730686288995 -0.21056769248235996 0.2897887801982171 0.32503680476723373
P -0.045896556049316764 4.1629741226877615 10.98889156328746 0.42108704822528764 1.8376597319745192 -0.37500002405923805
P 3.431777792389572 4.8256478021776 11.699526401794081 0.8627429217408625 -0.2126091483924209 0.9209478122163688
P 0.5241715083542359 2.9568157857926867 7.828888975443936 -0.5842430841929035 0.35178141985092964 1.2413129225395458
P 6.793398534897365 7.541784234760913 2.5807818886287768 0.18040530996636672 1.3340670117448314 0.6354638300410926
P 1.949143005337813 0.4077590860748363 7.690889335057923 1.7115237248746782 -2.353226336736631 1.5803375569454396
P 4.31024850816057 9.210590226613428 3.313798601343232 0.09716224557531009 -0.1726261802415801 -0.5307150303677763
