# total energy = -340860.1503794187 ev
CRYSTAL
PRIMVEC
9.38450666973108 0.00000000000000 0.00000000000000
0.00000000000000 9.38450666973108 0.00000000000000
0.00000000000000 0.00000000000000 13.73517411162166
PRIMCOORD
 96 1
Ni 5.313038299487391 4.072556705246569 0.769925551133453 0.47317579850072705 0.7815716522771701 1.0097778837768996
Ni 2.400340893982136 4.7755688488325445 0.381392909331409 -0.015011642917483824 0.511627674719022 0.6905414877415269
Ni 8.160382002409177 7.741776709841953 1.7215942685997907 1.9740012188524523 -0.6201894203805254 1.3140941681673304
Ni 8.551227925039314 8.221156065868474 4.198966006481393 0.16929480187550197 -0.5408441483819783 -1.5477015160779732
Ni 6.243727952892077 4.051450950348491 12.196532453519863 -0.9115105780628687 0.2434312759796001 -0.21664192370089785
Ni 7.476617481453688 4.149021663409995 4.400159500783044 0.8178146937696044 1.3083742349644176 0.39874878973940353
Ni 0.223418820813488 3.1114800201122352 0.7989781060527378 0.5999993185858957 -0.11769481831102312 0.14353209108910117
Ni 0.6382430957513509 5.01198333411151 7.539154893665917 -1.2786401982350948 -1.4274245388620708 -1.0310429638032632
Ni 0.2624743211066553 1.3004298211367424 8.749525360665311 -0.6972875482161087 -1.2328750761848382 0.12032479973470245
Ni 2.8417880751318085 6.481981801425833 10.346308509470537 1.2765851154782788 -1.0092726620057069 0.5176769662368955
Ni 7.4462398342304414 3.1871379107250895 2.2640102925791274 -0.1583241617966112 1.6630453176583164 -0.36725868955092233
Ni 0.8920386253374446 2.3677109652224124 10.717473245274416 -0.30829352387062386 -0.19544060703293437 -0.24943531608183492
Ni 2.5783368269087057 7.708320944518854 13.531220415277074 0.3324734635509371 -4.383162933304122 -1.3789435605425477
Ni 2.267606435432371 7.476411022312845 4.504779855053724 -0.37146861386721186 0.3716915285112954 3.3082692908644966
Ni 7.014702691841272 6.784256752633974 5.683161355080649 1.049944428693456 -3.1241952737972905 -0.8018645981982513
Ni 4.2778521672965315 8.316483881899902 6.401071402579785 -0.11540113718083997 1.045165262137258 -0.7771732660991583
Ni 9.270062346419046 1.2613902745044585 12.6509189920966 -0.8317575291029417 3.614566353130381 -2.031432464386727
Ni 4.53911682552797 0.6224977709100898 0.9922013390671784 1.7759386008156381 -1.171669708320111 0.6718153720869333
Ni 5.519525593850407 3.686140269638174 5.50328570552176 -1.869047759367497 1.5647476729269827 1.4518857572282284
Ni 2.0627989677153122 0.3297002327173202 12.589303138413046 -0.08600340074501317 1.3907621504440306 0.6662977847028138
Ni 1.230496479429103 9.02757608549799 10.465172667558159 -0.7821599206804724 0.09129447394062341 -0.7137942876218805
Ni 4.11940416120531 1.2280471232581833 3.7189907342983446 0.2903955605442805 0.4354996241061919 -0.9796070166204742
Ni 3.30538269139018 5.708689089395346 3.1923707114948394 -0.5417221801115574 -0.43045717658627797 0.06051836910003126
Ni 4.449278945741707 0.5711025831489441 12.42814864067549 -0.38260920386506364 1.2149511447165655 1.0178570612406084
P 4.320251367220728 5.95461946416593 0.5160596377493444 0.33756759024439287 0.5577188126501297 0.09127236245343635
P 5.773564182152311 1.0440826442599473 7.163662023509441 1.0498174161972886 -2.0174749737653705 -1.071295897786039
P 0.5784975741937133 6.576239783727434 0.2687628788466297 0.21301923934664604 0.20858948571006655 1.5216055903218697
P 3.1235766488644017 8.192796087521657 11.39413651023552 0.4212618832402551 1.8478785814890497 0.27923363039019006
P 7.0516307245331085 7.43171261832016 7.624587686147086 -1.1417189275942918 -0.6202878936316026 1.7392538438000948
P 8.178259487104972 9.088781836251778 10.65161371779588 1.0312671639989273 1.135996680398534 0.9558204557238377
P 2.6129562710256518 3.2762719525312027 2.9046182839437806 -0.06296991596431736 0.24804872014695345 -0.5514332367517341
P 4.071252258856693 4.507359655863631 8.926901916169347 -0.11356588374431409 1.0421614423139278 1.187771756088296
Ni 6.518215380643921 8.896793604279841 5.511925082115433 -0.32672627665451476 3.015182813751614 0.3516994016600846
Ni 0.306711007384362 0.457333273586963 1.024100214778187 2.1676433392240666 -1.0360239619576221 1.0371416205018333
Ni 1.5893881577604576 0.9395392429417638 3.218164965791353 -0.36360155241430925 -0.5453795743584866 -0.1126135471333738
Ni 5.127581683971238 7.220579993288158 4.513955086962951 -1.0977726039203288 -0.8906820713532919 -0.5530810567678023
Ni 3.102846274222403 3.9152629934427923 7.242474985174645 0.38760228620428083 -1.5631517891947724 -1.2940395635093005
Ni 8.737669913727675 8.45003479250664 6.490268320578791 0.49076805766119347 0.5238584124572591 -0.8155117566680407
Ni 8.055557065898935 1.382309639494117 7.036872649765337 -1.5548191009593608 0.7676385871358458 -0.02159109590721443
Ni 2.739337418741269 1.8372142028242444 1.2511574087237274 -2.6537515295157457 1.0499048337047725 0.37631797153971325
Ni 8.930286907628547 1.0809543699133712 4.896836379009716 0.3171363189732344 0.4248071773893523 0.005445853605919653
Ni 5.077243191630957 7.864263287400743 12.287032879458106 0.7091606455046109 -1.0063824849421055 -0.16159434790745072
Ni 6.355046967832498 9.1397866285466 9.512857357600724 0.38265702638386356 0.30322202288498745 -1.1438853391179913
Ni 4.183472186411705 0.5503496856915805 10.221949722884547 -0.5215153661463793 -1.0375751084948261 -2.067817944994297
Ni 8.167120078005807 4.006499164682952 10.760931955971397 1.5363336405606638 -0.27050344960604383 2.660034020090348
Ni 8.637114927630337 8.267384144404684 8.713388441863163 0.5834612117215564 0.36056713646335964 1.6802418840422613
Ni 6.859088806683452 2.0515938670713343 10.536169273841143 -0.36179432400224143 -0.7390728596830111 -0.1557054932268415
Ni 6.0260918649234965 4.555436482161033 9.644880470565218 0.6466545565505896 0.8912708539772263 0.9134034242102075
Ni 1.2645528531619297 7.364707242609942 2.546377890356724 -0.46890725303236025 1.3515841946929883 -1.7218119941745638
Ni 8.04869699171908 1.094242830978591 2.379797271017537 0.5664960446221277 -1.9317605650156862 1.0483909681634072
Ni 1.9089587542674684 4.076573273986622 4.773782977264244 1.3699470134708922 0.456798128473652 0.20049436740675794
Ni 2.595426013066732 6.140179309252505 7.146672313119276 1.4868185645496717 2.049319629079793 -0.158595670290443
Ni 3.5934776534249115 8.135850902674372 2.795272830699698 1.9212344686733815 0.09396739278709623 0.11933415368665898
Ni 8.252181244033459 5.604868295070115 9.220765534289384 0.42469456307088793 1.8342543058373957 -1.00497557729225
Ni 0.22358117277424241 2.9508078860037417 3.4274891964396903 0.06222429604754444 0.5109962117826102 0.1935307916047312
Ni 0.6058224414843915 5.234086447127439 2.197943367509109 -0.37383042923116905 -1.056386070553742 -1.7366778555428026
P 1.475113023303409 2.893327784291545 8.269219753856913 0.3986459456129522 0.6809535869427756 0.7507978614294232
P 2.5909965260449916 8.999309952215192 1.2561875041551944 -1.8623523496251926 3.082799741569639 1.8225925532287515
P 9.047339855980585 3.478817754205382 5.8423798291474744 0.2247982342594451 -0.4672522339274405 -0.8307931083071434
P 7.690696841495914 6.242864578303094 3.5395402028794667 -0.3504706714593061 0.23485818959860844 -0.958939975189426
P 7.6963463143499125 0.487013651984541 0.09978451812173361 -1.2986750053987828 -1.3946005503535144 1.227223020105383
P 0.2879466868335804 6.225672162574646 10.98371638415211 -0.40460139186543864 0.7757326769978898 -2.765402198515218
P 5.956918668234418 1.7669054808605256 2.3935324345874913 -1.7611269897241026 0.4339939860949429 -0.12495278542501707
P 8.190553190491581 3.161546361766859 8.854366250836437 -1.2898288678620624 -0.2716182799367774 -1.0941185521075092
Ni 7.364106634200214 4.534715492025436 7.057392811463931 0.38032246471341596 -0.797043265550208 0.333687024243064
Ni 1.6347528617076834 4.6720483587121775 9.757742298358128 -0.878225590757494 -0.7668957954325503 -1.5534402183339633
Ni 5.164406487092653 7.131230107834798 9.887003551088515 -0.7381557471853804 0.14519585194476928 -1.3419412722865858
Ni 1.3076465065598737 6.981556615229439 8.977488159478643 -2.130915387675414 1.0098249349647512 -1.5027077249761023
Ni 2.4739811157185625 3.778446274608161 11.572488115954725 3.2021146119825885 1.6808388941963117 -0.4860349138515823
Ni 6.519585518578611 1.9530096273184154 4.572041427788717 0.26720421002948175 -1.7042829841518647 -0.5377094594077384
Ni 5.0505818089428995 5.973200786841873 7.324857813075166 0.7934588906330594 -0.00012264162079333717 0.051792044970626935
Ni 4.063162814338176 1.6869119482899513 6.071015497069829 1.806621888832108 0.20252913844859957 0.013625818313550727
Ni 2.8284714605473824 1.1728474566016704 8.02598367087434 1.216433385689047 0.9809789572673364 2.0214776671668604
Ni 4.328237582168823 5.71431979323654 11.928544734902037 -0.24983949349878906 -1.4304239878100269 1.2803533242714595
Ni 3.8147736988902694 2.9815327599638612 13.39000893209439 0.5827749842878093 -0.9072713431705407 -2.2125381428542283
Ni 1.855307531167284 2.2248506242648984 6.047748490347371 -3.042488186434786 -0.3820695293115098 0.29412288879719667
Ni 8.151447952314482 6.400899666112628 12.720528568333371 -1.452116642292112 -0.4072102902431955 -0.43225694879917814
Ni 5.641467870037881 2.792181574290882 8.20917017429185 -0.4413247154284013 0.2111392487151138 -0.14836885035611222
Ni 4.925204803412296 4.061051300397728 3.082406819278866 0.4365797445442481 -1.380248138286584 0.43148767473332145
Ni 6.058599795099994 1.9414666844439663 13.42290444238529 1.4181009474682997 0.13641682020055862 0.2779401083897471
Ni 0.6086875312889194 4.941702765666996 12.521135022359621 0.0156544187078053 -1.966417492967923 0.8136590197300181
Ni 5.82054302120068 6.657406379598257 2.256867744756572 -0.6957330592447953 -1.6102939940982137 0.7071914375933821
Ni 1.8430513658062833 8.982680606870865 6.929298991329951 -1.598623499738821 -2.4463565783344126 -0.6836607014612935
Ni 0.2990466810058557 5.579361206669502 4.38652005917839 -1.3417772359048954 1.7060729861727522 1.4081572059920267
Ni 6.4417410379740945 7.799134812970925 0.46303717657809335 -0.9739799002416839 1.4390988898762054 -2.3685470262541015
Ni 6.022122218715453 9.078684107363236 2.754080478298797 0.26618039675065774 -1.332166452288009 1.0487146700514134
Ni 7.364904317244383 5.0320004862669565 0.975633931465103 1.399088668031855 1.073271533455171 -0.5791978084595122
Ni 9.134240385263023 8.50822811670539 12.764769946864279 -0.16887211251578657 -2.3399591873140797 -0.562787742532605
P 3.731636356675028 5.199016546703197 5.503066108071953 1.3299717586295354 0.5120925301705825 -1.4717639842093944
P 2.555973548152761 0.4418206845044714 5.077839107787484 0.0675973874339997 -1.5471816390187612 -0.4545676964812365
P 4.709117159000043 2.3965213998765256 11.195773383064708 0.4122931040827415 0.9579048490566924 0.8895093912014294
P 0.7639241592893795 6.844495899228356 6.315584179961484 -0.16105955844990327 0.797443329202104 -0.6856733610159482
P 6.405225923563946 6.110158273272534 11.263817623633626 0.8388692004470585 -0.22195999347970163 0.7811579617785191
P 8.089923128343028 3.3718249967162786 13.058674856812484 -0.3923320875797824 0.4943629741013034 -0.12183815105543533
P 1.6631034555480992 2.550192692209134 12.90187477004545 -0.49886497573671507 -0.8976276494331895 1.8374599572588872
P 3.5758253968827662 8.138685023607774 8.323913595618357 -0.8005247963409052 -0.22709474360310566 1.8594845411590943
