# total energy = -381168.0524329093 ev
CRYSTAL
PRIMVEC
9.22947081287530 0.00000000000000 0.00000000000000
0.00000000000000 9.22947081287530 0.00000000000000
0.00000000000000 0.00000000000000 13.50826346384540
PRIMCOORD
 96 1
Ni 7.3358048271074425 3.2092161782392545 9.548977449338132 -0.16712684768990574 0.9603733652018429 -0.5973112302307714
Ni 6.755252660546402 6.59253709194014 7.257044215861928 -0.7274967248096373 -0.5570698662122212 -0.9836742447113125
Ni 4.304366713672149 6.386083061642153 7.353128543628937 -0.7309867402407668 -1.185535667668926 2.23663117924769
Ni 7.999763720469095 1.4044485578454344 0.5540377431071508 -0.38436526732422194 -0.8749332931594674 -0.6174727927803108
Ni 7.360484431784308 1.8829966141264738 11.427207041843213 0.5510324017688897 -0.8876916212664002 0.3755150160224436
Ni 6.599597637032811 1.286514381121054 2.496502605855334 -0.6663227244034783 -0.7786819894342009 -1.674607311464303
Ni 8.122248026253196 2.902668538098108 2.874315604078911 -2.0167589215349526 0.12917119438173882 -2.7580015351757727
Ni 5.415281185076654 2.5011219559453752 12.592970411779387 1.8135697809048508 2.495136061730961 -0.8381197238755437
Ni 9.162280162609711 6.437629655554007 7.300783600500724 0.09993852276886658 0.23054053605986102 -0.4860585680006661
Ni 8.753350003889478 1.6338655112683427 7.6140410658475846 -0.24322893016080693 -1.2220592165162567 1.3931573901490846
Ni 5.276802206553207 0.6603040229607406 13.569590546680075 -0.19333101688909932 -1.735656870477456 1.222927735164139
Ni 1.3678906243656042 1.0089657379487604 12.217764739031207 2.536418722529832 0.830860214099653 -2.9809534602550984
Ni 2.2622078771625214 5.3026908718930015 11.655672436835985 -1.9885150961979108 0.19248589527998464 0.578483556001307
Ni 3.438734655839966 6.728136475602261 10.2037770159678 0.6841026740947186 2.140200669632082 0.4379514280807941
Ni 9.006800499039597 7.281664751926256 4.951210476550338 0.1273153721199227 -0.5929066734051724 -0.5012918400106529
Ni 7.634535105557749 3.4448907128031183 5.046633051267485 -1.062230959370293 -0.07523664914681236 -0.7551047163348931
Ni 6.205628450332474 0.7716003643509394 4.536452830024208 0.8363598037616434 -1.0486691615254584 0.8146252402980293
Ni 4.967116546370874 2.90588039390497 4.35575271479366 0.468567096084122 0.09043572548475393 -0.268922221161853
Ni 4.785489792281104 3.1579003210951355 9.9857003132055 0.8877769818913549 -2.006551384874331 -1.1941270088823628
Ni 0.8986394139301171 2.6629053480099913 0.8794255018073424 0.20196323864280055 -1.5856859657415465 2.5043547521157516
Ni 3.1031695597885482 3.852168796266372 13.714669519707794 -0.47832726079467947 -1.9224994514287341 -1.674511152206071
Ni 1.051799711510965 5.1064261772581645 9.278907446281643 -0.7504129672861786 -0.3381692283841337 -1.0531806762425668
Ni 4.413403680632693 4.7172747742681205 11.581539482204153 1.097205161452633 -0.24372026797492866 -1.2049937763935377
Ni 8.43519168959594 8.657760375752492 2.3336338280352957 0.3070475672786648 -0.32544998104525236 0.6632564267733287
P 0.5844866899244465 8.660455381199629 7.988921861226793 0.41549309907727794 -0.042972389796467926 -0.8184250736600938
Ni 8.730414769176685 6.1138875114812965 2.6250608263132746 0.21769941843113474 -0.4206533031219788 0.13157183340343145
P 8.997146472677592 9.31650461816335 4.326763870242587 -1.600135051287341 -0.906880021269393 1.8994554251250768
Ni 0.7623552035413593 4.995026465796021 0.558104247901701 0.8784189377152226 -0.014687169698529543 -0.23716446913428188
P 7.819632140634244 5.564863216863477 5.556421942952684 -1.5877490189181624 0.6707882163739995 0.0060413210980734666
P 5.672063519152856 8.93436761291243 7.043910817611569 -0.8014318815362068 0.5056305765953227 -1.4893202479256027
P 3.8579556744011496 6.041473084295548 13.07495829179381 -0.3646472200700043 1.9287125222179813 -0.2044104146317125
Ni 3.103012658786488 0.8408583125540815 2.828859537888174 1.8026881009953406 0.6038024943820698 -0.7088184316738438
Ni 3.2369599671916323 4.83434138074582 9.27994760763059 0.061291499820629924 -2.1569789175316854 -2.13241922591445
Ni 0.9322042300588973 3.2573940153421868 12.338880314309108 0.7863541612674779 0.6167240875397444 -2.2089293424570475
Ni 3.6665825992422807 4.953309258189651 4.58396153050071 -2.64738496386777 -1.2531669936646548 0.9635767026304889
Ni 0.8007959490459019 9.264081224534104 0.5133237789668895 -0.5488065977621644 -0.7124285176226053 2.952719919330702
Ni 0.47859697247579913 4.609539162677599 5.726490630873105 1.0435935467747641 0.5211122171706896 -0.28131802372304454
Ni 3.6103012868565183 3.4651124831273568 6.489099644858973 1.2698745362273227 -0.43205588853196564 0.3640190995677021
Ni 7.735320925704113 9.027160711424475 6.410495011668447 0.8954350126572449 -0.3863632715908572 -0.4955040296842821
Ni 5.38232274517348 4.539773593585441 0.15272835835164925 1.5326592770328702 0.6360911792124464 1.8073793358234227
Ni 9.00380092105905 0.2144541355088713 9.849537008883035 0.5471873169911867 1.3853016415500918 1.1167095500341477
Ni 7.845022414555731 3.9743946768706113 7.295083479390613 -0.30862391062684913 0.5288422388250956 0.8509742112407087
Ni 2.6651481093923692 3.366910914779618 2.4423883731921325 0.13065086425105885 0.0471324347114285 0.7543238723048106
Ni 5.380061524849683 7.9292782526616055 8.838821363287778 0.6164685198855125 -1.5671562823684753 0.8599576456862416
Ni 6.273825009404038 7.453462119710541 4.888140888457832 0.19110135622763216 -0.03510429990230084 -0.10840002327265846
Ni 2.7016783544600718 2.251935476262988 4.64416813677917 -1.9203278976987124 1.0908707345941728 0.04660278746020361
Ni 5.09883032286435 0.574380419497682 10.092064425448608 -2.120340183262729 1.255331091195509 0.5793556741936151
Ni 3.2402548882348787 8.438228185459323 8.27121814413199 -0.6065119228934328 0.36023212172144414 0.22494067337458032
Ni 6.473587673437728 1.908571477462149 6.5463611270340705 -0.6138220834016009 1.3067402989054204 -1.1378586733079372
Ni 1.6136991177683606 5.922689796265907 3.7527849327207625 0.17068679712702217 0.19592603130978514 -0.07929127883216021
Ni 1.0255695557549243 7.207496725305726 10.610524404865266 -0.13962272873236597 0.7662777022325771 -0.4235702196584576
Ni 8.061859599401764 3.5802870481096343 13.301357208294752 -0.10429448574471714 -0.6404402002097614 1.0849818799135638
Ni 5.463800512595833 5.2661052500010435 5.746645026061166 2.02438789883512 -1.4341502876216785 0.05318738265625679
Ni 4.080921227798205 0.7525793481659905 5.375072995931267 0.6272640678391197 -1.3978162290773346 1.1218093331545584
Ni 2.020423432989052 7.561382320715252 12.829621424344301 0.7740884565262475 -0.6140784223867812 -0.10888981842488343
Ni 6.645071239217896 1.14548806868182 8.611693318600794 1.1056468644620827 -1.0838176844021334 1.3930249783362783
P 0.5253876201311123 7.089488712815671 0.8870453528250015 -0.3111947566778189 0.3820325054259872 1.1091592484907156
Ni 0.6814496633029874 3.3541557862592635 3.8255537715817507 2.6763235012789908 3.448231405214152 -0.3301412158733346
P 5.055193385350429 8.568695983407034 3.1867479547443547 0.8352724842347357 1.4386067807311353 -0.3160585125280234
Ni 3.835943386759293 7.445607840136865 5.545385341878415 1.1167046649381414 1.5769742969001614 -1.1355464802349928
P 5.58798304099046 3.610162844795878 7.695819714015063 -0.34960240992173985 0.03561826342424188 0.6922666979627496
P 2.234777890214262 4.978090387044319 7.00977562019295 -0.13797310894408496 0.5756694835912795 1.1249031415885338
P 6.697956106382608 6.5110224066349485 10.676958135031338 0.3421534098428624 -0.517967758004437 0.08000270307688802
Ni 6.0480536969113325 6.702930791094961 12.755434015835283 -1.0412013923935035 -0.7443197099042472 -1.9798463647793194
Ni 6.7844916237536985 4.332525828806449 11.657968729148479 -0.47621587087863143 1.1596048067357771 -1.6587428336282206
Ni 1.2416683829442061 2.9533383322925713 7.26794514371677 1.4872641367275226 1.673349527797802 1.076671046055023
Ni 0.26165826345196436 1.9355861382284865 5.422243897779806 -0.5764819521902459 -1.3358822105766992 0.09452686483499205
Ni 4.664731397519655 7.7086569848247315 0.858393383954821 -0.4719344698944582 0.05962851029591021 1.1347080434940973
Ni 2.1295065473031425 1.2294116458421573 8.97141840012814 0.09545991817222269 -0.22626427728201035 1.5155365013096544
Ni 1.8394796597317757 8.610810058253907 4.596335481880769 0.5996661036161931 0.07498596658858699 -0.27995842437135654
Ni 7.768565479199278 5.736512913116414 0.3765439460010385 -0.47045094337039617 -0.4655553058409918 1.5838643391517755
Ni 4.013223060144948 6.822101716894397 3.4493217816906885 -0.6945927749927651 1.1493982985164204 -1.4713922026922723
Ni 6.440592315651716 6.838991648292551 2.361190258732273 -0.39692407782583894 -0.2556355313552759 0.6130144998986411
Ni 2.993828020294595 5.699456588218278 1.4171658455358807 -1.3135850897413959 1.5286136462085866 1.5551019223071023
Ni 6.786992810315939 8.635904989112694 10.830411929780745 1.349861555574927 -0.28282443306524196 1.4933982746497185
Ni 2.5062535416597873 8.07427323750587 1.9965615594170365 -1.2344449917751192 -1.0246902821123578 -0.37647866548729353
Ni 0.7869563577171956 1.2556694900103262 3.078073705982689 0.9750520502599401 0.22909043387689576 -2.254062744460576
Ni 4.2989028670122 1.5174449677402997 7.866793813012074 0.29030865725742905 -0.009210205744358333 -0.33421204350859857
Ni 1.9687383970165577 0.7454421984664316 6.717956369409822 -0.002483685653802174 -0.8918910040597284 -0.6242903299227763
Ni 8.401900988747228 7.273819701823287 12.427413089141707 1.7549900235884293 0.3749632572840316 -2.1963512486817205
Ni 4.427829343351444 8.257662820501132 11.99810702793639 -0.45372925974034123 0.29655078151239894 -0.22923287299203102
Ni 9.1192431406919 4.940738719083483 11.250789401021814 -1.1526132059092922 0.7119646906123093 0.33225620533380845
Ni 2.048407188179874 7.099890326305135 6.752942524027846 -1.3263058797421738 0.42829487882763656 -0.16811106598004594
Ni 5.4784384531409005 5.3163320296014565 9.29618409250252 1.5401280746060895 0.3966057752544718 -0.33996720082482096
Ni 3.7363666272758573 1.676865615303316 11.576689395346374 -2.6500249725937777 -1.0928936785614725 0.21200185382572523
Ni 8.051024200788959 5.811816164634196 9.128830714864797 -0.7677103209140456 -3.086842544180445 2.0886415666078677
Ni 4.951767936581185 2.65143311591824 1.414936928359567 -0.40067068935246475 -0.5199097122221562 1.0022802898482739
Ni 7.793365066995366 7.88913005507583 8.751774533239388 0.43698906416752487 2.3117050775643926 -0.11587936236883914
P 2.9591528988394766 8.835280015376592 10.48557306156055 -0.5548173227326187 0.6628483927016326 -0.07365850602641508
Ni 7.127735639435316 8.130628385657308 0.5682585115761543 -0.271147768058262 2.2194266424439455 0.3133393138246474
P 2.5224328038133197 3.3302699160634033 10.754927780637061 -0.5700189701737216 -0.6709118864360575 -0.6964617098807038
Ni 0.42805639087126734 2.607233180691048 9.81324026942428 0.2574931533893049 1.1482592998159709 0.5638845751412095
P 2.881616115410026 1.3817994367246305 0.4648653659543926 0.42265156449893015 0.4022858563583846 0.6852761255775294
P 8.746215623031132 0.16194859959031382 12.12866435174998 -2.3574966819772105 0.12881098282884265 -0.2448078446121526
P 6.832678690327341 4.468531309179784 1.9421639820030574 0.03364288486542593 -0.17294936790895374 0.14062597318589973
Ni 4.73998850168389 4.887678491975292 2.668341506257813 1.838173952606776 -2.1252234794969596 -1.0011436051406692
