# total energy = -381174.3406249386 ev
CRYSTAL
PRIMVEC
9.18944563509595 0.00000000000000 0.00000000000000

0.00000000000000 9.18944563509595 0.00000000000000

0.00000000000000 0.00000000000000 13.44968257036204

PRIMCOORD
 96 1
Ni 1.4621694046935954 5.203909376439191 1.172921504451781 -0.2948965337384276 0.16143982460745745 -0.5113944756622936
Ni 1.382184472516332 5.725759598001969 10.37267739498097 -1.5029638068509663 0.2001236143309005 -0.7832343846915736
Ni 0.8453995643985807 2.708883074112821 1.5719318155274766 0.2900440907421327 1.9236484774315128 0.3994273038636669
Ni 9.194407633345461 0.7823581315260553 2.4285958020150837 -0.755826424992266 -1.4898082433056148 -0.06979593774721528
Ni 2.42383566933266 4.478963223574747 12.078500347952833 0.6132129890626924 -0.10073607896949749 0.5401550927347536
Ni 8.300164329113635 4.588170591910524 1.202644765380935 0.15692985255224584 0.7025552243729513 -0.5483990779111008
Ni 1.7815118194560118 0.7332111399968227 0.6946062801534539 1.2296362575325661 -0.8171636904491669 0.42860392542762316
Ni 6.189220083919718 8.551661068983503 8.800678496502565 0.28778486239431084 -0.36219284499224075 0.6566947143954109
Ni 5.229382518901895 4.062488371643941 3.247331271835821 -2.3585894008207573 -0.48335762412973526 1.005689572640139
Ni 0.7225100309067006 0.6001295926862615 5.958128507411478 -0.7721513874045347 0.8898153524776224 -0.595301141779278
Ni 0.07771422023551205 4.838684061129777 12.268894627915412 -0.06556133084057741 -0.13347033597772498 0.3429077715103836
Ni 4.341139922472428 7.4381024624375005 7.208302921943061 -0.6495696733148555 1.4344145970266586 -0.9994646747763498
Ni 2.4945116933877296 6.650364829613586 8.53258561836154 0.6421918927935456 0.4838083385139087 -0.5573801983637885
Ni 0.526505594568408 0.24074784566401586 12.286284734263328 -0.10071473881325882 -2.294185837733707 -1.56609004588749
Ni 8.468294420923744 9.013366370842675 7.78155614386429 -1.506690363772934 0.09223986857302824 -0.026554867670392977
Ni 8.203427038094556 2.375370534647126 11.681895833665282 -1.0359244602652804 0.4517590233878478 -0.9232402077949713
Ni 5.896085967246636 4.520242212009981 7.704610161258606 0.28935992019091455 -0.8288071882253663 -0.8605166035135051
Ni 9.163025677533726 0.8884171958907916 9.987532119023502 -1.6403514756052264 -0.5374029839109132 -0.40766974637811726
Ni 8.476509785051327 4.638547131225294 6.950109833259134 -0.19369997019274382 -1.7163406866473476 0.3664863301612721
Ni 5.596124092691233 0.5517664608439226 6.833756752232521 0.48201602250017633 -1.153020211539724 -0.33250817344361444
Ni 1.6903157639726523 3.405066263085395 6.395189554776971 -0.18481243789512686 -0.3593168089960263 -0.7549602203372288
Ni 8.34568884129265 7.50454215219412 11.835881531219046 -0.11965194203739393 -2.1983947614743107 -0.10979124719323026
Ni 3.8482640220441753 5.5669751720953835 1.8387464418226993 -1.7030470548622345 0.588301056312361 1.9480539028590709
Ni 1.541152687329576 0.012467320483098916 8.215563538545672 -1.1238091371934065 0.5379894525420025 -1.1670404370782157
P 8.807136838682503 1.4411899009986628 0.21269614484090998 -1.29954918047362 0.15473464467313996 2.1399592430452365
Ni 7.147706800473611 2.424102163247313 6.714215852619938 1.3176140083951309 -0.784600668911481 0.31375583253677575
P 0.29793560185950574 5.5798312061160615 3.2693491828533676 -1.3462409281032042 0.012316098363191691 -0.579739282785279
Ni 5.920382860706733 6.005155493902418 11.19382049947892 -1.201497333204505 1.0823272158995358 -0.6162268361883516
P 8.176612236613254 3.7731035486666666 9.70521030372907 0.2046983781857765 -0.4077165404556527 0.25613098293445563
P 8.17146614722685 7.963968471610742 9.855455897032357 0.026250963276728982 1.3251370562450533 -1.964721593322739
P 3.389389069347526 2.4639384087652854 4.405026784315576 0.02925221199689801 1.0726092172808237 0.08836135945422847
Ni 5.144527180698214 1.0340607149713803 4.225647892473505 -0.4651035630155538 0.6884195563025176 0.0035110984770520175
Ni 3.3143940059860086 1.3012162696884524 6.340731982789876 -1.3713780894904641 -1.0912975377189462 -0.046885351697628926
Ni 4.098851006826091 8.614388222825644 2.686869757817941 -0.2438025432760898 -0.8599360484196868 -0.3367949737444264
Ni 5.9267879041037395 3.8034379077104563 9.878199774231199 -0.040902137531000526 1.4147500287181958 1.782454547557285
Ni 7.013862529200423 6.509178191519437 7.401817018596147 -0.8557328089716166 1.8260432307815135 0.3649853201357134
Ni 8.147398989900074 6.271961849696841 5.515647525188662 -0.0003828372607154697 1.0200255296468368 -2.519501377949203
Ni 1.0855859349527583 4.622401275775449 8.4272745748469 0.7130008451863076 -1.2493519907939385 -0.7613998053149854
Ni 7.506030842338045 8.502552673124669 0.15240878873464447 -0.4428889745917276 0.5295441499881267 1.2504719633309946
Ni 1.0840237292461712 3.3142929220873474 10.357061770526833 -0.6534849492088617 0.06452209094278565 0.08571620852189753
Ni 2.535937712948288 0.4468974296497923 4.075052181303035 -0.19033002527924642 -1.6915220849417707 0.3798190427144362
Ni 7.04200980025499 5.551022294997527 3.053965125252595 0.3376763479081152 -0.4785889990964983 0.6464051595439448
Ni 6.9679153025360945 4.4048135891838545 12.286110134802003 1.09250467065317 -0.5796019858764663 0.7303964149549356
Ni 2.9575218964841685 7.7674889409487395 0.4976801424482748 1.1940424195883566 -0.8622819229440439 -0.13182868660924393
Ni 3.3925318596513656 4.300779878570482 9.744079819598024 0.33510370208493256 0.1679136052572592 0.11816353041732554
Ni 0.05209496559201574 7.991279503140019 4.019275923910673 0.700169240639278 0.35003666924568105 0.8767407786818513
Ni 3.6520326064061606 0.1588643740809826 8.63530156251418 1.9381078473899525 0.5188298488944162 -0.21408958959268937
Ni 4.798958088955798 3.653769411574072 12.012664404754585 -0.02042587195451966 0.480891679087746 -0.19083010484411653
Ni 6.5566416766636895 0.3102457828274127 2.3514210022206115 0.6848099845743884 0.2773896352029158 -0.37929325211795323
Ni 6.651743246413516 1.554991992000872 13.444611561637451 1.4660718189206234 1.2416314822212293 -1.6117739210778501
Ni 0.5223832093920844 7.346299903562173 0.7109809527920874 -0.58795112917211 0.7424312346322826 1.2526702565338943
Ni 2.516244731599957 2.297673774357746 8.48921051744588 -1.5429318626034718 0.5440194607861664 0.08760134135975235
Ni 5.468519454799059 8.150247717953262 12.374648602695096 -0.5515432799670372 -1.8551306350657726 1.4367740983977708
Ni 1.1602134205009609 2.184496565638172 4.02567821047408 -1.026354042968026 1.4186624763987246 -0.07564699721135358
Ni 1.375696724111329 6.921269678026467 12.287629150115526 1.310014341671002 0.2788664768587585 -0.5768092536226775
Ni 3.494084420024865 1.758446311670519 1.9967267912626603 -0.9924273083135939 0.5359973618126382 2.082645754035749
P 7.522581033382536 8.683180410587477 5.7476001527245915 0.4894423968712345 -0.4591599438376092 0.6730441022877118
Ni 3.5452696305289266 4.810904367888523 7.318913518581167 -0.16684376923184813 -0.0327684526802726 0.27858776927607504
P 1.8158527766649308 8.324056886979085 2.2029774591470983 -0.42270170101057525 0.8647288418226398 1.216225640553615
Ni 6.900133953760876 0.17835978235465724 11.283839387015139 0.9824192892582887 1.128329393661263 -1.561889377542581
P 3.167381259550823 6.437840527400401 11.210283390792746 2.0003745666396577 0.9172557080767622 -0.7984252334993991
P 5.519383034716471 2.095671387050692 1.6501551310344293 0.27452799738440464 1.897555636999203 1.4008393321743746
P 4.910536334187453 6.523339126777383 3.689274671506666 -1.439575829512624 -1.667620852844141 -0.8527675556957056
Ni 6.601100213184092 7.752583660618831 3.9208248013370164 0.2751198653321326 1.2313840934616083 1.6427060918803322
Ni 5.080348094493479 2.7105187953820713 6.083950392909076 -1.458986887049384 2.0660793650366354 -0.5780282136314433
Ni 8.050248173841018 7.432405006331124 2.176723213831101 -0.2525041848151458 -0.24933478594822867 -0.5758250353325374
Ni 4.321410183342765 8.076318630250357 5.042191679582354 -0.8440823692168817 0.5943081817383893 0.12908711930836478
Ni 7.515404076577567 1.2997183900991953 4.471965460953771 0.9793473352011842 -0.2579718927979364 0.19816109128789097
Ni 3.414954106263558 4.752551390024826 4.937338270445289 0.2908395900602346 -0.21385253388121878 0.8819102386979328
Ni 7.213925943542242 3.082176722424492 2.721045305010869 0.7204909829157656 -1.4053786148056246 -0.4056144065109853
Ni 7.580345886744929 5.877302740986258 9.582347419628654 -0.34840941805490316 -0.9114722686257657 0.5089976932953427
Ni 5.387735040877837 7.026626668767773 1.5785491351116732 2.7365708761058225 1.518077008343321 -1.603030113446949
Ni 1.2548371390934792 5.955504920768945 6.321108841226074 1.1135401511672307 0.5691795049915617 -0.6421376425168425
Ni 2.164647363719182 6.538878478835259 3.469049614104539 0.9037039375342565 0.8548108113779795 0.39198473154269264
Ni 1.7038793852839622 8.289614845871505 10.219901947377545 -0.017959412691898102 -2.5625899816085607 1.1288222741372815
Ni 4.441654075523314 8.26549255187273 10.426839066828347 -0.404907867362264 -1.8075050627680098 -0.5340083564070673
Ni 8.92353035326858 2.4300569238230096 8.217365588775447 1.2428039052627757 -0.3346239342350366 -0.6213255908674977
Ni 5.688312608270542 4.322797789588028 0.9667498657972055 1.0356429244691194 -0.30517503284630026 -0.5332293121491978
Ni 1.1257989477293786 2.5104370021495863 12.627718575605954 1.0126068685852625 1.6647810694025007 -0.15604822127824092
Ni 6.859865804312259 3.9189308566539127 5.005312597572496 0.954201689173492 0.7596190592654789 -0.12297740686620111
Ni 2.076566530203664 1.1980647458270346 10.655187593904728 0.9621867642614979 2.3178127331240277 -1.0484490750948523
Ni 4.849545985513224 0.3619777653287802 0.5766551545834561 -1.6006937520042883 -1.1108543768049515 -0.07126558031420631
Ni 5.302677534876832 5.893264807529445 5.708327220205524 0.7919216280529264 -0.4964702502522934 0.1504126202590184
Ni 4.882480957586214 6.397857250757102 8.937784101924388 0.9767551489939758 -1.7032103199129764 2.05485598551699
Ni 0.1618491059250974 6.695356353963297 8.295440954212541 -0.3300162602596961 1.557210226899357 -0.09273377749031127
Ni 4.733244365380475 1.4730313290770425 10.589526250167802 -0.04555352026008284 0.7073819563376333 -0.18565678817329315
Ni 2.365482691468962 4.142206809906551 3.088114023054057 -0.8925067832668564 -1.3780128211981624 -0.7433581173219262
Ni 6.612265389263525 1.9010665032365948 8.95868549533399 0.4934260641093308 -1.797732299651962 -0.1200142104728191
P 3.259128681754154 2.3217960683565186 12.314771095850677 -0.11159513317118845 -1.029922991266207 -0.13846573230978734
Ni 4.345293551762883 5.86579755542951 12.96635423084472 -0.23522611446098846 0.3847578747769502 0.295379129801801
P 6.97919075195952 6.139339774652924 0.21490161172079772 0.2000487952289071 0.5048718440524274 -0.22022886972120784
Ni 3.354331335402643 3.735978189521889 0.7554137588655596 -0.5292741841561918 -1.5494701779426219 -1.33779485421838
P 8.927013153049735 2.8774634487442423 5.499951952560126 -0.634124799514695 0.3322058117118472 0.5169606568961613
P 2.0024904113754336 8.14773899937739 6.370684060907818 1.2303448535638166 -1.170627640208842 -0.15750449410879325
P 4.541524967400898 2.5644525618161707 8.369669617833297 1.4407608509596606 0.3579852346687964 -0.1611480043986515
Ni 3.3007936268933675 0.13272132105351295 12.078459914393369 0.1285808690959076 -0.663549018313083 2.4282516412035857
