# total energy = -340885.6535622674 ev
CRYSTAL
PRIMVEC
9.05989490262858 0.00000000000000 0.00000000000000
0.00000000000000 9.05989490262858 0.00000000000000
0.00000000000000 0.00000000000000 13.26007197821240
PRIMCOORD
 96 1
Ni 6.296237320671808 2.3662814474675473 11.841350471896762 1.674712983804232 -0.14990251339181926 -1.0163629931935851
Ni 4.636029715685503 0.9826996108555046 6.230655460077344 0.36010459500464437 -2.7843270604441788 1.0645495802011409
Ni 2.8444808155719037 1.9969095358761972 5.049395570507081 -1.5725031485026855 -0.08726709794878519 -0.14184261920182023
Ni 3.595437376964687 4.503456274863423 5.1404792230256895 -0.5810019515477864 0.7676293311644651 -1.3257788035941103
Ni 3.529118946921796 3.133944454898458 2.7994531383433285 0.34185670453804995 0.11838953038520256 -0.005785753443841649
Ni 5.465010091221645 4.7805893973473035 3.1359675294105585 -0.9656340993801498 -0.8169073514639865 0.132022804897921
Ni 5.482133292421244 3.4618945273974444 0.8086390996983958 -0.8263520418166542 0.0763962166725523 -0.14148780696556276
Ni 5.864877608758946 8.379723211396348 12.690193760824439 1.0889256950526602 -0.6529632723774367 -0.43240453012063595
Ni 2.255560472938288 5.37140325799717 11.633949547821915 0.7101201812044029 -0.052545378196883694 -0.8087214732190845
Ni 0.8983311523734805 7.7880033612650195 11.348619032509783 1.4681582691360069 -1.0628793915875696 -0.10446340722241364
Ni 0.4786886024243452 0.4815741789227961 4.912949024651759 0.4222052209901309 -0.8377636260877056 -0.08532360106916918
Ni 8.697752699073344 2.596747051761409 1.5920038108324948 0.11375640248856538 0.5733976568379674 -0.7901614508287101
Ni 1.5089617209513284 1.424858717387372 3.007517246718604 0.5439101889018116 0.4146454063650021 -1.561631495895504
Ni 2.037706242226353 6.687579477188569 0.26860685547385765 0.9081110654630167 0.9476847139905807 -0.34044774000566524
Ni 7.788429176321307 4.190282890807053 4.10901744629903 -0.21749064485443834 -0.16393353756358864 -0.1162172053242321
Ni 7.473262615405724 4.2269392252269355 12.813671973242139 1.1858912512361317 0.042004369456243786 0.0022916242476541176
Ni 8.231693590020555 9.344284912833018 6.983005433292613 -0.9347402380147708 -0.9795345115113259 0.05703349587522436
Ni 6.717902945133044 1.1230192617440704 0.8408823593540852 2.08769102976914 0.01559168379066992 -0.24000528101718663
Ni 1.9169378443476999 6.424344233350289 9.319403723703674 0.15315264489800073 1.774492355287415 -0.6334941079092317
Ni 0.22234431458205217 5.174441144727709 1.219962854228763 -0.35722984456001056 -0.3104149410890009 0.7433087521412295
Ni 6.649872194970193 2.390181449988469 7.376697726524282 -0.7354967122959785 -0.8921272884402506 -0.3630024853777297
Ni 3.352623136038522 4.5839353205015385 0.6658189178409998 0.0855737694067623 1.0371781301667233 0.060598073298031116
Ni 6.363199003246535 6.289415219876412 5.067866884055094 -2.05797473365163 -2.5067139963765475 -1.3482582156435488
Ni 5.6415512015789915 3.3077585369166096 9.511979941893388 -0.6160165199497585 -0.08335053650319839 -0.3538071920317068
P 0.20891120854044085 5.90903553608532 12.328697615795422 1.1071851554834802 -1.1427504541825997 0.7447298008584722
P 4.316759022418906 6.300305213443564 13.02584564990532 -1.465866901998669 0.7778533228853185 -1.3128296996326099
P 2.5334183870073366 8.879575728107605 1.4422047919994103 -1.2139466147114515 -0.495313768050347 -0.01212532250862428
P 6.486748788833272 8.494512078697364 6.138670348024683 -0.4341767915297103 -0.6999368129134979 -1.8666152386666046
P 4.8940374002157565 1.5848202202339963 13.149973456781227 -1.5231521088733833 -1.0869086646226314 -0.896820580150862
P 4.17576893931406 6.443206934354292 8.150369256196237 1.4234436998374516 2.1327537264357335 2.213915739928045
P 4.522681371660009 1.4108430601091817 3.8415756932983305 1.5080245092033253 -0.2561826621079975 -0.3796431792582042
P 0.5280034218791902 6.269256953913922 3.6915646729265843 -1.5271190639409313 -0.46305028003095094 -0.12553976827673863
Ni 0.6555930145637577 7.461647830253404 1.854407356326794 -0.328658203569905 1.0747200929762393 1.1938339031219762
Ni 2.0817101513408782 6.458101401429499 5.18397215407267 0.793614185264001 1.4707309149591898 -0.5962208253800699
Ni 6.006855220398585 5.830594966780491 9.800148016261453 -0.2114362111302423 1.1146243853703448 -3.583983595247518
Ni 8.97600018861942 2.6725602515700038 10.543030399395462 -0.44766274183128707 -0.6297996897767798 0.03506496202393316
Ni 2.813314777409671 5.328876111737426 7.198097302075576 -1.9710087118830313 0.08738793979736563 0.19794023352633652
Ni 0.7456809846422405 0.31319422181444306 9.078521052351983 0.09303973876650427 0.021872117482742977 1.2799967122629892
Ni 1.9722394422960343 1.0391518154452937 11.676381565186105 -0.3878969346265642 0.5033644062689653 -1.4313832663995025
Ni 4.382588218141809 7.098056131553771 1.8165107223067924 -0.6460670594782356 -0.6007331114281267 0.3699935719835822
Ni 5.711221792703285 8.362101715981947 8.128119060521055 -0.33684793846954886 -0.480108006844186 1.1535927962137422
Ni 6.917311230002448 1.4061953340692905 5.036838556294042 -0.6777839309655423 -1.4852581620410872 -0.26009048180283595
Ni 0.998699385098093 7.8183358891043095 7.1714177238255346 0.4662939837792292 -0.877731681840211 -0.6825116754585149
Ni 5.336667621277983 4.762397128559581 7.601296142936208 0.04396355006514364 -0.18720587782796794 -0.3317442986943964
Ni 8.172459997722683 7.718713285722939 9.022139514941747 -0.6047350334986681 -0.09757207941921905 0.6574894423825645
Ni 4.648215274211144 0.37175103996966435 10.633689142847267 -0.2994311883839875 -0.14412421614714532 -0.37831443314445173
Ni 8.234946092258998 7.359941451064675 4.938487962144642 1.5841402185209816 1.8160809773624789 0.19251006364970072
Ni 7.0426639346572895 6.472959628925446 7.189266622599783 0.8183060315837263 0.09021255373035432 1.0899734195908841
Ni 2.3019924338631266 5.844483785531276 2.630891077349202 1.1770898508944179 -0.5177533280007857 -0.15657915408104647
Ni 3.4113403143319614 4.670484495665437 9.4885229682289 1.2405372207157863 -1.104085176401918 0.4699223245604358
Ni 1.2295364450793536 4.135950701603881 4.031380489664255 0.3158404829799464 -1.1803289266570058 -0.9975083223809273
Ni 0.638452599564011 0.4684726650313992 0.36188843847448793 0.8891540647445397 -0.713405536823894 0.9304385253156233
Ni 1.1297417036965056 3.7846351603780346 8.644094566044378 0.5695556573840578 -0.037195635213690785 -1.0274120519188952
Ni 5.12025391384157 2.9874187760618898 5.4498103056911855 2.186095632391983 0.6246338293051242 -2.0027798336470415
Ni 4.403344437162064 7.23054803332252 5.964964078754825 -0.3235069983862686 0.9117951991828231 0.6540585623241445
Ni 8.174317276159677 7.499916825950285 -0.1239629167902821 0.8722367201639107 2.441073989779235 3.3677839012903608
P 0.08478430765401444 6.062365195927655 8.000755965206853 0.1749527714922277 -0.9218268723872125 0.47734998448307464
P 8.690767520171287 2.000062379271679 8.09869524013167 0.24030995674179906 1.401296474316451 2.228513435236562
P 2.0512145453949255 3.3589560025139296 10.841607386916028 -0.8062403586684437 -0.5833082310834599 -0.9009939948022612
P 4.169182395783843 6.238525790702789 3.97596654902022 -0.19925175324890848 1.2010463617100153 -0.2847992974034257
P 7.238792537603808 4.246880053713876 10.548771654739477 -0.32430558302816404 -0.6376094156291858 0.5955004022742777
P 6.451061863158552 8.094381824210437 10.386561485999868 -0.2877905188212656 -0.1987547590078319 0.4042188117150393
P 2.69066192140958 -0.36838075909863216 5.8524120994835345 -1.154531763088244 0.4860757943918467 -0.7320876866144296
P 7.140066863809083 4.413464339669974 1.7875507685319152 1.0563883845465871 -1.4668675753490414 0.0868130411305021
Ni 2.9365293468882667 2.3837036251960275 0.1813211108615314 0.035131039375178204 -1.404375113241775 0.5879241325889164
Ni 1.4089767217773734 1.1514220319878496 6.976057399959295 1.5900720106243844 1.6016849122729642 0.10711524302296391
Ni 6.935612217527946 1.2135547906263946 9.705723074535221 0.11677693448244404 -0.29834926817371843 -1.4924963316607394
Ni 2.5914651330844958 1.8797922756078291 9.147991419800874 1.1532436404044395 -0.19222878496385604 0.8870030798398078
Ni 6.470948332276605 2.389819054195885 2.842494886628543 -0.7412976352484717 -0.005565667013235576 0.6498352682714164
Ni 4.221412689390028 6.732534675258628 10.906077598416738 -1.4552045371888165 2.326602563501516 -0.2810424014641547
Ni 7.272259789048951 6.409277628273605 11.584184451594783 -0.9723881302745317 -0.9976211938097077 -1.4303429980604463
Ni 7.81445825412366 4.23675109131115 8.243654463154794 0.1519938487032092 0.46781607685071047 -0.06705874132171032
Ni 3.6163385543019757 8.65512589397064 12.810449368656586 -1.2860850845489142 -0.05925621455815601 0.2551184825095413
Ni 0.008897722697421255 5.318656550386553 10.194926590881392 -0.05016813621395876 0.04729055755584759 0.29461474083195066
Ni 8.694590795783048 2.583909180809117 5.926973221828752 1.129676651717777 1.9925026200907492 0.2873020092206213
Ni 4.0090396950409275 2.7531480159458948 11.199297470133427 -0.09906820434877131 -0.759291243612415 0.2236399522852858
Ni 0.8972566488484687 3.650467178068584 12.714327508631577 -0.4608756409771353 -0.9063925401100132 0.0015367483595005792
Ni 3.2283666786562466 8.680031544815982 8.02332506917951 0.4825340997871755 -0.3545726094428216 0.293617667026004
Ni 5.911490767580077 8.368941936566971 3.856174807802581 -0.27628534639514357 0.49214359785248146 -0.10477013982955505
Ni 3.249657431470563 8.3636237783108 3.4534932869358634 -0.9017324156301826 0.4948396566274059 1.8488160057016547
Ni 3.748477120172955 3.063811809138619 7.247080529380206 -1.3428702118587583 -0.9983092210156678 1.3210628861756797
Ni 5.197027462500513 4.781323248827286 11.676381565186105 0.1172063087103788 -1.174428502012171 1.3932669191437554
Ni 8.327375139157574 0.08909047565939507 2.692829048249233 -0.7796376684792508 0.4680055671536972 0.4576465925168763
Ni 4.738180029720148 0.33322202529160366 1.7864635811541627 -0.39774734505808274 1.1613176756618258 0.47258958697995385
Ni 6.127895415121676 6.065200943004626 0.7699143912923397 1.340294480711782 -0.4307754791576452 -1.391518568994081
Ni 8.269527710766337 0.11219683139455765 11.258795611359886 -0.7282114914884749 0.3919284243834605 0.20808297838729325
Ni 9.237921747709583 5.22707913360055 5.8954275740737865 -1.4750897061485175 0.5063967653373859 1.2634694040319272
Ni 7.3222975881100005 6.257035155809022 2.812143333010143 1.7835128136184701 1.5707951646726432 0.657586630082061
P 8.554524821949292 2.097392829264955 3.699984033177795 0.07154300234530905 -0.35799011976480277 0.5844410591363225
P 1.7016566237631119 3.4734368333912484 1.6575485258582188 -0.25991436123628786 0.24514234513343586 0.5386327425529562
P 4.996468570989655 1.3691494241723805 8.587129571408084 -1.3622478450544215 0.8294381369411458 -0.5459336470897437
P 8.343492692032752 1.715880658622038 12.633612905728283 -0.22412383390023985 1.7962228049859712 -0.11913592163292384
P 6.731918602411234 8.03015622986972 1.651767406977021 -0.42854710404775875 0.7120888748949995 -0.2681076956803576
P 1.7461497671976254 3.792236412127486 6.1684665300909485 0.374861955819477 -2.2706437887477087 0.05758808282711373
P 6.756054162197335 4.2679896086319 6.075499325440385 1.2692178764799302 0.48069833213001734 -0.2556406735615984
P 2.590459484760075 8.552305147719714 10.137457866093406 -0.043054922207945205 0.09039638760638626 0.9308912965823258
