# total energy = -340873.3543983998 ev
CRYSTAL
PRIMVEC
9.19321454695078 0.00000000000000 0.00000000000000
0.00000000000000 9.19321454695078 0.00000000000000
0.00000000000000 0.00000000000000 13.45519875382713
PRIMCOORD
 96 1
Ni 3.5491968049609977 2.6647635883916645 12.069918621333015 0.4585140827234942 1.403183921147151 1.2068670821568506
Ni 7.41159724024579 0.5393833713344864 7.867914401179217 1.8548017909714443 -2.215954624734945 -1.1862085253662344
Ni 5.315599456570216 4.419702301317218 2.9515192594540034 -0.6459724428819004 0.6882210671384664 -0.24546399013891274
Ni 5.5767602986917435 6.573828781301382 13.384357099151321 -0.6674545240150762 -0.14262552011443178 -0.45116098479253264
Ni 4.404285280328842 6.487467722765419 9.46088889683046 -0.9793275377068422 -0.194860051939116 -0.8061801948544697
Ni 1.1301494580584985 7.116375537801104 13.293494123395318 0.5624866663524184 2.2898995516535274 -1.075962707134089
Ni 7.74507190889956 0.7057566543607517 1.964660761048117 -0.7044712104487416 0.038979209476674805 1.4473793847174428
Ni 6.617000117354701 7.780153216050213 6.179596156945655 -0.886285227837177 0.33270614838703344 -0.049741075978869176
Ni 8.654087781475404 8.756040532078325 12.630906966444954 -1.6085420444041136 -1.5173758685112382 1.118779545189299
Ni 0.7093272989355194 1.1769705003326798 1.7648379664737253 2.748052394382861 -1.4274996150743802 -0.8999082179372502
Ni 6.618094109899493 3.931809205983804 8.092090940715034 -0.08516984910012429 0.3266637988476955 0.44977670285049637
Ni 5.802122762918974 4.060008584447079 12.588589680033744 -0.5844518577696 0.2510368562409999 0.7287637644475191
Ni 1.509810837174764 8.007685278937704 7.987436304322916 -0.07214849713979188 1.6908582261055267 1.7145851374088215
Ni 3.1946512883016465 6.8692067683953235 6.6671454260507055 0.016770791700435633 -0.9671888454617794 -0.5076663760784289
Ni 8.326864498791876 3.902418498709004 11.181404536775167 0.2473578647275159 0.16010027986042752 0.9754729398474427
Ni 3.3177484326274445 1.545342611843861 1.2634602638739125 0.06526745374924242 0.0944139934062116 -0.8173053582333538
Ni 4.571445502530184 6.869078063390054 2.134707652653366 0.6796338396900876 -1.5327703486894377 2.099556413748158
Ni 1.932891769140226 6.004171234763065 9.830408321531474 -1.4725155176634381 -1.1314669108489803 -1.322965502515031
Ni 0.9960296493528179 5.844549448584662 7.261085010476082 0.03501174018849454 -2.077506375926654 -0.22098837359505166
Ni 6.223539723030592 8.604637479807856 3.4734465547880546 0.20813620022273188 0.9928577109827933 -0.3053213286161774
Ni 4.169141235701115 4.1736734905295405 10.013358809236474 0.009394039620390274 -0.5385694934151886 -0.1594788442263447
Ni 2.643858218250002 7.186041718510656 4.115165114455405 0.059157741307078765 -0.10663084718737764 0.48784651313902433
Ni 4.190607391937167 2.6323391202783646 4.443915390094312 -0.7227301566589295 1.0637715643845358 1.1505388398787668
Ni 5.37938197989601 5.630292387669273 6.788187886899519 -2.1231588836584465 0.9185021788893536 0.9192475416958104
P 2.99284184003877 5.389025662076575 2.6230907463282707 1.1601611934598792 0.7862867983646523 -0.64863096355067
P 9.102808589133522 7.940115151171116 1.9847497737277835 0.20896615232319493 1.1138954776241203 0.1627109780103972
P -0.04103023635851143 5.947412327439132 10.955922560757331 0.4400612753349454 0.027198157681346705 0.21648817173185295
P 3.067628641315123 1.9421033702316712 6.344314661332738 -0.268988298513098 -0.6255386005075807 0.13531098873088954
P 6.271509917137539 3.690956175050901 10.465601537431649 0.5692340123785808 -1.0510348335441577 -0.973398059596285
P 3.043183883528544 5.068862768253555 8.24879020395235 1.4224900776749307 0.6876631377524672 -1.9799049859313969
P 8.90470400637948 0.17897534168510051 9.29148736889449 1.5056428963450263 0.21811593714326308 0.7563936103496457
P 6.523073043151813 8.116073279804107 11.89251256139074 0.1822377351894152 0.0838398174347911 0.6261654354583023
Ni 5.42290265810649 0.8450081154908281 5.669765293464023 0.30804695507745655 0.051992333906891106 -0.14050538844763544
Ni 6.2555413032694345 5.896224508200443 11.287539280727884 0.38387187262757116 0.16840391463011645 -1.6645689533916945
Ni 2.404512874521686 9.142753106840438 5.881092476866591 0.5354857122835424 -0.48604751225707254 0.004005264504651167
Ni 3.7626724426301053 0.20844970721332606 3.5027251048439774 0.3552212987704141 0.2628647021138634 0.6619279377698923
Ni 1.2229457668579462 1.8060897593055938 4.912224180233009 0.0421177551056565 1.1108104109408936 0.6363770858839815
Ni 8.59819303632971 9.24506439281518 5.908769568928372 0.6935237102983024 -0.245608486136577 -1.8509397369128768
Ni 8.231356191667103 2.579634420620426 9.101688855587676 0.36389980038101843 -1.2327377792760252 1.4043092930008458
Ni 5.734377964073806 8.282534817691129 9.571463044143515 -1.2692749549701108 3.3059074755005384 0.783404848831167
Ni 5.4261110900235705 2.0499673578623345 2.619862089338934 -0.29777925460286137 -1.8487699829550674 -0.45956952057120204
Ni 0.8182531028596579 7.973624418614547 10.708575442987103 0.6372851995205476 0.9313762066385445 -0.13127615653988356
Ni 8.523047699681534 5.279663180455986 8.890980375531866 -0.7305820486031804 0.7677825689128778 0.9467925411936147
Ni 4.71252457473509 8.702149907728971 0.9693877132619918 0.036538718355982235 1.7334989435941888 -0.28080328887015515
Ni 7.541837512364056 5.3856793319395635 6.21912789931424 1.5254347342599728 0.2283263020173616 -0.38469771096297617
Ni 4.492999801818307 3.124856402586825 7.581722274175666 -1.0319513345501454 -0.016797016952680748 0.00013164048185783782
Ni 4.438235822076054 8.785504785070422 11.908335003145714 1.2650069237223762 0.42289170553419425 -0.16942489969546307
Ni 1.4996431417584584 3.629885650050432 1.4277172688849575 0.426164205637879 -0.5238974932253108 0.28479749763121276
Ni 3.8373213456865263 4.007689999804949 1.1537640685610882 0.8335501022269903 -0.17825432506163494 -1.414236579416887
Ni 9.179902887290067 1.2965742230868715 11.449122898915185 -0.985185539149516 0.5855651454384367 -3.555353847325967
Ni 2.26313042623293 3.9084584407420175 6.054045343626537 0.6913079335939063 0.5934430055246166 0.4624954359687454
Ni 6.998748356199268 3.3336802736368996 4.120453051529057 -1.3418574543235278 1.207835616717707 1.2741289406283025
Ni 3.113291338541877 6.314957049630722 0.3362666479466566 1.2388410639602856 -1.2391650229586078 0.6763358856651062
Ni 1.4021766799106534 4.652538849064752 3.7356204891653486 1.9227627323924497 0.30516731953681636 -1.0553655997090274
Ni 1.455855860322777 3.727701454055398 8.556375860796122 -0.5104567943393725 -1.1129917348629281 0.9712879552318175
Ni 0.06466507193335784 4.004021907154764 5.222016208595691 -1.9106942312636899 -0.7609079532802314 2.1708955276127777
P 0.9147202622736904 7.410006814109243 5.914205516758085 0.20360694489381062 1.2448649015568627 -1.2783103256995019
P 2.9921615421537733 8.442607071387977 9.625109128982857 1.0151473756189293 -0.660733660351475 -0.5384273114103695
P 1.3647419098064975 2.7828504307266066 10.734396425008603 0.5613281272679429 0.40825107280288403 -0.4357911872046817
P 3.6729558607424684 4.953120195657455 12.029216582737941 0.7611833184288053 0.38653476417171495 0.9586057317784586
P 5.869224036737794 3.74492034511755 5.916372357453946 -0.5869432567328858 -0.07156357117059933 -0.5287396518089604
P 8.632934194537864 1.6883430659131504 -0.0014911394181959968 -0.8461801322861748 -0.026046817685722888 1.1585596533007143
P 8.455477571914948 4.909480005656366 3.382166207086391 -0.8170819293686379 1.341282041436032 0.11797763965876457
P 2.4008815547301485 2.106606753395661 3.1153359094827326 -0.393786817748438 -0.10185913683034717 -0.023075393762224776
Ni 2.4428301932334056 8.29432971210263 1.9122125520792517 -1.1683373015127687 -0.31426671073492324 -0.6123059038673907
Ni 4.3931431041583515 8.770804834825691 7.519276444261745 -0.11458352637555105 0.45516496374560317 0.8435308675887859
Ni 0.5621678345530866 1.5036054172778326 7.461836319731348 0.20083118192088636 0.053093794501185974 -0.08868943221760854
Ni 0.9578961949343408 8.957335160320122 3.84751386278242 -0.1553509381009002 -0.2308549819764863 -0.8604155591592666
Ni 2.501519675636385 0.7345387708249196 11.051347209628679 -1.3961056741441311 0.04128523190203212 0.5683541808767889
Ni 6.229349834697052 6.358597239631809 4.270478040921673 0.16436316890183952 -1.307119022401078 -0.5440225461099598
Ni 2.964756569245991 6.947689241965849 11.481724796071465 0.8461670196600524 1.1522532514667123 1.152488250295654
Ni 1.4993581521039325 2.0017949130328216 12.977889225401777 1.2042329869681132 -0.08601934158461315 1.0807043355841324
Ni 8.585046739362877 7.242589181897361 4.326721208903062 -0.5037217896083841 -1.343997640594982 -0.4413020897205819
Ni 7.101335438613874 5.371530974574559 1.5998096507525281 0.13177572188412146 0.8276856730264133 0.5182287249753075
Ni 8.31513395688301 7.530428732968363 7.565670002054137 1.4179232842398548 -0.8001753834212865 1.3016479719841776
Ni 0.5890147793308781 5.923289332165726 1.6857211610915135 -0.13980759104966242 -0.5202706951060007 1.029825289346078
Ni 8.95728000103215 2.665057771260852 3.1238662933677146 2.3044468533400826 0.5158987912905502 1.2449695454555267
Ni 7.275298639665187 3.049416883069462 1.7975336344195578 -1.0043934795365348 0.43263592940515166 -3.113273227568148
Ni 7.7470576432665785 2.308213950935971 6.224119814875772 -1.1460931454025876 -0.3984132607768558 -0.3233375626879399
Ni 6.706955722823553 1.2554253942592188 10.873657998674807 0.7514833175322219 -0.056890542539456856 0.0697296032856541
Ni 4.504831469088456 1.6037930706656252 10.299133564294365 0.8739321055884627 -0.04549284222547649 -2.079329288068006
Ni 7.769663758120734 7.589973184334919 10.138923412377585 1.0114205615866452 -0.8074469773820351 -0.015199847668889951
Ni 3.986159491066262 5.331899026166156 4.8332287252843384 -0.10832417572940052 -0.7339689627975423 -0.7173835476350355
Ni 2.6889877090263528 1.5249244820792907 8.489450177377348 0.6276381633490868 -0.7064360474845963 0.2749365456767329
Ni 1.5191051771981683 4.506228837717099 12.296545152576288 -0.441800112402923 0.39345334566841916 -0.007770387974038232
Ni 8.249439244907496 6.331026788860109 13.00454403199313 -1.4860780868392212 -1.2320140137361233 -0.5599950102788162
Ni 6.572578504107333 0.7541589295568178 13.463676155256099 0.6601142815999211 -1.490402425246188 -1.968060427887985
Ni 6.977493643900444 7.865438668470708 1.2069743950254437 1.0551066896206862 -1.0949325633683724 0.47735127003465533
P 5.4156584049527385 2.3505854773136856 0.31643412595606335 -2.4227420242392665 0.9559232998502892 1.583561463199376
P 2.793220376865479 8.945953960568415 13.317296275477014 -0.7672120411213884 -0.04139964599270935 -0.5716523920120864
P 7.551591513120566 1.2938714179762083 4.1259423200038094 -0.11199288283023938 -2.042918867759772 0.5077730768596223
P 6.402715476795327 6.7252042539278625 8.393017032857566 1.1319765034955471 -1.0787667522417872 -0.669761317771382
P 5.806324062019564 1.4100368784467667 8.303095442282963 -5.059258677933965 1.9947896163527128 1.713561067019681
P 8.788970626998042 3.760585582901804 7.360612591051134 1.2512330098667355 0.6040578049259855 -0.1437084687659654
P 4.836991508045544 7.875257021729853 5.013608790169811 -2.227441799438938 0.03394730347972218 0.2039059641914682
P 8.760609559765399 4.164425116579447 0.5364994598949792 -0.07011449742889861 0.6810086085504271 -1.0009068065395148
