# total energy = -381168.9719321013 ev
CRYSTAL
PRIMVEC
9.25604287434240 0.00000000000000 0.00000000000000

0.00000000000000 9.25604287434240 0.00000000000000

0.00000000000000 0.00000000000000 13.54715436174838

PRIMCOORD
 96 1
Ni 5.297112973732067 4.984582688127006 2.374870110533006 0.7659306033058035 1.3639514580090897 2.48098162460745
Ni 3.7367940684958207 2.1602400641643196 0.74751801763556 -0.008835853124075107 -1.1103067318315976 -0.32916342534109766
Ni -0.10745617783725243 7.020717730245045 0.31516548099412495 0.41572526969274204 0.20446337935683495 -1.3451605505548319
Ni 0.5565010620889398 4.967329424322243 1.1143211102788337 -0.06874615632646225 -0.3311341759142233 0.7972556386713302
Ni 7.65435865314348 1.107059744691475 6.309275139475937 -0.8210925931899278 0.4464098432607924 0.33114368899592
Ni 1.4770422880412595 7.240169249315396 2.2233588713195997 0.6431416583013246 -0.46450321042739356 -1.2338274127957785
Ni 6.781680424580876 6.51097819645099 10.139895862765817 -0.10074996292656842 -0.5333036170305591 -0.9977397216654429
Ni 5.975951153689867 2.7458421248595766 7.673094735007 -0.5820548182923331 0.3601349340219475 0.20408157053738402
Ni 8.680927849526896 7.014766094715828 8.563969418137084 0.943048243659834 0.2286924271075287 -0.5754198294743187
Ni 6.736131437894589 8.057487085809175 0.5040896452605643 1.195109170289974 -0.20952793836393593 1.3403425603408983
Ni 2.909424169506348 6.851433963225026 10.383364961729193 -1.2059445703425813 3.0359241600640234 0.1664925565400165
Ni 1.3823807381854043 7.968916012124744 12.295532896838875 0.6659995367361046 1.4212839731819715 -0.3312277640692941
Ni 3.5594482881850564 6.73885271448182 3.8503046239375234 -0.7561953782959105 1.156717714995969 -1.846771721578116
Ni 3.0432295244214007 8.873916342192837 0.3837842287893139 -0.8409798190321581 0.9250777752243423 1.3769324436497898
Ni 4.532610117533341 3.5848653817515155 9.920147224721145 0.29322608801454014 -0.859704649135171 -0.543145028601013
Ni 1.3013255712657088 3.6485839804811238 5.060105518256945 2.0681817560916187 -0.5317429574116583 -2.4997439928166174
Ni 8.640608527030356 2.2776529672562846 4.529219629050678 -0.8941780003216924 0.010841313589878103 -1.6356787527199055
Ni 7.376640344560799 4.414021697004035 3.3352141717928596 0.9884282144565298 0.5762554380017365 -0.6510534569492336
Ni 7.109418388528869 6.64066461231394 4.563805758628402 2.4471723893674886 -1.5040079318447646 -0.203531611571185
Ni 3.8925917811362583 7.806694605771589 12.30208987756811 0.6968679441801869 -0.7599522742351816 -1.4786031186184148
Ni 8.423267385721534 6.871454783831091 2.3941208283769693 -1.7084936797991028 0.22942287751565005 0.6872124233682939
Ni 8.991218172771037 4.811402127082414 9.463784513020936 -0.29609672469411585 0.40956002142229464 0.37430582620569086
Ni 2.1295285141084155 4.933933621850363 9.590734842628152 -0.20691106956637917 -1.841286787204145 -1.3004776058251604
Ni 1.010509962101622 5.893433532005605 11.561656435102167 -0.7188105098895492 -2.143363897851412 -0.2831417071953446
P 0.6095863188341536 2.925936949886014 9.202487349994065 1.620761726398757 -0.7100697875824417 0.07955173158239848
Ni 0.42449045387546624 0.10642690587636743 0.5901625129895742 0.3720283430254238 -0.7719076468248448 -0.9868151043331392
P 9.067108467800681 8.866881749654414 6.626848117205909 1.126299764825744 0.4316121161263276 1.1356462390376507
Ni 1.3341197309546986 7.866442362134114 4.457596369758157 1.8227889855102737 0.052675733127160895 -0.2433492577887551
P 7.895228655284765 3.7569722418297173 7.544098819937954 0.26747109053762325 -0.3510489125602793 0.7908031981777671
P 7.59723961294005 0.6392695225334537 11.90205574001504 -0.43482933751204467 -0.6617731573595829 -2.3222394014368137
P 2.0061547194444187 1.235218913490162 12.864377817624185 -0.29125790854457584 0.9508487135408592 0.5660504724442769
Ni 4.5704858447270595 4.341972659742083 14.060455702867994 -0.2902654627243195 -0.6610167388095326 -2.6625655282629497
Ni 3.2667444462869715 2.0741218418255225 5.328610361822855 -1.2359555148823747 1.0383456681122634 0.3689080522288873
Ni 6.061717646401743 0.2496678708357204 7.971565091578029 -0.08380433621116534 -0.2892061682218697 0.752777353753297
Ni 8.474120084940079 8.636637684663274 4.514657096891861 -1.498346619793929 1.446110288197032 -0.8351881520510456
Ni 8.1681245655615 3.073367199822854 1.4799727511960814 -0.711812224194845 1.5577571005417623 0.6300403450326761
Ni 3.1974351976978794 8.754966935993796 8.699671336224668 0.5079486832055381 -0.3930820783719295 1.002276690303848
Ni 7.327055723207732 5.430705439662405 0.2373471522463854 -0.3791798664685405 -0.43985687263362316 0.5441842684988047
Ni 6.200419447965251 3.687977698696292 5.120065237999904 -0.5239016069903687 0.013699608974279631 1.6746463922323547
Ni 6.430348807500725 5.3532416173544295 6.949215725113384 0.76510399363945 0.009263941800429209 0.6488443651130568
Ni 5.565612263672289 0.5850392932921834 12.884603196776432 -0.6843608128521117 -0.6474246019473947 -0.4572889520671415
Ni 5.311469096136137 2.6619916330101394 3.3153275638075947 0.18241179887343423 -1.3726636410711068 -1.4826654616132464
Ni 1.025476983331398 2.3037087277768897 1.267318869968123 0.5062016186074444 -0.47774696281117723 -0.30536143782549346
Ni 6.78071779612825 4.0959933219676286 9.638149847545684 0.2554972060051987 -0.43185148583064337 -0.6172503923568595
Ni 7.312912489788376 9.492719828460888 2.2717494631496975 1.0140819104688923 -0.4420417961000839 2.4954584780673863
Ni 3.8295858977033057 4.191154698135424 4.39611958459803 0.042036508245759864 1.3507452437314607 0.522036785867488
Ni 2.7778310088237728 0.49221599353913176 11.006887178623673 0.685846653369019 -1.3748992152698452 0.44939772224452285
Ni 8.474777263979853 4.378691381584088 5.568977760839355 -1.3632914558275875 0.6170153935279181 1.8149445497651904
Ni 1.8649908104924635 4.419214337022528 7.065911284887287 -0.9093197410591372 -0.8862212073684609 2.2782252006393926
Ni 7.113120805654354 7.768050627024332 6.574772694731672 -0.7341527966735744 0.4617513587138693 0.9275696884082606
Ni 7.743827562980842 8.694015894065489 9.824165763160055 -1.1139556414380944 1.6410559578714188 0.48217080291048564
Ni 0.5229664189748532 2.2855576278191965 6.692307777588777 -0.1464996583578574 -0.4013857131416184 1.4938808707130917
Ni 5.0395173022264 8.844880135886216 10.38299934803805 0.2140232551311282 -0.5198989135888789 -0.1257032904377964
Ni 6.150260951957733 1.6210755702654664 9.877243615071016 -0.12081613754882418 0.04255355709149446 0.21884972998549404
Ni 2.2762553047914134 6.789983094984778 7.710959354949342 -0.3458244309365463 -0.2334826494073205 0.7888273053983188
Ni 1.3183104098288745 0.9703850165041709 4.54273993078867 -0.30011844425899925 0.7058313240210617 -0.609167358238409
P 3.438777258022664 -0.14436927657834472 5.1895892267822745 0.9207819760624658 -0.5197688157689178 -1.9224063774942959
Ni 5.300232260160289 8.805097663872873 3.888913429722088 -0.8270156435425821 -1.6068407454422906 1.470977226642041
P 1.0760890254367872 8.053257074243307 9.946916626142688 -0.39644379575531075 -0.09929137610317094 -0.13418818798035598
Ni 0.28530178445995735 5.591094149538445 4.054703966184212 0.7812363804249384 1.4384046920226583 -1.3227986379198635
P 6.124538408978422 2.5403487183523077 1.0243718118194403 -2.2412784482117143 0.5466234740679167 0.21459326870198528
P 3.5983606921739106 2.7875035735641043 7.502753002293373 0.3048672717978943 1.1216740931282747 -1.4700701414467392
P 6.708354053410632 1.0419434834969954 4.268179784014029 0.8901737642583056 1.5129556279563556 0.227735205400582
Ni 2.791094918175826 2.808690655564696 2.7507357946951876 -0.5081302030887248 0.17644581109798643 1.3465751715141712
Ni 1.2127637536240914 0.7352889338700808 8.714897526653228 0.4764362144195536 0.13804252872943967 0.3213835242853626
Ni 0.012524351531236705 6.850674967714301 6.084758713777922 -0.04390467180275019 -1.370206437779866 0.9104355998311352
Ni 4.527713670884887 8.034726476530253 6.9674501294564015 -1.0724030148072885 -0.2628032527483087 -1.1422344337781296
Ni 2.1002609067314513 2.873455187132255 11.207344372236001 -0.5439235586382503 -0.5068526219278819 -1.8537388969245687
Ni 2.711761375219481 -0.024583124108943585 2.755572077065353 0.7690642638387787 0.6686225761812484 0.7733729185164616
Ni 4.4696690264000845 2.506647466467574 12.03315185119852 -1.593566654041204 0.5237488834625884 -0.4127805852421214
Ni 2.57855766308732 6.014826533507468 -0.1515926923901673 -0.29564626742025857 1.0075556793146003 0.7757547884850768
Ni 7.64050235705135 1.2024154977583588 0.3300612306942352 0.5626267914747085 0.36787215476520513 -1.1941648040988337
Ni 2.940876202987349 5.219167837197779 2.1424416194378284 -0.5490860766757962 -0.4683776057811353 -0.22127093783247698
Ni 8.30062481843982 7.368781964211955 11.595673318046849 1.2473619569471035 0.991257713485525 1.2275873454233373
Ni 2.128445557099211 6.036772611018784 5.524678339932919 1.33343220637431 -0.928374186587427 -0.16667973285015814
Ni 4.042058360492116 4.954445012725553 6.9500830163250304 0.8878098920118194 -0.12727834823440015 0.09125025096624931
Ni 1.973443864140753 3.7703935039096033 -0.33130339163983563 1.5982710014954087 0.21202216554069936 0.7155320962485935
Ni 5.126885090345049 6.4001555958423895 5.270981313660388 -1.0778612097083824 -0.7029411469574603 1.2896771727755465
Ni 3.5803021526443546 4.960304087826635 11.482243290177626 -2.127237424603195 -0.5701902056442631 1.8582930919541545
Ni 6.031367082015575 7.003140504941802 12.297293396182043 -0.8538265930878393 0.39717938836975464 -0.1692220396560376
Ni 8.972530222330148 3.4010311154283377 12.582854349840785 -0.18928795716797722 0.3044582092849337 0.07068425388943955
Ni 6.7000606390495445 2.689546872466567 11.826069182140134 1.1514204711527718 0.25045604403686544 0.8935377956345322
Ni 5.290457878949006 1.3400250862698482 5.906315166789452 0.24888792821879716 -1.0211670994504478 -0.35232572239017385
Ni 8.315934313253704 1.4330945967617443 8.708462725689133 -1.280720477802891 1.1594304859414422 -0.4241055233366373
Ni 4.5121079827009645 5.73243392330386 9.402307727860808 1.1837832037541935 0.8292733292285073 -1.5024984371787735
Ni 3.473422626274396 1.7690426706855018 9.297723700108651 0.17490880562816974 -0.7692959202336105 -0.36594177051171173
Ni 4.6050016283794 6.91055230867622 0.8868547837360883 0.4964298839326612 -0.009637780200080175 0.9515573095721095
Ni 4.919531219232224 0.20425772479163845 1.803438125781264 0.15869800019626215 0.6487181239478376 -1.7564930904965168
P 0.4655956144068897 3.7518536501537336 3.0115590483299965 0.1690194367269283 -0.8766361347831871 -0.5997527497927284
Ni 1.994501361541953 0.00025639238593988376 6.655812126378584 -0.5170853553994836 -0.693167098289832 0.5746166168467329
P 0.47837820953262905 9.276406107904386 2.6748584581254837 -0.10539414656679913 -0.31873965890461237 1.023603219695766
Ni 5.706905757223637 4.90663755159272 11.56397322261844 1.5081924022397575 -0.8367763224737718 0.984535307160027
P 8.03726263226121 5.253970558177345 11.768466976501829 -0.0070083129970330916 -1.04257770391574 -0.6916244363930605
P 6.233852274608387 7.0719129030477 2.7534857650151423 -1.1611227860422002 0.17809234556247394 -2.0471375338268096
P 5.88671364492285 7.056112837964689 8.30768440229384 0.4025437380054616 0.7378888666772389 -0.14678402236749558
Ni 0.4178779368893488 0.771723495197704 11.024295018343427 -1.0035547856853233 0.1866104103358141 0.6529571017298497
