# total energy = -340895.97256665654 ev
CRYSTAL
PRIMVEC
9.03887583535003 0.00000000000000 0.00000000000000
0.00000000000000 9.03887583535003 0.00000000000000
0.00000000000000 0.00000000000000 13.22930844861077
PRIMCOORD
 96 1
Ni 6.337517445642098 2.0583057023836635 11.210674627906847 0.6144329775127224 -0.7852437018121187 1.2932497206181535
Ni 4.58666006798113 0.5266898751277886 5.868296743460359 0.40588077279849455 -1.075686827764883 1.358583765939273
Ni 2.6383846018780974 1.332809367476202 4.809369835067476 0.11275598624850904 0.47863347918118865 -0.43452286201521934
Ni 3.3064298415913016 4.274394022405927 4.87084594169817 0.5805610073556259 0.6245243003104535 -0.7560261997078979
Ni 5.007329352175704 4.519483142322899 2.597587635522012 0.6873108966193712 0.9514259262005679 -0.0017586345623195518
Ni 7.275391208599316 6.024076346200431 2.613806994429591 -0.14346704217912065 -0.4163839863226635 -0.4557691729885054
Ni 5.139450601145882 4.328699588788416 11.690118298726837 -0.24542645203275795 0.42135598561595816 -0.035940422650351
Ni 5.699291457509425 7.862592742299709 12.563940779310622 -0.6403062457350586 0.19261984975468763 -0.00472285939696606
Ni 2.0416018597280643 6.632718093525867 0.373820790426192 -0.46605358563364896 -0.5695993661377996 -0.6585533648707046
Ni 2.9315966970647707 1.7167536989057872 0.14812186708107683 -0.6000965062853924 0.1559438344898927 1.3834193369257142
Ni 0.7062272592726097 8.87111435925918 4.429370972966445 -0.015813827103805023 0.1602370625486079 0.2607890505317573
Ni 8.76444658481182 2.3321022921459718 1.4061824425610636 -0.196989439577293 0.7831053153128771 0.678650906951528
Ni 6.75720149236402 0.6363630758105316 4.702820469894351 -0.1456077426712073 0.31981206603318474 0.34792270822647176
Ni 0.6441771840225257 7.324020360919188 2.3458739234609447 0.9326105932662777 -0.24410284812532798 0.49187620312370767
Ni 7.7719328170639645 3.7205820962649407 3.7385893448247263 -0.26785752734276447 0.19227532193107533 0.38581151285244525
Ni 7.5812306134125445 3.8758790230321725 12.644586533941313 -0.21089293703226258 -0.3173384076817115 0.13933733628146325
Ni 7.9400920642310435 9.027224784857042 6.786145780757829 0.3830432060786887 0.060019060866109544 0.25450758839841975
Ni 6.825119605845714 0.8648179524163027 0.40685697793806885 0.20271040122147022 -0.5186264746343584 -0.5147181407188878
Ni 1.9384321302524121 6.341774756189061 9.08533391021652 -0.4952934563353728 0.30860205624997816 -0.14801069568574507
Ni 0.21741840913689328 5.036787048720399 1.3585177382992835 -0.1919109966131211 -0.6845970972326338 -0.07590179353463702
Ni 6.482564287143395 1.9515204225496563 7.185975032686846 -0.6543017886832021 0.30395504439627 -0.7897068797897948
Ni 3.354905333020943 4.334276575216178 0.44856054354651154 0.6101268939382009 0.3363969669750594 -0.23603678328774189
Ni 6.0727054985203015 5.503111695065097 4.678135299822684 -0.3384142545154043 -0.014210744282743267 0.7266364336918713
Ni 5.412930830251834 2.941286372025161 9.288284694594454 -0.21702758917509077 0.6110923431752637 -0.7071222749183436
P 0.20146117763029464 5.747369238399647 12.417320269515852 -0.06648512820642744 -0.898552218129988 0.41838276192024715
P 4.161055557547402 6.085260497139689 12.526422213241974 -0.6362171632673493 0.6248348895723369 0.4554274733783705
P 2.427146072191222 8.549601543642485 1.2760660162645934 0.8736256300916374 0.16811003753878145 1.006445476969557
P 6.420349704352006 7.75638595052304 6.003327606581423 -1.187575323806774 0.5786671327670228 -1.406544610089268
P 4.89568115710971 1.0233996066840998 12.513219127220852 -0.23316588949785005 0.058195634504125585 0.4179536448026286
P 4.136894642277697 5.9987765325678435 8.20734360395714 -2.1178104748623396 1.1632750564985126 -0.9337704179023337
P 4.660191323394169 1.0756262316105338 3.7016131113098325 0.03625126902255047 -0.5592830718134562 0.37812622839304555
P 0.14155602763030461 5.5375046178489455 3.630585624519954 0.8205418628927803 0.1895895475687961 0.6583988415707113
Ni 1.7118817447979044 1.1770153025346966 2.532671332725342 -0.3364350193018464 -0.16815220363062655 -0.5362017645139604
Ni 1.7331682975327178 6.435236732952531 4.972830674543872 -0.20640533357455418 0.9606063071482552 -0.6042514089940304
Ni 5.936995815819457 5.597983736468325 9.19459403427082 0.5922381865832381 0.5432766690828708 0.680976212650595
Ni 8.60694417232599 2.4178179522666663 10.31114829593793 0.4738568837281517 0.09639708527451141 0.19296077803387413
Ni 2.335003771308551 5.241833948418592 6.885431505261018 -0.3271844472378559 -0.8165671945157486 1.0729753423709907
Ni 0.39117272048352597 9.019568856973224 9.358346829438654 1.2372672917152627 1.4813272024177973 -0.4132981483084882
Ni 1.5764251506221443 1.1053008611767303 11.411165030265924 -1.0424404070069273 0.4181259087144347 -0.1567907558712203
Ni 4.26173055727579 6.983525905921131 1.4622225692279724 -0.7629164990698281 -0.5142419724134176 0.3648773338029393
Ni 5.593265443250672 7.890739801839501 8.08634830732721 0.13597844711155938 -0.15362547076936123 -0.2760331211750214
Ni 5.247528440233001 2.9433110802258393 4.708033189623508 0.3977722847587472 -0.19683697315982876 0.41988274350454136
Ni 0.6823727618957747 7.6334301217112905 7.2495951606800455 0.5999394118822376 -0.9376234730998368 -0.022687157184870608
Ni 4.874765198286627 4.440130850832909 6.97139573446885 1.297543720007817 0.11750892755246213 -0.4224965269783046
Ni 8.129926535796459 7.206053991601968 9.298153339297583 -1.3420248331393274 -1.0281980381553002 -0.44809340161080247
Ni 4.560031539591848 0.1935639117600583 10.288406484183877 -0.18858193223988812 0.4508018016809011 0.48901353686393206
Ni 7.991966172997538 7.307189974001047 4.464495140810271 0.053478945754746605 -0.0071834051223166615 0.9042729226638492
Ni 6.967274007060327 6.0053929897236324 7.0376217703828345 0.8655410533112899 -0.8069651526496102 -0.045623197155753685
Ni 2.382991163439814 5.4608007169964505 2.729007467722669 -0.5031458625002562 -0.6278194261219575 -0.6743327391921483
Ni 2.3125602424590643 5.19973086449555 11.454557057891718 0.1509055007350369 -0.016220318513604323 -0.16610894794835263
Ni 1.1854124182419756 3.2911089469477735 3.839436083195136 -0.43148638918174076 0.30485261650987494 -1.0451655192475742
Ni 3.726954503771541 2.7013042169893655 2.4925079915695587 -1.3616094401394743 -0.8433814864951154 0.45532668613444804
Ni 1.0804529913389376 3.4095724544392665 8.218535540091427 -0.2243338930285169 0.6290047046793102 -0.10870212789410957
Ni 3.503712346894928 2.6953656755257676 7.109840581015791 -0.03638342372504056 -1.2261716960227336 -0.17629694422494802
Ni 4.131055528448954 6.708156551752939 6.0935120869450445 0.39050300479084354 1.2372351529257464 -0.5847542195013672
Ni 0.7969703421665968 7.358982732884479 11.170418186329336 0.6663738893563879 0.022453701017825848 0.25377662376966614
P -0.02177284425801222 5.608034966464551 7.966610318334396 1.0807197622031 -0.03802584442447 0.05166117581971748
P 8.601041786365977 1.7394322385285674 8.091495043262327 -1.4770393736757208 -0.32370445910905543 1.1904189639031562
P 1.7752623425798628 3.2775687108557348 10.44025236813406 -0.002967310158440051 -0.32437217460004136 -0.1090145169282058
P 4.111540595389735 6.154769452779059 3.7708029946300776 -0.18283808777757543 -0.4456840208383614 0.5113032015000678
P 6.877454697282898 4.110220919508935 10.419205345610488 1.2150781572127332 -0.5858639076257781 0.9349880923595189
P 6.030105276422987 7.69070043938763 10.3396704688274 2.549881790013273 -0.7232832009489221 -0.223036514373332
P 2.2634158742131274 8.453680992635334 5.961219099332843 0.9248576887937362 -0.44305043987025633 -0.3062808643159693
P 6.986382190704231 3.9826823806179714 1.6412013508424277 0.030030742034135374 -0.2563374425183069 -0.3402983589119946
Ni 5.279010844978375 2.8508072243073337 0.6226411583129857 0.16356201315678282 0.17804143771988046 -1.1233697356631427
Ni 1.3161416803241868 1.1660601849488819 7.082799879885656 1.458949091832913 -1.0142222927014983 -0.2635812685649138
Ni 6.973574103559759 0.5072617152771695 9.199264421446223 -0.17889375841784674 0.43190213656292065 0.4603112838332331
Ni 2.6379778524627824 1.5907336911653331 9.157922410873617 -0.23477874251092468 -0.2271381952465314 0.4437248402294616
Ni 6.384646144563253 1.9853077406484814 2.5626098974676985 0.39978802963719534 -0.09071751839123086 0.7452923582301617
Ni 3.989985792341848 6.67138640460847 10.296966299657281 0.19720129847778298 0.8161352491846524 1.0444286410815498
Ni 8.08865502845584 7.283453885898448 0.39873825960838327 -0.37569859278815937 -0.24380331460703816 -0.13110106441460004
Ni 7.550362852228091 3.856761800512372 8.335774279899027 0.8196975126146141 -0.032812932764962846 -0.7378875811256583
Ni 3.1835644015385123 8.53284346773151 12.30164254357547 0.3522581023770321 -0.8987355377853876 0.21811593714326308
Ni 0.03613109861862846 4.9494263131866525 10.16190831990853 0.10160022674200568 -0.29636360520225735 0.48611076139484016
Ni 8.662108431918588 2.2002883649562537 5.801859197850411 -0.5315269847461105 1.3324377036715247 0.31190181004717255
Ni 3.77051284671382 2.4606622240131704 11.257704803080737 -0.325853130020942 0.38876982414982075 -0.6522050540551735
Ni 0.8981515189451542 3.487333903771581 12.58242166496735 0.7814484964357444 -0.14911009939751096 -0.20479093789958278
Ni 3.306375608335926 8.447941306441445 8.039596529530915 -1.1468523921661151 -0.1713938504963758 -0.35002252817829393
Ni 5.5578420886146915 7.814243795132612 3.790699368252104 0.45208092550364076 0.13528167815485087 -0.13400898209001436
Ni 3.2059808137603114 8.178040472190265 3.700753514212134 -0.9989566247916797 0.40240695531728116 -0.4257060350545378
Ni 3.409789387460768 4.165095935072864 9.128791921636353 -0.630272001427508 0.09167782542197114 0.7478477776621636
Ni 7.152480574167047 6.074287301802082 11.498068398679338 0.3620025833583056 0.20938009993216194 -0.3813128536511433
Ni 0.5821560331753086 9.09717664541531 0.4016749903869569 0.010695532040633192 0.16991700884053318 -0.7044305870187932
Ni 4.588124365876264 0.3188951571572461 1.6017385225685752 -0.12742130157016765 0.4131875908725529 -0.12303731356985906
Ni 6.066324052137806 5.634808116868168 0.5149944736061006 -0.33026540015602474 -0.11202913538481352 -0.49800648439116163
Ni 7.976012557041297 8.711108178150191 11.437901121278367 -0.8945400116468013 1.0371771017254587 0.43927426065727576
Ni 0.05709948292190675 4.742201044397551 5.841864358678017 -0.4423199894621351 -0.14878382640634377 0.16088035255956165
Ni 8.100839433163495 9.003768901907215 2.3844509418970006 -0.7538232785193083 0.33561252340055103 0.38865232473535
P 8.461933486328277 1.5645751843226365 3.8153456711574183 0.686772764727714 0.22313575895535764 -1.9808483236812726
P 1.7828188428288243 3.400750511564881 1.4879661916670477 -0.08983614422754206 -1.0517681121657565 0.8284233225233861
P 4.696952431662741 1.2110376314068145 8.382460073901283 0.26332390113846904 -1.0563829852299484 -2.026705491224703
P 8.58222284675074 1.6777690271668275 12.546716297403417 -0.38127480132435626 -0.4485626279377371 -1.3527784721114058
P 6.301000387022716 7.76051671680746 1.6452498633561954 0.7088163747913148 0.44884596350611083 -0.5872019097109112
P 1.8412551754957327 3.039376253247325 5.8523548780427825 -1.2779953655622442 0.9793691895780553 1.4673787106575054
P 6.783124988433424 3.8874035897994283 6.0463625986093295 0.9867662533730747 -0.17015226477979084 -0.3953575046696675
P 2.4235757162123464 8.414388999115914 10.12626803225105 -0.44996670737411537 0.14136953622014362 -0.029371254073265546
