# total energy = -340895.8576595132 ev
CRYSTAL
PRIMVEC
9.00080632645238 0.00000000000000 0.00000000000000
0.00000000000000 9.00080632645238 0.00000000000000
0.00000000000000 0.00000000000000 13.17358987421522
PRIMCOORD
 96 1
Ni 6.324839625586919 2.1130022982649823 11.4850514152586 0.5126630579620719 -0.28734468953309866 -0.23880406162023388
Ni 4.652966846944214 0.5366415762938087 6.016022859512886 -0.30662307814673645 -1.1182100458390742 0.505626977050897
Ni 2.7961815024757564 1.6688575085126616 4.9715287860624215 -0.8751019575268477 -0.5605789078067444 -0.5149965911912551
Ni 3.4572637270768043 4.288749217653957 4.588427465032367 0.16138840254423176 -0.46280551100999645 1.1098632165362756
Ni 5.083997461832431 4.338388664720206 2.6175659007783003 -0.11269505110358656 0.43169670542033395 0.509320109631768
Ni 7.335765191723952 5.972404051819732 2.55862772066325 -0.49842428865487065 0.7546375468904875 0.11325683714432754
Ni 5.093880347213889 4.602850357140972 11.270533397158996 0.37326350098410555 0.0004643412309282326 0.3966209447631234
Ni 5.662650301803795 7.673457444676178 12.527899241226125 -1.1832995792495555 0.12971318292813788 -1.105695201201515
Ni 1.8771361676446647 6.223643559700094 0.2787126691279266 0.38125628938159495 0.8551321992731401 0.37895386650066354
Ni 2.507426633693829 1.6101272470244885 0.28025270709583866 0.7137809178854417 -0.46577410672001723 0.785398482222428
Ni 0.5839795171742298 -0.04942792811682783 4.891485515198334 0.2713521707595843 0.610131264813575 -0.8550491526410307
Ni 8.460505954262203 2.304683470472205 1.5448533993138023 0.7450758713439813 -0.08627285235631593 -0.13158623158113467
Ni 6.832620116292708 0.7240500657227273 4.840873080964748 -0.8403288157117205 0.32409526678957085 -0.1696357301546885
Ni 0.6711262244163201 7.198601903629198 2.266687466511106 0.30896663867824853 0.026383889310167465 0.7600247793443298
Ni 7.760657256675782 3.813596649997153 3.7170468003525046 -0.47586645795901267 -0.7632846810425241 0.5321085682811932
Ni 7.469040131471902 3.923001451282784 12.604609513495719 0.9434261958245429 -0.21169255011542248 -0.14026781851553263
Ni 7.89524631415205 -0.03726243824289457 6.761476842755748 0.33480519700790723 -0.7714003681711231 1.2667318768332827
Ni 6.772899766105117 0.4868401147131097 0.3793074811500136 0.8171063548486701 1.1960599642390175 0.226211569667204
Ni 1.841447970433844 6.380815640329439 9.097536224112492 0.7258638171919047 0.5202239010284654 -0.3821597750324709
Ni 0.034122056904469504 4.871929463223567 1.320348986559618 0.5204756120279552 -1.0460718331119276 0.0057746977002481195
Ni 6.322112381260341 2.0876110235281033 7.007822612219081 0.5128522911547425 -0.18934503565815777 -0.4229189592277039
Ni 3.335977861398163 4.213907512784354 0.36337335365384316 1.3593548397773427 -0.3052783911933839 -0.07068399677912343
Ni 6.136326737217832 5.647933983407909 4.75757601860212 -0.617187400329408 -0.00935624440391937 -0.537518683553171
Ni 5.309503664334298 2.9451898517380863 9.365013186663301 0.5634582862370683 -0.4781516544487637 -0.43414593829177484
P 0.11358477575844433 5.580571948622087 12.40248740591282 -0.04925668014328291 -0.7136413069837839 -0.8208205704754639
P 4.12638367175585 6.068811688723918 12.553759457974273 -1.4446342178721379 0.061957672649719096 -0.611650786781895
P 2.327473512171524 8.253352395924992 1.2696510446656284 -0.45441240185029486 0.8738212910422112 -0.18219145533251202
P 6.267180460055388 7.835885996218793 5.691069447799619 0.3129497916957127 -0.9916559773652082 0.543245044513987
P 4.485272823681968 1.0692147881136473 12.599590663870307 0.6621032870054919 0.21130585619996511 -0.4291659685786802
P 3.9604268041207646 6.155066416055897 8.103246848367581 -0.35404579040507417 0.9699070157238908 -0.2909511759374344
P 4.562103706756765 1.014516887874011 3.8124499472671003 0.42715099503118054 -0.8643264641778985 0.24778261096976034
P 0.42300729610039345 5.407342429449462 3.5450917953602206 -0.6080674403060109 1.539797173629232 0.723037146376387
Ni 1.5129095375480512 1.0895026056453472 2.7165783710425915 -0.7458232910329672 0.14738411784533972 -0.2244125687852522
Ni 2.1524978365653813 6.389753441043272 4.745061297441484 -1.2488508827878042 0.5086372246321305 -0.07594704495027566
Ni 5.946481729507711 5.529096337058736 9.014331870055356 -0.47284952550955983 0.3893303246389811 0.3743490207388005
Ni 8.733545415142467 2.447229240769247 10.20091627300113 -0.4454397660380393 0.5653783860779166 -0.3720080313104496
Ni 2.2610385604406114 5.1528626312800965 6.930507485762206 0.644385815121071 1.4617166272757214 0.38394926283272585
Ni 0.34814218913425904 0.10485039326831054 9.319866942131137 0.23127561445367265 -0.0002982479667091638 -0.18797849432793434
Ni 1.3424882699592287 1.1051730095152184 11.429749560912319 0.3007715044619658 -0.5295485208635009 -0.04466468989722631
Ni 4.036924657360302 6.857849376515137 1.487654174987183 0.30572447759186705 -0.2474936189744318 -0.028679884433195767
Ni 5.6374390431940835 7.770882172698856 8.026550077307524 -1.0047202667483341 0.8779435407407009 -0.38007898124404216
Ni 5.305993349854545 2.8804380507961835 4.758933340200958 0.5972456671001585 -0.12671579086271081 0.3054843365566029
Ni 0.8101931830558626 7.294469492151885 6.835485973037203 -0.3584840286820858 0.010779350003691113 -0.029663588502703748
Ni 4.977976963737536 4.640302712398028 6.8945168614577454 0.3325714225813821 -0.30791094372022454 -0.429445447492312
Ni 7.8165702657737945 7.254037869990218 9.092846803999796 0.6164996302337641 0.22647587907218414 0.13022534667786603
Ni 4.71254318423007 0.609988247227291 10.419018412192626 -1.0022694912149965 -0.15750860787385132 0.24014412058789608
Ni 8.2321554969511 7.133634083334695 4.684818000404474 -0.4500551533228636 -1.0307596282348894 0.15862600930774615
Ni 7.175244811129304 6.204048804257987 6.9338008808087235 0.2884597769741484 -0.6199539073309517 -0.11180750629231068
Ni 2.4420177738877675 5.077174850612809 2.5633702455334597 -0.19424838649704612 0.9562611428056822 -0.707189123600537
Ni 2.437670384416689 5.334147872143435 11.28202022623351 -0.4719388407698324 -0.5323291689324315 0.0894885310801362
Ni 1.2138667470985405 3.412268696091459 3.8038343754208968 -0.6346999552918746 -1.2968055562902117 -0.014038737481253243
Ni 3.6204933503853125 2.4295516570814657 2.600558877164216 -0.37880731362047015 1.0889508918636408 -0.6582605162206341
Ni 1.4174919893432816 3.218661351323551 8.160894312850845 -1.3989793961475003 -0.10363602622511184 -0.052907132411676626
Ni 3.6677925877983926 2.6723844118231384 7.093925225923604 -0.30026474002887643 0.06359469403250982 0.08100723308200242
Ni 4.20476269352428 6.933546157988783 5.944451147593268 0.10342468154525415 0.3718704772913208 0.03525188122375864
Ni 0.632396654737016 7.265729917449703 11.097498295403708 -0.5890834430043403 0.20440218710159638 0.6581437881371117
P 0.04512734283881265 5.674999408127439 8.084118334694836 -0.019550411328101813 -0.23807643942558998 -1.0519959119058462
P 8.544285459845637 1.7976770491132334 7.91662952981756 -0.22615192007386214 -0.92263394166954 1.2978702501093005
P 1.842789090581237 3.39501415030252 10.389865700478596 -0.05747392584675263 -0.5396876661800318 -0.8116795274061441
P 4.114970649293474 6.134769597717838 3.6581086202374538 0.004614873064192053 -0.16803110467172996 0.2542232243887815
P 7.000854187936453 4.09953426638892 10.25653585581186 0.09028223062602515 -0.5852607268241404 1.1883960199358565
P 6.043267400278947 8.025136950709264 10.212140278529981 0.602385302319569 -2.2270746459075066 -0.22717367647015715
P 2.438201431991831 8.47934464197021 5.7720218001059 1.3237771997830494 -0.593889606143732 0.1595523777767575
P 6.950188648945354 3.893541812071935 1.654181693745387 -0.006664556504369167 0.03044468964310241 -0.18881230308313934
Ni 5.451338370929031 2.6690541134705525 0.6171060848954668 -0.8302670606003443 0.45318264320825175 -0.2116714670695
Ni 1.3104724017426108 0.7250626564380407 7.186430113190814 0.08501198336602132 1.3205234687324419 -0.32590455208416774
Ni 6.986578909052126 0.8182813076494677 9.143182913478181 -1.1144960873225966 0.3155872293185597 -0.1114696633369177
Ni 2.74126758288352 1.5948978826661762 9.378950935309192 -0.07474402578110999 -0.5266349467611318 -0.6837707446765966
Ni 6.282346818769192 1.5766982522096114 2.660985790650936 0.631349550762403 1.1021252244620696 -0.18410949829083129
Ni 4.00124546095584 6.806418768983578 10.321520777638444 1.2150226213844495 1.3543229337803901 -0.30137134282949385
Ni 8.098142491081765 7.215685434097329 0.15741150207847676 -0.38013708817548725 0.2257068621166435 0.7459832136495991
Ni 7.579137994847125 3.7881063663903323 8.152792687047702 1.2150269922598236 0.6298171732782766 -0.19324488493319622
Ni 3.0632894319658743 8.256862710404745 12.283858578271161 0.2722163185320925 -0.02134504133467937 0.309563391721983
Ni 0.1692223601818914 4.912712116833208 10.119016135785316 -0.4797760774260641 -0.26750117244461025 0.6043144010214817
Ni 8.856604439673701 2.3525317570731445 5.846201945708165 -0.14658321921059916 0.2724338338595373 -0.40563189001248207
Ni 3.6450475501308657 2.770151170487435 11.369137230814617 0.08538325066251101 -0.3632634523486002 0.784838753064216
Ni 1.2064950866910593 3.476525452683653 12.503251433094443 -1.3857315299986586 0.18722387555009692 0.0968223457373881
Ni 3.0139470115094507 8.462009088924045 8.087675453367652 1.4190900508544462 -0.9627146117405098 0.12121825808324929
Ni 5.435037910614076 7.899647708461279 3.4719395418440784 0.6099345754217367 0.08469445212560252 1.0982575139765471
Ni 3.0318676169689067 8.232875561459768 3.3139348866265874 -0.3124160306794297 0.4155046690415038 1.307234979153652
Ni 3.528613119079371 4.336210469581488 9.148425883181915 -0.924629374833014 0.02485691114267977 0.17945760134111674
Ni 7.191095231126342 6.104742907706414 11.269320988542527 -0.08509220178465345 -0.03278799306429837 -0.05127113947015042
Ni 0.501728348510441 9.153910074496052 0.5983349032351474 -0.8985766436100201 0.14547738774093008 -0.603672910782741
Ni 4.501375266257039 0.30940991921304745 1.508059903082177 -0.39377344801199926 -0.14900956926390466 -0.3508499091755958
Ni 5.809021414803131 5.468763932038779 0.5456027791041727 0.9369228474883864 0.050449672010119566 -0.27666047034637514
Ni 7.6429897151531945 8.742249194890983 11.319775908664841 1.2486925028330687 0.6042753202534303 0.48441177642586253
Ni -0.021082588733141366 4.827195455622613 5.8274955698536255 0.20753996139962963 0.3528972786229277 0.009150556151016499
Ni 7.792700127311475 8.576022303065148 2.7795219099871034 0.47160973956518776 0.619200574104695 -0.46688559461664103
P 8.489317535415251 1.5159698117098868 3.8165336131118797 0.7086315124740183 0.6191956890086885 -2.159313993422765
P 1.7827177089456712 3.2725851822163703 1.5657730734518576 -0.618560883638167 -1.2758222691703254 -0.1109346167690541
P 4.787780924579439 1.1634622314918326 8.22705203974592 -0.7346402778329542 -1.0119885182749733 0.14011046700206192
P 8.44018213350507 1.6798474930761955 12.315752035521307 -0.6965907792594003 -0.08240565609142582 1.2321698225876971
P 6.238665905512166 7.678650909944939 1.465364578121388 0.7350915064377598 -0.7074308072976978 -0.012689936762842661
P 1.8519699130667442 3.407885303394947 5.929775332825994 0.22242870558600403 -0.8036160336717193 -0.24296384942487834
P 6.91234925901489 3.9269438044677374 5.970139448939973 -0.19424427273198805 0.7528213196173551 -0.6394834927234471
P 2.2205349318280785 8.366699550395577 10.198676872379174 0.9438949079308454 0.8185322886619193 -0.307315990448703
