# total energy = -340876.94059225783 ev
CRYSTAL
PRIMVEC
9.22943185722611 0.00000000000000 0.00000000000000
0.00000000000000 9.22943185722611 0.00000000000000
0.00000000000000 0.00000000000000 13.50820644831811
PRIMCOORD
 96 1
Ni 7.560325772122116 6.6084760374806475 7.709659820491642 1.937690814457192 1.010270250032286 0.5262364257711324
Ni 3.161107994258883 5.551650748386515 12.180119580491336 -0.03244500790258283 0.1128716858907669 0.5486561882272293
Ni 4.348059038780139 4.91596442093077 6.2659303002085025 1.6918319028727056 1.7000373215016333 -1.2733357553030458
Ni 7.311315708896087 1.956584112065931 0.586357784649067 -0.1880080620142891 0.38493193846096935 -0.04700053711925454
Ni 2.547572302523764 9.005525540851211 4.922727748370801 -0.8641691126644279 -0.6877798658359897 -0.8585309405420439
Ni 1.7611232106945138 3.5213880842548533 9.723557779541535 -0.16133980869448344 0.7122940489272701 -0.45610393062010485
Ni 8.956009640584064 4.930685364253436 6.171750411840179 0.353473719951688 1.630029010633296 0.36478117454470727
Ni 2.1859447155214555 4.529149715227801 5.103927332110755 0.9415706306730428 0.33835666180459145 0.41705607268902367
Ni 3.4118070434586096 6.501802267622735 8.06065694823436 0.26570859932056173 1.0578752535047586 -0.0014238769307201285
Ni 4.607636801131216 2.396292689983443 1.110015426061439 0.7177851539488282 0.2749902817328038 1.2041124022298488
Ni 4.8333056319666365 7.465936375657601 11.90116185777102 0.10740937722461502 0.6040583191466178 0.20277827834492818
Ni 9.099259647675657 0.27927429222248845 7.355812644286203 -0.4126525443046893 0.2564053196417649 1.8936994964779061
Ni 7.62639927259043 5.183165693742362 10.309071071203753 1.9325738049456005 0.12789335611057973 -0.8842075193725418
Ni 6.041225944970083 3.137859056183777 10.396064001223888 0.47786626199786086 -0.3722065204745009 -1.0494788019109473
Ni 8.571179262664401 2.7692355600663707 9.703146891668133 1.0467801720328618 0.29944764344421976 0.9641816832043394
Ni 0.6799211469898332 3.209294856382793 7.210869036505136 -0.38011600512956467 -1.1650928264335418 1.5123275074540536
Ni 5.436448983776162 7.51616294215412 6.372347491869316 -0.27650826103922704 -0.5707103398137913 0.3611289225041006
Ni 4.382549424483463 8.681018727544052 3.1684444693981852 -0.9104993631895351 -0.49765038660332356 -0.13889484942740596
Ni 6.385769854172859 0.011297747160673919 1.802791325314475 -0.16723046314730552 0.0021558700007382227 -0.24583757142824758
Ni 0.7678056400977239 7.552969915176559 0.5840301220120913 -1.1824310606016732 -0.8231667021101371 -1.2715462675027907
Ni 7.7648684341389895 6.951672449677084 5.184408898172182 0.4123051882675996 0.2668661099637727 -0.4190206526145622
Ni 7.408630835162034 4.16742060447844 12.533386225452261 -0.14585302591279395 -0.6580733399104924 0.20503236448642753
Ni 5.1339359058532725 1.8959375173491693 3.558791278555439 0.9950493193174733 0.0703536100228982 -0.647537216265859
Ni 6.246008572207265 6.787351650356246 3.174252550672764 0.28382356375371764 0.540470052872011 0.0013372307541847936
P 5.098836377667632 4.064503213261485 13.034135494813734 -0.010822544536800717 -0.365454546462648 -0.06838337367040481
P 8.096546515760702 2.1325616834347487 6.325906838194715 1.4088092377537287 0.7057469918373716 -0.37430454065411023
P 4.275248053280134 6.461617322652901 4.185841626909604 0.24036266435660542 -0.26045506423110626 1.0536133929046112
P 8.618932341505449 0.14868614227469718 0.47134706927180536 -0.4999741496404938 0.029492867252794364 1.5295122467634563
P 4.253032811538656 6.426960807181673 10.074501376581262 0.48870269049173254 -0.496969301375899 0.4039172213142205
P 3.9096979578689646 0.3131260012625341 11.638521770031566 -0.34331863379555716 0.2430954899067362 -0.3459108200027656
P 3.2145925500926427 8.648927994043795 6.970206994116317 0.4914383442553408 0.028758045969298863 0.7229373875737292
P 7.471086398462647 1.908849492087984 11.41379895593005 0.287287353932602 -0.6789982629886178 0.8406543173719394
Ni 1.9315908114278257 1.3286320482493053 6.680037357948747 1.2167349760898658 -0.7423294189470958 0.6936921175553666
Ni 4.345087161820954 5.374417974326861 1.1143800242415571 -1.7990571891109726 0.16177303957716008 0.06863662733179147
Ni 1.8415761655181346 8.363489364488888 2.3934518709522736 0.5042172411875638 1.8220053132667138 0.35948033115708417
Ni 1.7037992113358456 1.50841214541683 11.419594116000455 0.7747379171847883 0.020694809345190163 -0.2950646838851757
Ni 9.441616181601022 5.092957229770116 8.717169487983266 -0.7129159987819851 0.8781502574348683 0.9116913266151074
Ni 2.080636901532983 6.5799940117165425 10.141258777927453 -0.5197405336341436 -1.1187450924069378 -0.4913247014956119
Ni 6.985941329023202 0.3004567605734914 6.110207639319887 -0.07842918794218105 -0.6381506328446364 -1.256272886283488
Ni 2.4430213019224127 6.235034778094006 3.1026460059900676 -0.17556263716208476 0.7536836676176505 0.4379259741594974
Ni 3.7721332806123313 8.559670161521225 9.55971691066131 0.1921053720121143 -0.5071395570406814 -0.04273044898899092
Ni 4.90535057464797 0.9240414573805342 7.680253005686201 -0.5797140859742984 -0.9393337709227242 0.4523843156766726
Ni 6.9043531541188985 7.577372532195447 10.294590093101395 0.34025593570983337 -0.9716764489194879 -1.4652313252971991
Ni 3.076003405933931 3.4498599897403337 7.379722409660308 0.11316967674715994 -0.5306301839634538 0.47827738139335046
Ni 0.18149307966325326 3.0084439669860235 13.127625944645253 -0.606312405288117 -0.7776432637570414 -0.4982376265653613
Ni 3.001688023091233 3.970676812121536 2.686862883480296 0.16153598386568954 -0.8131882507411866 0.3259050663048
Ni 0.49274642926423945 5.5918449227878995 12.064935351800928 1.3085557548476043 -0.8177977244887399 -0.4711281719430789
Ni 8.721295966829388 3.9635055438069835 1.7483404479974027 -0.5604557519653186 -1.2471688670996908 0.5608357610125566
Ni 5.4911518245745565 4.527802218221463 3.5303830882437373 -0.9005594783680039 -0.42518255845090003 0.3894424247368132
Ni 5.281791399288447 1.9156054359827743 12.42807656557748 0.3810953383236985 -0.4915879824593276 -0.21822803724109516
Ni 2.3631867190126594 6.7926031969083445 5.974260881414014 0.9435328966057364 0.42230009469678237 -2.788028420555166
Ni 4.199012948674982 8.90558002659344 0.528685835720954 0.4147302527693244 0.15985371106726018 -0.5791286457844735
Ni 1.4744755256065223 0.6908783281263025 0.050182265225076565 -0.10797424858914953 -0.7989967897321529 -0.9885117753092717
Ni 0.8619559942850867 2.7676480978397264 4.821754075438331 -1.617260141003402 -0.40423089589989736 -0.6982895071180619
Ni 2.3393840150445366 7.904592798378384 12.150590937189431 -0.04860541971252919 1.2777799071173286 -0.24974384846118927
Ni 1.6026538709765403 5.155468169660031 1.05249483981075 -0.43262873031630006 1.0838806764295847 -0.20220517945027755
P -0.1009413699220444 7.028516696764554 10.199870282987382 -0.4553637100199706 0.04146623756458665 0.08433295502112574
P 4.926070648478305 3.1225012820841433 8.507427887174131 0.7621320554953197 -0.057223243288527265 -0.11589376054654234
P 3.018522506238908 7.050436596696423 0.4464885183343337 -0.8138569946734371 -1.0148984928329166 1.1569090050711688
P 6.38296410698158 8.856045667463192 3.987244564697409 0.8263769815173188 0.819903200867517 1.3311770917915462
P 2.8569705363831477 1.1254553421018698 1.500937228804274 0.5057627312978128 0.7708336970343758 1.7741442279193766
P 1.786605671204783 3.647775919904121 11.862798802589209 -0.591316188989601 1.6638174199376505 -0.9813497103431937
P 4.07002241332854 3.1024734156200777 4.981191582525926 -1.141241473737241 0.22708060253571857 -0.15053294788696658
P 0.7239529190298161 7.8672966654837815 4.285249065307996 0.08384418831016528 -1.4940024838926205 -0.26273794672801204
Ni 5.867297307405424 0.30158736593839836 10.592325094310715 -0.01385516071553743 1.7669317693313378 -0.37808354808056827
Ni 1.4387483960754635 8.848468304160429 10.000246907986796 -0.03432808385790862 -0.9856719918676317 -0.615403826066424
Ni 7.759395381229686 6.7490218211280135 12.261465944289023 -0.5803108390180328 -0.9004450642773267 0.7658203029801843
Ni 6.1626206581506615 3.12168909210772 5.92540119373009 -0.16665273626696459 -0.6522855295841218 -0.30055913134084367
Ni 8.49606091927683 8.968155572504207 2.9477198450442397 0.1597081866283314 -0.08752883625060409 -0.3819774838183357
Ni 6.989346989265248 1.5966455110373208 8.255661915687194 0.23690453060467587 -0.3690507484543386 0.16805527304144607
Ni 5.581175699915797 5.7214722889113085 8.335792763349712 -0.5446267553528621 -1.0172063150304869 1.2386250912947376
Ni 5.709677075390076 5.269008636591336 11.33908486164438 -1.965543317893086 0.980914422577988 -0.16046563361964625
Ni 7.892603766794596 1.8137955765518505 3.8132587046571373 -0.6955379125148538 0.5393176844351228 0.7725388526509405
Ni 8.45775877834325 0.370690888784664 9.807511457752172 -1.016973115973758 -0.18482426496966878 0.12799362913386989
Ni 4.679054142467132 0.4244394063607612 5.465662903462202 0.22546029332347625 0.5040840580438093 -0.9115275473437334
Ni 0.5708920262002953 1.6746342076370222 1.9381307866243405 -0.30300270778532984 0.22253797747035867 0.8675549984175251
Ni 3.3927759556019725 1.741824469322919 9.261280472654171 -0.4607144328089227 -0.10896283775466395 0.9040176121199334
Ni 9.116638667284798 8.780798112033917 11.950966639245692 0.28842789529494844 -0.2588473534243542 -0.20819302160259628
Ni 0.28646125057067634 0.49818533327680803 5.154703972727669 -0.6850084737384396 0.2223340889896687 -0.7996411081843713
Ni 2.4017842017558486 3.1494973693686554 0.2405309844608048 1.7028069138269706 -1.1977895453356144 1.572256322599202
Ni 6.581544556216986 5.19725903571961 1.1547449431266215 1.2822022045547403 -1.4298133508092215 0.8004309510755182
Ni 6.773978204039919 -0.527733358384967 12.85850218124174 -0.9074330655593855 1.3318720609760417 0.47498791200880125
Ni 3.8210308089656118 3.5576043736580756 11.118334394882094 0.314537962118439 -0.689811808664354 -0.014418746528491296
Ni 0.8761102505105662 7.335672178757224 7.57409146927933 -0.552078583645217 0.30584454810949907 1.5188575952630874
Ni 8.779229108670373 6.676395424259015 2.6235092964898428 0.6169063787538794 -1.5791594774769384 0.46968089797359114
Ni 2.690231625996141 1.728294122670237 3.5931422998423534 -0.09370411182338055 -0.2769306932886263 0.07430128181673655
Ni 8.098715432175014 4.349286553176324 4.146802977338313 -1.2009010943814027 0.09082293362084358 -0.6252164412814716
Ni 7.2403136919799325 3.8818619923133793 8.266644016288849 -0.5817928228801981 1.142709316532019 -1.088927494824873
P 6.790157397547525 5.0953476525416335 6.471348835279496 -0.6555685712107677 0.7949416458261729 -1.4679896047686267
P 0.8681240233901257 4.665837596487159 3.3056602741422187 0.4676818652656913 -0.5458086914761051 0.2801044630309176
P 6.699856639259776 8.542263453617434 8.108030697438693 -0.05626165070620634 0.9664036305563228 0.6784992118650122
P 6.708744581842677 3.0793721484497762 2.47640507878286 0.4483620818911569 -0.07763651683755661 -0.6166904060883315
P 5.906725438988137 7.1568796307655775 1.0753044569440642 -0.6316002333206284 2.024296110452262 -1.4144741493489896
P 8.608567689874505 5.657946111550865 0.5227605406656867 0.9183918785637345 1.002170760853603 -1.1533320863531877
P 1.1777031541078946 1.5384631745444783 9.183067500867798 -0.8738773410911272 0.06329078963884582 -1.9502100299701253
P 1.811442071506534 5.30354516945241 7.3794519873158855 -0.5345135781782601 -1.7298384640234659 -0.5672547771650231
