# total energy = -381158.52316369745 ev
CRYSTAL
PRIMVEC
9.30942825070308 0.00000000000000 0.00000000000000
0.00000000000000 9.30942825070308 0.00000000000000
0.00000000000000 0.00000000000000 13.62528925633862
PRIMCOORD
 96 1
Ni 5.042461162857157 3.705468994789423 4.935992954850281 0.6395886508427435 0.4633685826023181 0.8895381875568358
Ni 7.615717484492303 4.555643227342796 4.589556543795959 0.7301727289799037 0.47437598945641524 0.10349050178618305
Ni 3.9006318502408805 8.815228015023923 12.586701787596038 1.6312592834959714 1.987474056527906 0.7366030579862798
Ni 6.041651414644049 0.9570464697496492 4.095135598166772 -2.332971700252653 -0.3545841794070474 -0.9920866371447238
Ni 3.5675311952652744 7.025276302267859 2.9758993371577813 0.49299874676392513 -0.16581584218796605 0.08846986000763474
Ni 1.2841704717391917 6.59630715437873 3.084751689759253 -0.6282279744142858 1.2810930306509614 -0.44696648709521086
Ni 8.997292504819006 4.91416793107999 12.943057394532994 -0.9525654391216499 -1.5643738345273317 -1.412056798156749
Ni 0.4868449328565102 1.9387722339947102 11.918912289172207 0.55087299337289 0.8639847645677636 1.0952881469355782
Ni 7.230325770602804 4.836908985392543 10.866549375608836 0.6138598786180718 -0.2076741729846488 -0.8048967001563557
Ni 1.7458250224851266 2.9815585386378873 6.228609870910743 -0.12062227637046322 -0.8400714482852758 0.9457090783214486
Ni 6.0435505380227985 7.811252717076848 5.040662581304342 2.8124996662236534 4.625501747550492 -1.5066782795880762
Ni 8.811122557131625 2.6793744951369183 1.027836293692524 1.373435743350441 -0.8779201437019333 -1.024168862391249
Ni 5.974781790969759 5.641467019142627 8.850442789557228 0.7260656487900657 -0.4423937801228639 -0.9354087248367052
Ni 4.518098302899191 1.7830161886522977 8.806037747379309 -0.8520756718350034 -0.430197238056672 -0.8995395217439217
Ni 2.680277509684657 4.899952434024353 5.6956162399506285 4.229450559247909 0.5908652174951114 -0.9323668526865878
Ni 1.3985554175955195 1.6657546294428645 2.495076673486138 -0.6751776036909468 0.5237969630917043 -0.010713786873078323
Ni 8.036550192023459 2.4463036475370954 10.654758019279331 -0.9343831117856682 -0.4372122359219244 -1.319878121838959
Ni 5.420628760364747 0.5098019831113898 7.011382911432342 -0.42125468415140355 -0.6811150522213044 -2.463883531474582
Ni 2.3850755374290893 7.294393256350608 5.3416997032354 -0.7415483178066972 -0.6049000983216227 0.05837843993889301
Ni 2.748813521029516 2.9899184052757146 9.902996546401305 4.7072553718802155 -1.0047752883559857 1.868255345373189
Ni 2.199277966874797 4.178546214092835 8.240084085426735 0.04620220958767527 1.8365194477224889 -1.8975535801166739
Ni 3.1763769452412385 7.1242913819559766 0.4201959426335747 -2.8425867154170206 0.6244399681267632 -0.8488754197301509
Ni 0.3674003127043481 2.279990710471636 4.7189008100312675 -0.4790985917430652 -0.12311444666469765 0.19443504858655547
Ni 9.022372104732488 2.400724686447116 7.464805134708533 -0.1968652552946029 -2.213696681938704 -1.3554169381755172
P 1.9722582476876547 6.1100943317056355 9.772316377201042 -0.4606586398703227 -2.0099364992964803 1.355588430756375
Ni 0.9258859512528395 3.719507612706843 10.194305315730437 -4.230080222412108 2.2210508083109297 0.875932166737627
P 6.3836146453871505 8.513937676642364 2.758535357031613 0.22783136465881407 -0.4079993618033942 -0.22392071675049824
Ni 0.7337784501783695 5.099174200226471 6.414663450744033 -2.561140650756544 1.083510694684676 0.3852625823275107
P 1.6766652794423447 2.9882054704635097 13.685785929105133 -0.7892422814485505 -0.2675477094118296 0.21964625774486043
P 8.7262391896442 7.807743062597494 13.204444730275666 -1.3775489941878662 1.1871639473009683 -0.2840413361914786
P 7.6651784771947264 7.152098644369328 9.396476136775254 -2.409513441364134 -1.5797778277872276 -0.04306803483406776
Ni 6.588840992860313 4.048958971778187 6.677986216635932 -1.9885832304316848 2.053818288281095 3.814265478329354
Ni 8.272236988983225 6.8599687834617376 4.053101667383791 -0.43740198333522734 -0.15921504904199676 0.3066757857615428
Ni 5.529986614924386 0.7686450520922381 10.544053090440746 -0.4281195295920369 -1.0280537992679522 1.6765433521447515
Ni 5.890764200316762 1.3628258316757191 13.131835844037656 -1.1388904570065612 -0.22953549183411434 -1.277331249615684
Ni 2.9165601100573646 1.0416971015288947 0.3291925569638467 1.5709584297233847 0.93350302317356 -1.0227344439375678
Ni 3.9514799477640565 2.325104200145256 6.569242784345889 0.07931133343681825 0.5315907481045103 -0.09998223152260846
Ni 3.634205320944693 2.030311842736085 2.1777573614108046 1.6518003408721165 1.9740187023539488 0.7014038843773275
Ni -0.027942249124096062 6.761298152621726 8.239648404181024 1.4123596741091482 -0.7480987173307051 -0.49409840758600715
Ni 5.567903916501079 3.7423994969634324 12.571087083462823 1.398002634056528 0.9777082569358645 0.49276683325877724
Ni 7.260469699526284 7.820506288834087 7.308101389562412 -0.04436875592336229 1.7060223354404747 0.05779042864590693
Ni 3.692594055412903 2.1865799066364935 11.751240175570976 1.001954531077739 -0.20170689965762037 1.8985488541504076
Ni 6.584372467263257 3.097721585304711 3.220418919714397 -0.8151952538688864 0.1031410888665643 -0.9740752881689676
Ni 6.996165719888699 2.3707483272335264 5.656961631650422 1.1799358049836455 -2.340053289689783 -1.2864015873480683
Ni 1.4229833575260968 4.477723312244118 3.7513142055295607 -0.5617004230056971 -1.4463285748554253 0.12575574094228664
Ni 1.971615897133078 8.750322680726672 2.1029812402582215 0.6898267210626894 -0.5612995880228526 0.043781001740692334
Ni 2.363654542848198 4.482052196416267 12.220685786883946 -0.45621063140129814 0.7332094589236986 -0.908821718376796
Ni 2.3006390225013695 6.673417149212941 7.838873790923657 0.7879207344236495 -1.4269830804492778 -1.6189354718232958
Ni 6.217078282041839 8.353191777716573 13.508697328750939 0.9990239876945053 0.5489318104861192 -0.7394839790785006
Ni 7.928179136866502 0.3481344507812041 0.9296450984113634 -0.7507693221843328 0.5225566629267 -1.644951179160767
Ni 4.300397321467578 5.424920406823587 10.449616387603946 -0.591902143400058 -0.7302226083812327 0.17131106097458237
Ni 3.0998999915332757 7.307789523713451 11.272065280713246 0.7256257330391697 -1.8407761661163136 -1.3093332564435771
Ni 5.620790778827912 7.698487611749454 11.284464508302246 -0.5362603856660377 -0.20911373364465274 -1.5481877116857725
Ni 4.417872997528537 9.118985351912189 1.6603775036410726 0.2665670906661151 -1.5393852829027939 0.28244750934179746
Ni 5.050364867506952 7.724246799930821 8.181686972473033 -0.9964472281062644 0.4172525049705459 0.4896408860352857
Ni 4.854978585775641 4.663232290520266 1.9851499440351639 -0.20054938901440944 -0.6363503464111041 0.12024021044069615
P 4.334320878291901 4.569644607546907 7.1763310863050345 0.39472604173325565 -9.641636854822105e-05 -0.01250044645985589
Ni 0.9599137736744272 6.6077856795061685 0.2522063775263863 0.43471672319358035 0.5798958629678013 0.4122835910010448
P 9.147379108310155 7.807733753169166 5.888127770214499 -0.9519684289675993 -1.2142258365147671 1.8739256562850888
Ni 7.356412667866425 6.144110982813231 1.3863321382019036 0.1825722357106985 2.8421226312964083 0.8218168729504621
P 0.22325591731445432 0.6923161182946782 9.736781358333282 -1.7644565683179676 1.6645316723958559 0.824404174061664
P 6.94259926929398 3.240342027277442 8.943217759437623 -2.2830406197501647 -0.9236844944212413 0.30419467121090193
P 7.642873086922751 2.4754421582012367 12.81127405807596 -0.07281081331413912 0.8112221281537513 0.06779921903216066
Ni 2.401990768699615 5.0487915741196545 1.478698424178734 0.23381817836986826 -0.31299324333913836 0.299178191832917
Ni 1.4781510297930947 8.424753353267771 12.229868606985896 -1.8600640678116485 -0.5448594401889584 2.540582366989218
Ni 6.840679647967775 0.4634540632415831 8.67301439506909 1.7722243851888446 0.6462249252123388 1.0533447126242568
Ni 8.948818311519267 8.380393927288656 2.37437062579564 -0.28046441747349765 -1.0786613370121745 -0.5462290668429753
Ni 0.19429335484569693 6.560019002759296 11.341813379626307 -0.2653653570485301 -0.45853053778372643 -0.9071067925682185
Ni 7.792987618698879 5.892449206843986 6.439583859433121 0.5983638398650017 0.21281046576994964 -0.7017029036749851
Ni 8.448259659793957 1.3504349825722137 3.1185430527013303 -1.7105510765487637 -1.2803173288272014 -0.4779621641457768
Ni 0.8835159501072462 0.6121479762549804 0.20273886822413437 -2.5799739814129627 -0.46460348345068375 1.1029466919221005
Ni 6.5046185947841195 6.07258664497534 12.663098680220386 0.11837770331066064 -0.5078887765018801 1.0861530174035292
Ni 5.323726920906904 3.1932270105134735 10.48124051563145 0.9394679825077433 0.1830682015105105 -2.220546357870685
Ni 4.926102618195462 6.338445299143568 5.725196948460312 -3.467979020154724 -3.9582377422796666 2.738555510636019
Ni -0.0008034036646375113 4.995197195239954 1.5098999041601835 0.4752023420124526 -1.0006777212478444 2.4485978089601055
Ni 1.6881531139981116 1.671842995568854 8.44551337843743 0.8598640575311708 0.26351750520651396 -0.3399988253937048
Ni 5.970052601379541 1.4705452268497705 1.7146198187323465 0.5621074286361287 0.5635343908906424 0.67598364453201
Ni 5.099965501634283 6.831128174504067 1.0283650692215092 2.4616533565924827 -1.3953811372732807 1.6168292241135702
Ni 0.46126076192769433 9.151484566202448 7.727214645681533 -2.130401424153473 -0.8485350056715967 -0.9736654543250586
Ni 0.7386556596789904 8.758421883371337 4.35844439991618 0.4990516378262244 1.5068268893507983 -1.5071364501714173
Ni 7.884117612593856 8.496705924808714 10.851071520072031 0.5374253525084164 1.8061071539792188 1.6615005988790157
Ni 6.933047795830271 4.1155679314593145 0.8942329639975207 -0.3663220366692659 -1.5808314658627225 -0.5583983552156577
Ni 1.3875330544561129 8.271501544145377 9.942755252901119 -0.5965206160086759 -2.0396108864324614 -2.377127568834261
Ni 3.1804265465635715 1.1903500530576523 4.1911120804488915 0.3929013298196911 -0.6392430945778668 0.8188842726846993
Ni 7.725661833036556 0.2748943853026097 5.277959909364714 2.2806304676467755 -1.3815884543645625 1.4001790728825565
Ni 2.749074185022678 8.82917353865807 7.704297625968461 1.6553374074910976 0.7987803028459727 -0.9828949433431265
Ni 2.199063850023271 0.7245099833358074 10.976532823752063 1.2430450747393043 1.700336340799291 -0.7805527240943525
Ni 8.482909352027802 4.282960762210729 8.237427174582152 1.44001574526352 3.550726118745969 0.61304843846037
P 4.264174335846437 5.812667406079867 12.602711211490327 0.4280969038842175 -0.22696490289346075 0.38857544875082756
Ni 3.7875781526353425 3.4893599256017613 0.2019373264451623 -0.1544860189974436 -0.40377529641971754 0.9137317540839038
P 8.685054278724659 3.505576949747747 3.036763448618194 1.1165241734962192 0.5874865308308655 0.4436443647005134
Ni 1.8781585461562995 0.6580527673364123 5.971515112569743 -0.2872978954555633 0.277499935528535 0.09935385390999019
P 3.606742507379449 9.033729607291674 9.553944185987039 1.9977309583692242 0.09597696701795728 1.4702889423257646
P 3.977509109366913 8.557989891486683 5.648786091693474 0.9260365395931859 1.3051714117564037 0.35982254498785127
P 3.5801082329353244 3.9411557917491895 3.5894055590057006 -2.1826308137718344 -0.18738328394609663 -1.668220948321985
Ni 5.863468956461407 6.018433700396007 3.57265975933073 0.8116232202469118 0.0975813353905997 -0.6534939480699262
