# total energy = -340886.8512501034 ev
CRYSTAL
PRIMVEC
9.12130757361344 0.00000000000000 0.00000000000000

0.00000000000000 9.12130757361344 0.00000000000000

0.00000000000000 0.00000000000000 13.34995562988522

PRIMCOORD
 96 1
Ni 6.764097062653499 1.816015821527623 11.431393449033857 -0.32931357776571674 0.7287719919776352 0.09899235680551338
Ni 4.824378069934301 0.23663499045421946 6.060225836147294 0.24702542108876166 0.6884699499244789 -1.147161695876418
Ni 2.929982853770991 1.6034072669409545 4.612262978078902 -0.18087607895519817 -1.2897653616139788 1.409000270718612
Ni 3.6431140315671002 4.463000991373693 4.794195663690907 -0.2337227904425846 -0.07901694212485101 -0.5056220919548905
Ni 3.591277641515359 2.489323371140396 2.7939586205203124 1.2273299779968927 1.875621813040589 -2.0660353991725775
Ni 4.787518866661543 4.823940247178278 2.349018508318842 0.17211350227121971 -1.070972195898033 -0.26046740552628045
Ni 5.004396193119445 4.848604262434288 11.252129657972114 0.7936915754691557 -0.04243657189765595 -0.23157000576563988
Ni 5.734766641933993 8.190715149234986 12.012797441503514 0.25404916070476247 -1.4020837461044369 1.6503504957994672
Ni 1.8683538834873084 6.934902665347306 0.09755420708804916 0.9648969641038092 -0.1146226071436026 1.332710754827253
Ni 2.8974745141362193 1.9047935066188773 0.4828719812264871 0.26023832023460985 -0.8724778896404393 -0.09155029870517137
Ni 8.090298675879431 0.11178800731253309 6.785208328670524 0.40267897803174524 -0.6001425290319793 0.7039433629697296
Ni 8.672037420331296 2.63836553433685 1.4136804241409828 0.7098353029741323 0.33818182678962405 -0.8621361413947991
Ni 7.068666638620012 0.8391192364956827 4.7050047833736555 -0.7326319891536737 -1.0646331410538827 0.2632172003572757
Ni 1.1031856468762802 8.048687271442331 2.8139570870324433 -0.1083804828886327 -0.9358954346651366 -0.38115550213767263
Ni 7.81193461612243 3.885832021937826 3.3787000993739085 0.43349930584671154 0.007537960248257986 2.3792677551057153
Ni 7.880709274047844 3.797154671228161 12.542029379808477 0.1229907766026398 0.39103162360080396 0.4582891111968817
Ni 8.414506426715098 7.269964772009398 8.802026084464039 0.4440022622605644 0.748076348733202 1.019157782329903
Ni 7.1889037129930635 0.5126457528975928 -0.04513952614605969 0.5170694145598838 0.30000531571990263 1.0850312450942603
Ni 2.1701323393841694 6.606745388400007 8.953667820274386 -0.48269633639665255 0.6893914332974838 0.2634447429870495
Ni 0.3208593188828256 5.256746284122696 1.1798219596645478 -0.4403772639134674 -1.054914628214538 0.23718272396672696
Ni 6.47086527180652 2.0126347242120035 6.714893994053093 -0.1536362694026386 0.8704500605771331 1.5446565586040624
Ni 3.6872520381587552 4.302356525142606 0.06132163763484981 0.30197580918271216 1.1947620713632006 1.605497344040519
Ni 6.107089289395199 5.833404460343201 4.899554061405082 0.13720152088538307 -1.252463796950043 0.21948376402506717
Ni 5.426493815156112 2.770889009800822 9.535071812744041 -0.9266726305152878 0.7564080085273489 0.11475064808103463
P 0.29473680657081053 5.552842165498663 12.394832457102513 -0.4446324396453955 1.1267839035510143 -0.4556372753963314
P 3.9637553512026553 6.4312331910789435 12.693831650629365 1.1523398976432475 0.3543499519090543 -0.26778630778519685
P 2.746115538855805 8.838501280694535 1.4062173704122596 -0.1870115024289747 0.5302859132501576 0.30191693092031874
P 6.6625039406411295 7.86557702504277 5.731710091818501 -0.22036385263717534 0.11414541039686793 1.0023926470564222
P 4.781371105462375 1.3601146342029473 12.395153527123599 0.2186748949705266 0.1353474983957798 -0.2845678981189099
P 4.381885204512857 6.426535717759105 8.136917678088555 -1.1388683455193742 -0.668965561342964 0.10145624496497366
P 5.0047701667235485 0.9441191668283626 3.620240528957079 -0.08216551505616172 0.5346645019338276 0.9678192799569267
P 0.34518858215662634 5.675095048810908 3.3011771955046925 -0.7027596270742736 1.8224753109245966 1.3133148667991446
Ni 0.47367131843479415 0.2479034536373835 4.900928642432848 0.6912580541925772 -1.4907590372546582 -0.750885536047223
Ni 2.1521542424649396 6.3973292914093465 4.899687232493372 -0.7610707041103408 0.3352348283461581 -1.3186092824288647
Ni 6.2084817426443895 6.097858526289029 9.256645728096602 -0.32807019227691886 -1.4547592221212815 -0.4075694733548271
Ni 8.861258942700358 2.5572223835537624 10.21637418830796 0.39257788504200136 0.5456791078767763 0.08026392715807466
Ni 2.3542641722144526 5.2479807076948015 7.031301202785601 0.4060661493364232 -0.09466724706759826 -1.2369497604748438
Ni 0.9562505056931904 8.850869773552208 8.339957069063878 0.018454607160761766 1.7130098225019015 0.5969649026349461
Ni 1.6783935352174573 1.5110722719570064 11.385069065054308 -0.540295989187992 -1.1470881623260052 0.12531453963980999
Ni 4.2465706089792326 7.228280397112959 1.439365113696974 -0.40631863166686155 -0.5543866629531032 -0.08229458443485826
Ni 5.991704750568077 8.127686914982386 7.946881622967141 -0.5472107140299544 0.6284285204608661 -0.16245155370142347
Ni 5.471087887118625 2.93468032709083 4.674500394978434 -0.3179130492382589 -0.09502540173796538 -0.6352522282509189
Ni 0.729680877973811 7.281348163666017 6.627184414060388 -0.33911385168559016 0.3226474785994508 -0.04308860365935805
Ni 4.83046198198155 4.612152610259154 6.851344192360154 1.6644141729813848 0.4218527227467186 0.6524235978238828
Ni 1.0284091686703722 7.424780722800916 11.376058125456892 -0.4699583200046939 0.5731762848557805 -1.057677535671656
Ni 5.018351793467705 0.2935045179387517 10.29156112534764 -1.147770018884378 0.9710498710790826 -0.9007394555892939
Ni 8.31441832042656 7.32086166739717 4.359895556591558 0.40570799466605617 -0.22981034276205584 0.11454547404876401
Ni 7.321782919446304 6.143902886130871 7.070149763206043 -0.6189514342083662 -0.8573477188672202 -0.8629892334237138
Ni 2.486851496830344 5.803586906396493 2.4284240500389602 -0.8512866002748048 -0.48032269395815347 0.010214478639156602
Ni 2.632144802678345 5.5902030406793655 11.32289823369892 -1.7638184205133367 -1.742207012891148 -0.45590029924973097
Ni 1.0279074967624284 3.548617286725284 3.4973683088712084 0.8272917800221044 0.19301939918595143 0.6895554696791737
Ni 1.364556710915106 1.3663080019392015 2.5086030786280547 1.4582798336800304 -0.8607168924497693 -0.6254948917538389
Ni 1.304036836202225 3.4609341585240894 8.018944512216443 -1.3609520090611336 -0.6317899807339312 0.2859804621957204
Ni 3.6244153513619146 2.6009499313116446 6.8122420595935145 0.6943791163200622 -0.042171234051411245 0.4747907083963307
Ni 4.310365033054875 6.953747286471167 6.008294584498414 -0.3814619776344979 0.6334555413618123 0.4380432164636521
Ni 0.8652171212776715 0.07974211796381189 13.803320120930906 -1.153334143235717 -0.10559674949590847 -0.8772182325389022
P 0.16904975101600336 5.499664943256599 7.9072851153384915 0.7285845585571775 -0.3125389294105391 -0.24284017936282049
P 8.796306112582736 1.8379799297881532 7.965450780607004 0.46411985894604585 -0.173055811579831 -0.1694369838803211
P 1.7871377622448827 3.5676899405345734 10.192169886945772 0.5517834210023014 -0.5679134937949446 0.27801801281553407
P 4.217044936869874 6.368059015907669 3.738521082889149 0.09882472087939755 -0.7876147731474564 0.09995497782909883
P 6.945355683647375 4.001161832920444 10.536465493106258 0.0026153261356600117 0.7747764837322076 0.4645312354518516
P 6.878195497134799 8.166644018961092 10.04361206517317 -0.18158313232455178 -0.2642050181918418 1.1566202701861563
P 2.4568332741204584 8.469462303903509 5.746327899085248 -0.5339996146563191 0.7415907410088582 1.1997451264000887
P 6.752403546544695 3.9523172317015325 1.5802747192002857 0.4167915061737274 1.8173716711494445 -0.8779008604282236
Ni 5.542918183028789 2.4799466671155512 0.7956534702606726 -1.5331554999429982 1.3946494013135788 -2.085641346328963
Ni 1.546152820283418 1.4184818803653778 6.535270823479113 -0.012051531847895373 -0.7365598634531701 2.212384390885183
Ni 7.146945698874111 1.0995006386797461 9.158442996051194 -0.1776539724734747 -0.5515196258179534 -0.8816271602398752
Ni 2.9435462379003137 1.7940608345745102 9.08332264455566 -0.5389204489967041 -0.43011753385867213 0.6267634740536173
Ni 6.78943605465838 1.8688008275507495 2.6002512391634904 -1.2358935512961877 0.3085413782153718 0.2686761665893179
Ni 4.131487073296879 7.06172532367555 10.330209017004902 0.2284867388546259 1.005133700136669 -0.003250902837129885
Ni 7.85904616893208 7.348654291097269 13.129454347304202 2.217487516439703 0.4339199383238979 1.1749355235555765
Ni 7.525534684530906 3.7608883529375174 8.487795219681267 0.4384535645281933 0.37677382813020915 -1.2606931268383708
Ni 3.3116639626422053 8.885129404211076 12.409610799379804 -0.48995790305507236 -0.9010526159543385 -0.15202315927924787
Ni 0.3445756302981929 5.2543929868090675 10.170436547762899 -0.34132988550030247 -0.5556012520864947 -0.09120191422681713
Ni 8.741715087691011 2.458922053518989 5.5612711656828635 -0.15573094714813823 1.7080123692873102 0.6181253387626452
Ni 3.3889488003878334 3.0857018139968093 11.581967079745654 1.5707951646726432 -0.9121001320177518 -1.4592236856505385
Ni 1.366399215013373 3.5543272251684286 12.717848053058757 -1.2916885467786205 0.5600094084565194 0.6918028709524537
Ni 3.3610832062283986 8.68602038460181 7.841670078302383 -0.4568747473478583 -1.0841413862901392 0.5669184768715269
Ni 5.877387404708764 7.963603715855028 3.7182562742004364 -0.8848351256542115 0.4542465656963919 -0.7424605452083213
Ni 3.3908825175602724 8.367759726202134 3.846135179927588 0.2637365631958555 0.5147392237648103 -1.2595006491921663
Ni 3.567553120923316 4.321246752803552 9.056075475039107 0.027396389735081846 0.45830968002217193 0.16857052211496773
Ni 7.273211957449907 6.286943229046831 11.293381682896978 0.7009608833026378 -1.3008673850644112 -0.6519248038105934
Ni 7.766255108577274 8.903089258515472 2.3910841538653176 1.1369955539766936 -0.9373583923639082 -0.281350933843509
Ni 5.202656931138915 0.3806668194864262 1.4656381275813724 -1.4641887429652978 -0.7918236690224816 0.20369153418781694
Ni 6.103048550209394 5.643170472850835 0.04499176096590164 -0.5926367075732374 -0.03282861649424669 1.03170065199192
Ni 8.647674408220054 0.09621975981291811 11.014140153366446 -0.3388168892704616 0.05733328650383029 0.24427176960302444
Ni -0.08075275882563362 5.1770169359892675 5.645629577330502 0.45453838590519785 -1.2880897736837686 -0.9377859668196301
Ni 6.946231329159423 5.940716642106132 2.780341420677228 0.6467779695023312 1.0684036638399084 -2.5849601217736446
P 8.739763127903737 1.6359520918053945 3.5489255869159844 -0.801222593738878 0.5639527093749835 -0.5652194919025492
P 2.094279546903036 3.7490397746026223 1.6429791470395774 0.9561354158610953 -0.5437196701575603 -1.6643727782204882
P 4.849124176957067 1.101507326311522 8.25729430846509 1.0963700671458472 0.8462269263637104 -1.7544986857743075
P 8.9556097466235 1.7334679894022915 12.773104021261194 0.013347110730867334 0.16922949585520533 -1.5859939839002686
P 6.329567098607237 7.708006439411267 1.1915008816814843 1.4604038220015685 -0.8401457531666369 0.20619141779153521
P 1.9029966090576962 3.362196005733293 5.528190007942294 -0.4023858722713586 0.43722843387184057 1.188640531846495
P 7.009670022245797 4.0181092221015335 5.802624608463983 0.0019393831145579504 0.19936488178800504 0.6441613578150905
P 2.28693068086095 8.817011480419698 10.050273355979924 0.3899749002015155 -0.18783579810248296 0.637039916278961
