# total energy = -381164.462480615 ev
CRYSTAL
PRIMVEC
9.28609568885166 0.00000000000000 0.00000000000000

0.00000000000000 9.28609568885166 0.00000000000000

0.00000000000000 0.00000000000000 13.59113969358239

PRIMCOORD
 96 1
Ni 8.668412608360539 5.069270436088724 12.026133932225454 1.5323363464758126 -0.18202819028177036 -0.8079488567191182
Ni 2.9428659205664665 0.3350376950660527 0.41628824788744545 2.733859133601614 2.313952478837673 -2.680731143428383
Ni 6.964720461831804 7.822532851677054 4.147580850139859 -0.06770485954614146 -0.45571775092527966 -1.1647177024823103
Ni 4.431501373403917 2.172742133792455 8.710221397686773 0.07926762468307638 -1.0604496991001542 0.055723261704233064
Ni 2.176642294047662 1.2343357181021057 8.855008346894243 0.02852150447846056 -1.755553609401383 0.750091836501334
Ni 2.0187322341910057 8.478159076673201 12.175962302867571 1.1643873157260851 1.8874445167071299 -0.4578880191037211
Ni 3.756829365828174 1.6860207061343087 3.607863673490126 1.12816689994147 -0.4088599100314765 0.20970123071700658
Ni 5.721665099730557 4.04329613657313 7.831595152612902 0.040665596040162226 -1.4161726200973352 -0.5311919700041948
Ni 6.226234403604199 6.191745843633154 1.272541502240197 -0.22781182427478833 1.4252918087897841 0.5908960707330468
Ni 8.431078570735345 1.6212316154186432 4.801029485660183 -1.029477419088356 -0.020679125615906322 0.060175383938315716
Ni 0.4311785025760752 3.9964199247438805 4.084028667390845 -1.3558134022829875 0.3756050046330886 0.819785187232414
Ni 8.609223033439848 5.732854845224662 0.7147294392254722 -2.0442468425425764 -1.878326613566262 0.7600564039132135
Ni 0.6308044908005089 2.9358920625863223 8.727033874215469 0.6925783156658976 2.095348032093766 -1.9619322035030597
Ni 6.739746217777278 1.6747752440651285 9.413780592219416 -1.13647644824843 -0.49240687881619716 1.0271171463862956
Ni 8.408773368513899 3.0839588608465034 2.091186997027322 0.5882866581346577 0.5852743536708953 0.18246682048108576
Ni 4.555331461506739 2.5952316364856793 6.244340433284204 -1.795370998508637 -0.8485193219423129 0.6111699904907345
Ni 4.414637823348069 8.416982277241525 12.641894019146294 0.22235234382211386 0.36304696546241993 -0.9549120849769553
Ni 9.073982844422842 8.620254915304578 4.0936509199061915 1.0779306294937372 0.7332724509511501 -0.5489037854616612
Ni 6.198422546546233 0.43419091206843036 5.26769480351072 0.5127491899179749 1.1268147567889497 0.835657121267664
Ni 8.09294396270474 7.818939132584756 1.6492988401123654 0.34246914131106826 0.12402847383853477 0.1710765763662731
Ni 6.269507610245305 3.493169246480333 5.3535094724402885 0.5997910592298316 0.7554379313045958 1.4982280919381938
Ni 6.842320432489223 5.054691265610925 10.050457610032765 0.8276051974974649 1.0765363202493718 2.202906276191419
Ni 0.8656730699786609 8.88983027770615 0.5728425377506249 -0.33431025964935973 1.9499742598102352 2.651689504780395
Ni 2.562247424041643 6.525060967919822 8.632847789880973 0.3415219469064505 0.2817669383350051 -0.7726828344279725
P 8.51059540946234 6.890310975819961 10.730327045453363 -0.7167464282716688 -0.1751540888697564 -0.653953661315164
Ni 0.4443183281977846 6.829292040017663 5.283215584107275 0.23115400127414384 0.08154793607682084 0.30958344632664103
P 0.5454132678415046 0.7175217682462836 10.766112873014057 0.42063170585542403 -0.2342231271177708 -0.008822740497952546
Ni 4.272876284167139 7.583415883649479 1.4889363223428516 0.46674855481814453 1.4496926062316517 1.0767792894981132
P 4.928047490466846 5.08911482291105 6.109897266239295 -0.5118778430566152 0.6952152390681123 -1.0374393542479101
P 5.046473070787454 1.3730235595580984 12.630748846912248 -0.45628262228981414 -0.01496536306058068 -0.0663336902302277
P 2.8115605253078297 2.740874763730125 0.5531021552017699 -0.45808727959872075 0.47235175993753487 0.5322612918089735
Ni 4.142304490480314 3.361204538416649 10.774199205276519 -1.9101015919850137 0.09723809311856801 0.7199834471517278
Ni 3.273543793632948 4.179597451396771 8.009149948231203 -1.7346112028217608 -0.4813835311225 -0.7805951472965137
Ni 5.2560231096422205 6.489625226172513 7.726916708582315 -0.822000706826494 1.0064164235038344 -1.0776130982533183
Ni 6.483059956409581 7.358683078086942 11.668808678520062 -0.029349656806710745 -1.081748974798563 -0.950860026394769
Ni 3.449831037168306 6.986505642685889 10.730055891454667 2.54027409172018 0.40329475723887315 0.46797625657765857
Ni 2.872310164330602 6.329217206533355 6.280288767522198 1.9153201600714755 0.26343728678788175 -0.49589483736479756
Ni 1.4163060522950508 6.596888919286552 11.32869056041681 -1.8049632701827625 -2.5530897554276097 0.6163656757590611
Ni 7.081353825654186 2.0643826813686195 7.183528738244764 -0.15797680575952147 -0.6424821703404547 -0.518775598617713
Ni 2.978329520601313 7.932508084778045 4.323966526291182 -1.4245112218700178 0.0741732408793045 -1.117740048181191
Ni 6.119797173020428 5.634849389668818 3.6451436338723977 1.5985363393416534 1.3239952293311263 0.3137105811211371
Ni 4.708589187344685 5.1708138941617925 9.451020622389551 -1.5046913310650345 1.5889913759656957 2.349435502235631
Ni 3.3201507086826725 6.387496744061163 13.457892048007801 0.5522181945468748 -0.4636544892738531 -1.3363223834379114
Ni 8.042696898083491 0.7283131402286075 2.4576181963190376 -0.688060630301202 0.46104559089609637 0.4465736225321664
Ni 0.19024424559149158 1.3097852468486704 7.319739049329116 -0.12066624223452121 -0.31794930179283304 -0.5568366671554926
Ni 4.961579582565781 8.907659581729952 10.064497258341925 0.5583392198429481 -0.7453761761932195 -0.2556514721948759
Ni 5.5417841371029 9.354720094030982 7.755756536450401 0.18472502038764313 -0.175349235599698 -0.6016134571505509
Ni 2.4553737469531245 0.09809924512388717 2.3996785298991834 -0.5971335670023264 -1.3143183683629946 3.336289944447138
Ni 3.78389833521848 0.4541894480817967 5.617463032416855 -0.5670951116587073 -0.07962038003680481 0.7882930301614037
Ni 1.3374949568523316 4.867752870140515 1.784761620481136 -1.2115534318889263 0.3313627469852616 -0.8380415623394406
Ni 5.42834519025145 0.5387811381884835 1.561553591856468 -1.5254303633845987 -0.9308000224201003 1.3772918838717376
Ni 6.319856821920858 3.9901703822397034 1.8598527059280554 -0.04634567714407502 1.3003115125609412 1.1642513043688527
Ni 6.654388424763319 0.5311962551016904 11.552686049969195 0.8853858559513591 -0.2918122383861491 -0.004833159722585224
Ni 3.3899821494425697 0.9894242262667955 10.80495661193675 -0.17367776143454605 0.5055483012941616 1.2215640220473931
Ni 4.96234104242513 7.628611312130653 5.359475789021171 0.42203527107116995 -1.4172743378019461 0.9902740094160171
Ni 6.466010684436819 8.473386023408496 13.641699171959031 1.3957794011529638 0.21561142555385449 0.8464267010793423
P 8.492831108109456 9.107124920496256 6.384791704341302 -0.10735281295506673 -0.7370663707759435 -1.5167624032969556
Ni 2.1920200687681928 5.680759847530111 4.0614810980678255 -0.49451441207750313 -0.14870797886308584 0.062207069656363835
P 4.999355420466214 5.431901764960365 11.746917745116845 -1.6288229061403368 0.10467886566732941 -0.8453635499221506
Ni 4.761594222432118 4.292859962427152 0.27814921469593523 -2.3764143448173205 -0.6546576293607241 -0.4760297230097544
P 1.3190249122151727 7.413703195972899 2.268238486250784 -0.18522072907713907 -0.5756756542388666 1.381533175646595
P 3.5731689621913056 8.5724593799866 8.308997983089858 -0.6927606068800327 -0.09884348993247492 0.33297122912296206
P 7.774486591771241 3.458188523429464 9.10306039634458 0.37988100630062316 -0.6579105890803831 -0.9287819635488069
Ni 6.274187802551553 3.0145638665913554 11.485016412322185 1.1161127969904132 -0.01654324907066183 0.9116069944314171
Ni 8.718362517914725 6.182682614087719 3.272665328965942 0.22000492663585983 -0.39177827195884135 -0.5179327910014435
Ni 8.825189764524016 2.5009499053639725 13.381116464774468 0.7664185986858155 3.4350622148220458 -1.7288678725800806
Ni 2.157930810918514 4.424304649123474 12.80936411467613 -0.5931252171738818 -0.3041471058024181 -0.35669968308815336
Ni 6.09682337189809 2.1628431556209056 3.3876866265495047 0.4834524978363868 -0.7796515524363218 -0.4215179651151192
Ni 6.544348188991406 2.1788338126672544 0.6720003978009254 0.4811032808779198 0.0005412172154506808 -2.115064022465454
Ni 6.757250508446481 7.449993258538017 9.214140674851214 1.2555925723870118 0.13693952547324803 0.14176754298951066
Ni 0.961305928045922 5.313225460051923 6.815888489273934 -0.21416235181215373 -2.230577259744126 1.096135582537538
Ni 9.088469153942182 2.881967704010162 10.754152381564756 -0.5184238717052492 -0.360473805418605 2.5583060095212264
Ni 2.2418399729805394 3.2668485185281764 3.1099924305500104 2.0190389758183813 0.6533525373960554 -0.5705187926282755
Ni 1.4386948293791086 1.4930649205558637 4.367608390937364 0.3580361425113898 -0.7245242724448748 0.5635950689252487
Ni 4.566939081313904 4.199711134998624 3.627325473163609 -1.4550430719102876 -2.3947663649619466 1.6166312491701513
Ni 7.644555538697773 5.184984476422377 7.847578380782575 1.5248999448024254 1.1294894754076354 -0.2628824427256763
Ni 1.718252744814841 1.9466164138530586 12.371566482981217 -0.2841539505099429 -0.19575016785355318 -0.2922207866784774
Ni 0.4659827898058751 5.6030537974930334 9.407420545174675 -0.30261832786271753 -1.596677945976676 0.038033300623637724
Ni 1.4879854261282486 8.762044312773044 6.179782566355098 0.31293745040053844 0.2977694844108485 0.40452862964597425
Ni 2.2352932754092993 2.0401088268278786 6.764310727117991 0.886581676031673 1.1163688788652775 -1.504252700865719
Ni 8.411652058226077 0.08824855465073568 8.957213903601112 -0.34256452923835196 -0.3730914941826155 0.6347583193336358
Ni 1.1857415785413952 8.272397764923493 9.549352019909582 0.5340407523068996 0.17010984157762962 0.2516765467075278
Ni 6.655326320443737 5.12722496026193 12.937079505280808 0.7922412161758743 -0.578335717569533 -0.21532269066884208
Ni 9.00579504262764 8.248987517296404 12.416743339270699 -2.523380658398951 0.09607029806271197 -1.6937304054469993
Ni 1.0971522241731213 6.755495436331638 0.19331608609725945 1.4461336852357998 -1.313909305850034 -0.9296769645592505
Ni 7.119371102046608 7.57947857901089 6.594489392120015 -0.9854588474155609 0.04020125480923399 0.33937404732551235
Ni 9.128724379433425 7.100882485217758 7.758447647026494 0.14965208794391 1.7697538121611651 -0.1962214510630169
Ni 7.767122717765576 5.510499280198633 5.605584258610996 0.30575301683695727 -0.28388295623674337 -1.3949988142331975
P 1.9343680534325394 3.916513069991365 10.140540168613033 0.6443266797483613 0.5599736701225775 0.6829510769887787
Ni 1.0507310310403117 1.8686224948447636 1.7558122166820693 0.26509513410627894 -0.30858740096195886 -0.9892651085355285
P 8.352091039471556 0.7205926801424668 0.36699857974788974 -1.582013916206598 -3.0714308376110653 0.07438098601473642
Ni 8.903192969628156 3.360322359311305 6.349032806458561 0.16982393490609463 0.9747769422216825 0.22149693780035404
P 7.590296880671166 3.8059249545645537 3.919929424653009 1.085830343956788 1.0748018540567683 -1.4219840845727898
P 2.206942824792282 3.83795269913648 5.465405070162179 -0.26062115749532533 -0.05541550065582715 0.22006174801572426
P 4.949405510912027 9.026243025679939 3.555768675795575 -0.3043332536712952 -0.25715402488233136 -0.10637373687124906
Ni 3.4823509448200562 5.4618215657753115 2.2312027501892544 1.022767096947716 0.6235565370805455 -1.8491127110064671
