# total energy = -340868.2153837923 ev
CRYSTAL
PRIMVEC
9.27962324699314 0.00000000000000 0.00000000000000
0.00000000000000 9.27962324699314 0.00000000000000
0.00000000000000 0.00000000000000 13.58166662066513
PRIMCOORD
 96 1
Ni 0.20022642439470578 0.6363455039928976 0.6068474385590611 0.6550090991628719 -2.233956974849636 -0.9949112510777123
Ni 3.2976810485376933 3.1126082484205306 8.956280056195343 0.3289119714519238 -0.2892393354526503 1.5341302051514418
Ni 4.825079147258339 6.664653041643921 1.6591631768385582 0.4028291304563643 1.6303318865856955 -2.679403425755895
Ni 7.755175771495941 7.812542400573572 6.407314249840415 1.0225840344026325 1.856900325371686 0.3145194501756777
Ni 8.83236368316864 4.138108660261071 3.7539721725048523 -0.7926114550310994 -0.708726900401302 0.5342922061960733
Ni 1.4849623829697547 1.8805898278251048 7.606371449717021 -2.183637143549162 -1.0282741428088742 -0.2840233384693495
Ni 4.786828541457952 0.9958148980231111 12.443956744825236 -1.2245267042201426 0.7573042950893731 -2.00214965626221
Ni 8.579614592876265 2.131195325216004 9.020141493375762 0.7765821694823787 -1.3694513047813963 -0.5976593575988094
Ni 5.368196919282872 8.860879964494355 3.1071323429176663 -0.0746218983809489 -0.44428276961546065 0.4684601381926125
Ni 0.5506825206534691 2.2962519786297606 5.04135189565839 0.21660592825663988 -0.01445448486243317 -0.004524884453547046
Ni 0.2064549073188253 1.2635505793799287 11.744732515722337 -0.8632545712699585 -0.6987420212744482 -0.006567883025504818
Ni 2.8996501813382625 4.530720227657632 2.1328238990437494 0.6995169517672598 2.089115935141124 0.0963574902858276
Ni 3.9255310577197573 6.222850192988782 6.330849228769145 -0.32788944372468043 -0.012674510143874945 -1.0471203289810997
Ni 0.9165446469340192 8.352792769106518 12.382988694080662 -0.3110795712561933 -0.724788581849855 0.8844833987417478
Ni 6.525087512474139 5.3247311653845175 12.94464529683494 -0.5366061990412306 0.5963748344594311 0.2419186959898156
Ni 4.995248872917611 4.424125198829621 7.668412224874628 -0.2626862675544701 -1.1512718613900494 -0.6602027275486695
Ni 5.364503629348725 4.480341154661439 2.079149631937969 -1.4208098617590303 -2.8511562022535863 -1.0794681491841862
Ni 0.6488108215017917 7.516485309972994 5.1476416248913415 0.22764136013519506 -0.10393478841245325 -1.2124409767002025
Ni 0.17818639192587946 6.280968471525373 2.867578876460358 0.5598597702525326 0.946029437775345 -0.026734844891682985
Ni 7.88208389496176 4.233846530237443 9.325049488346165 -1.6324003390789499 0.27276447772607865 -0.9505499513535177
Ni 8.73754449586433 2.778513983347416 0.07233744478305834 -1.616615051220235 0.2687759253919758 -0.28856416376249655
Ni 6.863144176546954 1.9831203818009635 2.240037878722533 -0.7488903599940651 -0.6632795667017803 0.12309079251561383
Ni 7.013409110978222 0.9908410201218475 12.834280885164594 1.6807669033077954 -1.1926486245646235 2.446249106222271
Ni 7.583363552574498 6.573285874077055 8.750301193533858 0.9145426800209733 0.5534813775300146 -0.5648559379155433
P 0.6837866483630832 7.61334601432633 0.9178976159601465 -1.625154199039498 1.6420993115342686 1.8243259909800902
P 7.06730516107251 6.953499865212258 11.483353376086349 0.21357948272549024 0.8663573785649983 0.7504124530655464
P 1.5025565480831795 2.152167273083271 10.092956846714365 -1.1234993192624716 0.676185733240487 -1.8738127848563082
P 6.383137120206177 7.4057794081780814 4.704227833692062 0.5892482507169787 -0.24257766973005318 -0.7774540305643707
P 0.31848408334642525 6.072195514393608 7.626526790764678 -0.18652042172516908 -0.5866221259480413 -0.5587235997655604
P 7.584560623935063 4.630429776256655 1.09758081106788 0.3132835208860475 -0.3412314122492252 1.2893568133216504
P 4.721611351364519 1.377949771108989 10.211824176893908 0.3306703489039273 -0.721623553858312 0.5560483669262424
P 1.9203344529204622 3.029110201115365 3.237746747789763 -1.3532561830787726 -0.7387422158164697 0.8581493888329093
Ni 6.200013040908539 4.570214302933336 5.0386348220585955 -0.07020757136333715 -0.6034068016055479 0.42138298219915177
Ni 0.15684418710290204 3.556276301288644 11.212575834326483 -0.8350130599257619 0.49106733406916714 -0.09029354347993482
Ni 3.965841739815072 2.4084797385884933 2.486286593138351 0.40542543042863083 -1.5260415146060364 1.8893576745694431
Ni 5.8974880531117275 3.064112938883212 9.655410561106446 -0.5491863496990864 -0.28713745861829904 -1.2289232906259415
Ni 4.935191153184445 1.7119790788214526 7.042569398136674 -0.4943591174465615 0.8202161041222454 0.37865407587205757
Ni 5.438378707654619 7.883178890469875 13.113003640094352 2.028838992627938 -0.3552295263005302 -0.14961300717585846
Ni 2.6229967823263816 7.182836466801485 2.5789139335018434 -0.4844932803960753 0.09973771961197016 -0.10156371707711541
Ni 5.916186493356217 5.1901023956242 10.669417231960969 0.5591594017513983 2.307618823310161 -1.9901351482998373
Ni 5.192477979099429 8.485676969752214 10.543488108716387 0.35945462012547125 -0.047885510827369145 -0.0051895146207394495
Ni 3.5981552396625283 8.250382850229013 4.865129071948756 -2.074496642566053 -0.21373426313579963 0.08018910805608126
Ni 0.7983667927396707 3.959939899618796 8.684063244915912 1.5942883626985769 0.48723819013106406 1.7083988060924513
Ni 2.040087987091741 7.5919379241804075 6.96037328193141 0.032720887271788804 0.24757075206927043 -0.33857469135266854
Ni 8.78213308413965 5.730594034353849 10.625481001179043 1.0662238825797703 1.5199341161567177 1.5441719056581598
Ni 1.9182001396419348 6.06682261270549 0.39894119821083723 1.1837315245806517 -0.511259492746326 0.3147104831405612
Ni 7.906331549730421 8.187893869282915 2.966928375688916 -1.5403319630867796 -0.9147686799888504 -0.5815225999379469
Ni 4.300817569068448 0.3755973787175193 1.0028228692750405 0.3388677971130551 -0.5277186667436137 1.8020095868710773
Ni 8.738750846847847 8.17895759238195 10.291629862227222 -0.7809443031058163 -0.9221909405948505 3.0570632560354833
Ni 4.011692356811607 3.168787085760548 0.3822787072416046 -0.18296998536974943 0.8719310159980338 -1.064255960220122
Ni 8.72108244475082 3.791904487238052 6.9663215202424364 -0.8402588817057336 -0.3836594995064489 -1.148079836815313
Ni 6.016165151020793 8.405742297659895 8.055055138789674 -0.6483843947575026 0.4262613933373755 0.036542832121040286
Ni 0.8011098492837258 8.964579750961928 2.9536455233981167 1.3300746027559867 -0.40836625822450956 -0.6538235634952031
Ni 7.579883693968203 1.0746452949843672 6.573431564157371 -0.8767803736705352 1.198674261933413 1.8028901897038174
Ni 3.076306363439667 1.6911741641672868 4.923693700349248 -0.5364046245533859 -0.7592665610220666 -0.015377510897334806
Ni 4.684817646367299 6.188543426942194 3.7398884887534574 -0.41148989145515585 -0.10327375778968664 2.4547828547248947
P 1.9396175094108083 7.763852218954301 10.519584727959176 -1.2160112105499639 0.12744187039545793 -0.7318624579775008
P 3.927247787965529 5.40327389403432 13.681899276712018 1.4913997561624508 -0.26480768477284716 -0.20877434802736303
P 1.1558976735356044 3.9942930637801353 13.077799534508486 0.9757930421910227 1.3524827952478577 -0.9293666324076834
P 3.240286580591211 4.802112080456796 10.297374876795642 0.5325011757339216 0.5099472016928056 0.11452953320916405
P 2.4935089236804284 6.260479064051512 4.530450190629784 0.23742415055357177 -0.38203507652914853 0.3247910073050148
P 5.437534261966157 6.238736907479384 8.737696681680712 -0.8144012972126814 1.0508844240092223 0.4271533090240256
P 7.660866963453887 2.111782354004356 4.2991268217669365 -0.11410375852565509 0.5365308657186051 -0.18409278612028296
P 6.430908619153388 9.002236460893508 1.3015422837000086 0.5377372273218803 0.5563445580104225 -0.6180476914471743
Ni 5.379351026068914 2.408154951785239 4.603491958794756 1.2222667045413724 -0.5676777236350545 -0.303119178758536
Ni 1.9840576237189254 2.5519705482661745 0.8891187213049442 -1.3113870536488126 -1.9638589882121276 0.8366259129388365
Ni 2.494594639565592 2.5033082055157534 12.03933177755745 0.38371709221726175 1.9983194838828422 0.44471651471876966
Ni 2.4082477480147397 0.489487119146618 11.025338098175059 1.1237541155857549 -1.0759758197602116 -0.2790569956030097
Ni 9.267828549348849 1.8963466275944059 2.3665646096851027 0.46152201631188255 1.505681977113078 2.3505400481537193
Ni 0.9489806409938631 8.723096122930995 8.675289361416576 1.0175194753955314 0.925525147174406 -0.27332292133270997
Ni 8.960737987060579 5.873026967015216 13.29752430264598 -0.5854993251975077 -0.2539964530899561 -0.45847063108006847
Ni 3.302682765307807 7.316954857299547 8.972035000040053 2.099325528684275 0.6315709227445898 0.017107606214564086
Ni 6.896968402200136 5.558809654301255 3.004617564300822 2.9730534886817312 2.354782111259525 1.1052362592872256
Ni 1.3130852066876608 4.712146135955398 5.463863336162528 0.06883408805457823 -0.04253838758284287 0.7342057613986969
Ni 7.0953667408736685 1.2618152898882562 10.672024806009954 -0.23807695364622225 -0.8849094305355727 -1.4261325595235246
Ni 8.529551027060375 0.1670397088381972 4.823325298520768 0.9815065476360323 -0.03471143533925635 -1.2951425667654919
Ni 1.9629650407533061 6.044375204789154 11.673102178208076 -0.27991445850729857 -1.5938641306769645 -0.35039199570257074
Ni 3.560229420665394 4.089808222805704 4.538544805729172 0.15555225547842888 0.2364273338579412 0.47606186179927035
Ni 3.1700398348588137 0.7160110670196645 8.726288313225837 -0.260016691142107 0.6359487400973112 2.7107037785310735
Ni 7.826870138408555 7.966834691365192 13.6589461293449 0.9032722493134767 -0.043959950520717835 -0.4346835559627998
Ni 8.340617903795964 5.7340182152224415 5.616018529788736 0.3234087822455075 -0.23959981804865185 -0.4906659848656904
Ni 6.132847129995582 2.9725508992343928 0.1779376980308163 1.9523311900781861 0.08975669713985832 1.4596808277926152
Ni 6.193099721810701 6.248628985544211 6.655668510703616 -0.14015031910106185 -0.6117562020115077 0.21416209470183759
Ni 0.6090754760293845 4.289051007167697 1.5557798255135837 -1.7498719856355736 0.5159227025499502 1.052005939208175
Ni 4.938865883872692 3.6752132286403123 11.892541133958707 -1.856090942096513 -0.8930647126528555 -0.4544921060482947
Ni 3.4483635660017167 8.010133412050445 12.287917101032109 -1.7337773940665557 -0.17916655246325916 0.2362311586867351
Ni 2.5518127946760223 5.340710676104622 8.009991433819309 -0.12013016722539309 -0.7221264616366595 -0.15922019124831932
Ni 5.456065668997543 0.016177166688941494 5.425604378701484 1.4660952159593912 0.42789250118289535 1.5738853735621927
P 3.203093851807136 9.32360836290201 2.951472235703199 -0.3906811822399207 0.8133052359350251 -0.03218764047613811
P 3.8484545094960736 8.984911404845638 7.229344081102888 2.3338294202672576 -2.856845796439196 -3.3099052838060223
P 7.179597878391894 3.156556542712292 11.931724341865582 0.5747125189946489 -0.24655593765151088 -1.623838565551868
P 8.098113517240519 0.014609838372666488 8.722186719881885 -1.694664230115178 0.5898897409557197 -1.8271269507639951
P 2.937975024122252 3.113480532977842 6.893007859125025 1.6400095188847759 1.980551104155828 -2.736956284469699
P 2.6462329581934774 0.7514703622366572 13.347817075148738 -1.2495237404851125 -0.5834807521055821 -0.9502794713009506
P 6.730167179671757 3.0380835965081294 7.2595631732399495 -0.27804629495030825 0.48600148951048566 0.6605210301200366
P 1.3461763421277833 9.651828626647701 5.883061951273474 -0.6442552030804776 -0.8286282394453407 -0.09644979288931776
