# total energy = -381170.6435245549 ev
CRYSTAL
PRIMVEC
9.22940853820955 0.00000000000000 0.00000000000000
0.00000000000000 9.22940853820955 0.00000000000000
0.00000000000000 0.00000000000000 13.50817231857957
PRIMCOORD
 96 1
Ni 3.698011615981742 6.291484568266215 0.9164617820432793 0.47212807396250306 -0.055058888647356787 -0.5802000244717814
Ni 2.38308859085044 3.479283869474827 8.164163808460565 -0.8114015911544091 -0.15709903114025847 -0.0397004039134155
Ni 2.357735406342465 2.986396550412617 2.300049758795416 -0.716091054075857 -0.3364625301056721 0.1524227087105117
Ni 6.754856239692274 3.211271082824997 5.360420939404563 -1.7518807885354861 -0.45971453078949864 -1.3148842681687938
Ni 3.4668241683151013 2.2438629671508403 12.134552798261346 -1.6828464115446435 1.4447324340128989 -1.122614602664673
Ni 3.1203152643590006 8.87630956500501 12.901803659801539 -1.1317906127369861 0.5914216042192137 -0.7367958907233763
Ni 5.7239221069200505 0.4521505568556936 3.6988478003706837 1.483690303333335 -0.08846368936004766 -0.1197712412240776
Ni 8.415688257242357 5.322710500168621 13.170859369585479 -0.3722065204745009 2.0794429308277347 -0.8617484190380772
Ni 0.19936352502304852 9.162725791738168 6.629675929492579 -0.08367989481815911 2.759743971788176 1.265056803123705
Ni 1.0956599729449321 3.8239745800024343 12.340836533602591 -0.08832510689965434 1.2298182916363851 -1.2339999338179006
Ni 8.536575046716495 8.35881664350441 10.494849665055678 -1.7400460006840872 0.11367824095246229 2.229033312295774
Ni 0.11375522570664094 3.497511950801092 3.475463817393338 0.4140034019056289 -0.9550987470664648 0.24976261751426668
Ni 6.192628376324126 4.966658388064997 10.533456279834294 0.34594244457164935 0.6844135204669181 -0.556963165431028
Ni 0.3277639757669136 6.997912706389587 6.326322815649634 1.6344387096652175 -2.752349736206634 0.9730877274447176
Ni 8.834971045379522 7.554815201187987 8.481605614022264 0.6937857057104374 -0.11421405885127427 -0.493698343934111
Ni 4.699559312833547 1.1109992494837941 5.862519207916704 -0.5635487890683456 1.8382549423563568 -0.43511987216926995
Ni 8.168220133393675 8.69762822096628 2.656773771820838 0.26842265581761515 -0.2860743074611073 0.3566670300780051
Ni 1.6193550568005963 4.655978046999308 5.903004007277545 -0.5772311716514447 -1.3481589710615236 0.7646969880090185
Ni 4.322777949763447 6.54682537736619 11.477231572701346 0.03360149010452922 -0.24073444587372733 -1.678184744402916
Ni 8.968012965540591 5.685804650779556 10.639400657325027 -0.2037686672826555 0.7839231832284822 0.3024620047905114
Ni 8.36588637023652 8.23198611510667 4.992120479590516 0.6218608945456774 1.1335551608365768 -2.49500262147689
Ni 2.5744788300720907 6.361111224228415 7.276447018463186 -1.3890161142872013 0.5681515779476796 -0.6289663952422071
Ni 5.870734304214683 9.349021397596733 7.54055853423878 0.950836372245685 -0.9662007705168972 0.3798439824151007
Ni 8.40271170921971 4.722309804210379 5.64478177691678 0.9935141136198695 2.7153289360079107 1.1819826602103451
P 1.118641199528426 5.723091460176068 8.733857340175456 -0.022616451847935242 -0.2348957277047632 0.30357272135618685
Ni 3.193107607356597 0.6274723962854317 3.843952557136021 -0.410056501442739 -0.5182444087045913 -0.93943764349044
P 7.025803978170839 5.030147487529998 4.1348515074642 -0.07374926596800847 0.2355004511682976 -0.6865141117496886
Ni 6.628773293364118 7.237231262738982 4.271243702825995 -1.966851238071232 -1.4045610040003358 -1.3810932598956989
P 1.7514371185019535 2.362756204439421 10.614843047809622 1.5360009398115935 0.8846641472939861 0.5035685518599714
P 4.992777613459088 8.400459733602693 5.193162833977235 -0.8736654821906372 -1.6457145396893527 1.1570786978798135
P 9.19174305132793 7.339668465088459 12.408404108580541 -0.530634297728512 -0.8070412573031843 -0.920290638248344
Ni 4.3970469980836775 4.012374490945751 1.5164951475525155 0.5365534914264244 0.1413317410036727 -2.839515789801181
Ni 5.684761727645446 5.561032280425238 13.221826007914542 0.43419916012721343 -0.5570197297005761 0.14324232776282425
Ni 2.051032940239621 6.640873047601452 12.281940910631805 -0.35791735754533843 -0.3787090974797091 1.6652109578510677
Ni 7.485530033331647 7.4757468605691955 0.805343398278367 -2.2195667675662354 0.6548437772296013 -1.1438817395735654
Ni 7.2315367178385745 1.0686178067241945 5.910271243346559 0.6506760190051568 -1.1241171553521285 -0.6430922931206279
Ni 2.3638175863900646 5.164269248458244 10.42552573368462 -0.10881114266814809 -0.13504205134021902 -0.5439839795625405
Ni -0.2065975352223025 5.815256331124971 3.336653517065729 -0.2423647823882987 0.6293746864242192 1.1582364656333408
Ni -0.04742623731804865 2.71101869596615 5.940204983177179 1.5624619622165994 -2.082870211341729 0.35845728920920844
Ni 4.16525040947145 3.365060712769076 9.890143450141132 -0.4792490012780005 -0.7880030097248106 0.528028998895181
Ni 0.7154083523666414 0.8694453304522617 9.44550840043682 -0.6705557886482194 0.6078632947150047 -1.8510312681854186
Ni 1.9201599310211706 8.558430285491479 8.17117446697977 0.9297764662515923 -0.5538328473321623 0.08839658356753809
Ni 3.1868316097354024 0.4453807858922427 10.53278068714919 -0.22789615645847847 0.7396832395735002 -0.5119683458878925
Ni 2.469374328733606 5.473925125206356 2.823734690301987 -0.5710913773022939 -1.227794833448453 -0.7653271653938497
Ni 7.812998668034033 1.5024184540645054 10.45494724135645 0.2448019310748816 1.8476633801544502 2.4243039694097472
Ni 6.923329858188296 0.029631938180307283 12.26175896357553 2.3634917232183814 1.244184073439754 0.9667430161736124
Ni 6.607804077782713 1.2051115255769211 1.4465491540642963 0.6659925947575691 -0.17471571578075717 -0.18244753720737614
Ni 0.4477785861598699 1.1724301909053745 1.9419616392282102 0.9986339513449383 1.056018145691362 -0.2136797557487804
Ni 6.504240887624728 7.456300497351756 9.378885916865354 0.08422291180582268 -0.9420938501663646 -1.5210538315834579
Ni 7.322344865772308 7.282206169221459 6.655989895401092 -2.177277776990037 -0.6413118041814374 1.221248033468871
Ni 4.3461006644528 6.02640673344512 5.530353727347514 -0.3467112044168738 -0.03780318689070263 -0.7611097848783924
Ni 3.721168201322299 7.616956807046085 9.469485480172265 -0.014804926223316438 -0.18115041566250736 -0.5930995061422688
Ni 5.34515642107266 8.68577766075214 10.79401539636813 -1.0403264459877182 0.7976104509075876 0.3230354580664888
Ni 4.678091709205753 2.4469468666461 3.1398936081146496 -0.6971286540407414 -0.5745615952390815 0.6755460427739591
Ni 1.4745179528749868 7.943991659559948 10.515449704306423 1.534546466753254 -1.4376009651744404 -0.9568692087033261
Ni 6.620983672787223 3.4313924699801484 0.2212150720347272 -3.1028453473666047 0.46058047833421967 0.30556609763713183
P 1.521191070478492 1.4194737619737992 7.467830797099049 1.0331939487079949 1.1306541851396978 -1.0988581236750237
Ni 8.592846748917122 3.6048038218987286 0.9807741447256494 3.9748426978261997 -0.02937768183116876 3.7126246281573994
P 5.474589642601543 7.0744429597351015 2.060158056192673 0.618560883638167 -0.15692908122129748 -1.0419796653204247
Ni 4.026606238492637 5.374090615988022 8.615593548530647 1.0793853596623926 -0.10862808012306452 0.5147615923623134
P 5.691997583726353 4.02182540501061 8.516727204239466 0.09754842527013523 -2.9350212164993583 3.663724302912271
P 8.109161149896575 3.7252291409595424 11.777099661982874 -1.000347591601935 -0.37959175719497856 -1.4345668063338068
P 1.4404245187386713 8.31116520862466 3.355118794184442 0.11228264615651629 -0.8208025727533347 0.05712759825092742
Ni 7.027114554144678 5.369623582387054 1.8804051778542061 -0.5671455052806683 1.2756188949102676 -0.30966469318653767
Ni 1.8544557735722178 6.531467642010795 4.742044124965731 0.3040239499609926 1.7763358362540569 -0.812579156402278
Ni 8.362646847934991 5.199599423302266 8.203215280717624 -0.6272949210770551 0.0055522972767968895 -0.5866524649653445
Ni 3.5318914965936683 4.704340146315576 12.507203078191377 -0.1265977772276078 -1.33327614041242 0.8545264473683413
Ni 0.6190819412303898 0.8121814668629898 4.311552220488948 0.05896028058429201 0.5915473311638005 0.6403144732651745
Ni 5.711462405760324 3.0128295756877685 11.679206097322975 0.7324052178548482 -0.5994002515493161 -0.3650387990814681
Ni 4.355606954967257 3.63833426213079 6.530593617047961 -0.8586823785182437 -1.0696249378415192 0.5135791420184381
Ni 3.787878364272296 7.455580603506973 3.4053295439764826 0.4911519233631735 0.14945925520681358 0.5169845681555613
Ni 2.718051505065195 8.633336162982097 5.912256489064675 0.04462432357759411 -0.13457899566087145 -0.36360772306189637
Ni 2.3865127013172978 2.319313379729178 5.23010723232706 0.06616271187000218 0.41902990858594286 0.8240380489714969
Ni 2.4160468077699804 8.094837108267026 1.4321771195117594 -1.638057280254411 0.49161240793935984 0.6599810984561666
Ni 7.484394816114872 2.9672362988514394 7.518864810108459 -0.6004592889414498 -0.18919642589543545 1.7498835555997991
Ni 5.067858849706768 1.0490976082406245 12.92705070611445 1.3805713259539578 -0.5010858946474338 0.8042696080953181
Ni 6.840034448583465 3.3085398165452546 2.7529248242000266 -0.21592072926415715 -0.9403616979666064 0.44344073333013956
Ni 4.909694480244386 4.927156520684535 3.4805427607623725 0.9923357770410522 1.0734222001004223 -0.02122805614084086
Ni 5.684106439658527 1.360488613742832 9.385410185568917 -0.160977026038426 1.3156519995727536 1.1951464512858128
Ni 6.146398270317411 5.024305272097327 6.98298229263693 1.6203320950605062 3.3846940467821387 -3.1658653998425668
Ni 6.970990522476313 7.051129474454015 11.831091700341686 0.4779606214838801 -1.6486443117416378 -0.5035580103370102
Ni 9.385846736579921 3.506953635457684 9.689803453723492 0.09072626014197924 -0.36520386390442267 0.39272829457693653
Ni 3.720586748601512 1.260423369317836 8.147885901101002 -0.8736724241691728 0.0768178775910032 -0.7049952012730116
Ni 0.2547252075686024 -0.3630498494512563 0.2499406823232678 -0.05489948025135707 0.949498884381184 0.04246176870863655
Ni 4.677325668319638 7.348445632349866 7.250336099536534 0.9895165624247021 1.2502127961323373 0.980466536407292
Ni 1.5267010272135708 1.9838428480597676 13.51870838362187 0.43039084212471684 -1.2494250101237194 1.3185529752696323
Ni 4.583314915717441 -0.11525592749076786 1.6176577686203937 -0.09992952390780209 0.48319230219646464 -0.34630728411023587
Ni 5.145939643641048 7.852251341391302 13.033616222781514 0.7015450379408821 0.40818962343732923 1.905897066985363
P 1.5195297769905287 4.5773804062021055 0.8939641764529482 0.20021565982407452 0.33548319691153833 0.4245415824327914
Ni 8.208368059352791 1.9702202414584677 13.154055385954731 0.7927225266876671 -2.8176346734573734 -2.139935074675521
P 8.07068374683369 1.631990116717385 3.208596400309376 -1.0613292734916302 -0.177640602737036 0.6967195915277807
Ni 0.27864414203196886 6.75095219999556 1.3429619674448179 2.0276681122482887 -0.8969730465683262 0.11062711283096432
P 7.6923149255417576 0.3181349341225123 8.839531296003981 -0.9216692637634256 -0.945561754110307 -2.0656484481468036
P 3.3588308621892136 4.228988702959646 4.724483329857132 -0.8205094669929482 -0.444957169974666 -0.9337382791128176
P 3.7952711202937333 1.9647564317647215 0.8690604641275501 -0.6157822924517653 0.1988141514908576 0.8508973352561863
Ni 0.9483955346452426 0.6225955769574325 11.656053203745728 -0.2814820601047346 0.39305816711252956 2.0957231560449974
