# total energy = -340871.1156273714 ev
CRYSTAL
PRIMVEC
9.27036944001748 0.00000000000000 0.00000000000000
0.00000000000000 9.27036944001748 0.00000000000000
0.00000000000000 0.00000000000000 13.56812273877141
PRIMCOORD
 96 1
Ni 4.201145926870105 5.657391147463064 4.576256585101526 -1.5609442400204925 -1.3152074558361673 1.13642065530983
Ni 4.584846509228447 2.602452212715457 10.956801424954714 -0.5329490619046177 0.5440816814826693 0.06383380662650942
Ni 2.080280125194356 4.122727873568118 3.8047866553305516 0.08293221801885718 0.4075661309207174 1.1104388865340875
Ni 2.5019984917578584 4.11884358886147 6.806841841778535 -0.06831421099536622 0.6926487638925167 -0.7628838460596797
Ni 4.860982997431103 1.9911733361721675 8.78487072142193 -0.02108741679791852 0.2494584560102865 -0.4737563535945453
Ni 0.7934286533619925 5.321432966630343 10.973679986208637 -0.0030482999080205567 -0.37489023795425114 -0.026956473984185835
Ni 6.640699211506296 3.3336340448572677 1.9702130313470356 0.6679610313378497 0.7755578419829223 -0.2558623026541013
Ni 2.7516958869214716 8.358285411013583 7.734005768664559 -0.3267172777934502 0.5452299361544998 0.1999040421209267
Ni 7.382050638691525 8.192874212873454 12.262014717117523 -1.5255535192260243 -1.4721321661820905 -0.5486201927829714
Ni 1.2926046629754318 0.8354132285599316 11.366097496752326 -0.9968254373812898 0.8728854094915032 -0.953549400301474
Ni 1.9808554152210964 7.392192422627259 0.7829271791002015 0.44412361832977704 -0.6014478781069641 0.18755709051979955
Ni 8.062746040016146 0.36299613972391087 1.4391024538160313 0.021686226724182005 -0.10883094016249 -1.0453555237711931
Ni 0.23852103802200378 5.647499663496494 0.13575343290502767 -1.3147163751323614 0.13390536663261457 -0.25135875835679294
Ni 1.8397047733513663 2.38240145834387 5.196007652082537 0.36208974375547315 -1.1373776199064605 0.32102716938720843
Ni 3.8026776463311185 -0.12482088647412182 1.1331570933598536 -1.004470355521057 0.5751287805964611 -1.661699088043067
Ni 0.1817483698311189 2.9405425784706813 12.178611059244572 -1.979700069009442 1.542132763740944 -0.20664881704392798
Ni 9.266401510246268 0.23561106912124796 4.448417266406678 0.45941216905773136 1.4191070201353109 0.5109609876693006
Ni 5.1535929317524065 4.996358199271618 6.937028417961983 -1.3338947478330252 -1.466558785859371 -0.12620902642962134
Ni 3.351275557498677 9.370025697479939 5.638382255360484 1.7538199145397277 -0.038302752234940486 -0.6468409615297828
Ni 4.862225226907693 1.1626897086103722 4.181600280389207 0.6835288038691196 0.76063310235229 0.5478182657069662
Ni 5.602816483816203 1.1070767636099448 1.9956944952447977 0.12389374803288342 0.006932465453775157 -0.984930999936549
Ni 6.655809913348386 6.091976786515413 13.332484646718854 -0.29861177780648573 -0.6132767524210921 -0.5382517050644536
Ni 1.0896948213069273 3.6971252222979687 9.172661390683787 0.284248052885646 -0.4367841472455703 -0.6279760063044798
Ni 5.992403750634501 5.960708358243026 10.711734579220623 2.921289468735562 -2.600656449462979 0.8862880560506542
P 7.689131619378167 3.1051472544879495 0.06139023910348913 -0.6476112640369039 -0.27325915797431 -0.5430946349790517
P 1.522046301375262 3.8488255443494763 13.625651730230775 1.5883396013143096 0.3810775977118856 -0.44861739243507254
P 4.121300236706964 3.401474606869791 5.187445539063302 -0.4662459041501132 -0.5735326397539348 1.0495507927994634
P 5.09566239444491 4.746632993000319 1.3212065331554315 -0.5726790335043879 -1.4366350017167453 -2.543166068555994
P 5.983263166575421 4.028281351870443 9.35560007592382 -0.8812474083029532 0.011871040405973103 -0.6313485223211385
P 8.203711274501309 6.13635404401117 11.553147590745096 -0.7653248514010045 0.432988427648564 0.8033350120961906
P 8.658441425886704 1.993574361802291 10.4406838155766 -0.3296704468845032 0.4219550526525378 -1.4424246118153288
P 5.911584671702391 8.502244974759481 0.6733096981604522 0.06416110805894111 0.26418727758002886 -1.0381741755314056
Ni 7.845281718659248 5.562008318473332 1.8711118572598424 1.2215640220473931 0.08267485059241245 -0.03233779290075721
Ni 4.65161170841049 7.234373656885089 6.702747646824993 0.24464303689951417 0.8618636044597028 -1.4893454447365835
Ni 6.306650726734599 4.093238829052972 4.697365615736646 0.34513563239963785 -1.3197673072927076 -0.6273717970615776
Ni 8.742060156325753 9.19933965924892 10.480560308812029 -1.4649976120198382 -2.6970648475914 -0.9998562537878135
Ni 7.808367108392252 1.1669448080861509 12.440719624731 0.32191317153658755 1.0994181099435518 0.5423047920879047
Ni 1.5397990584474104 7.778006649169649 5.401971153374836 -0.3759338487274171 -1.0489406700192903 -0.6269683909755719
Ni 3.269084463920782 2.7520759720598313 0.7956757908629266 0.7617049952602301 0.8864235531872541 -0.9951254239710474
Ni 4.9362769363031616 6.7876716452513834 8.993779419018052 -1.7233808813235802 1.0446636399104912 -0.8777188263244045
Ni 2.0337706827760957 6.360010972012556 8.72864407797859 0.19788546902900112 -1.0034650541849943 0.46646959012514505
Ni 8.111369126618452 4.087889826008257 10.097003417176724 0.0696262449385704 0.35074475105629915 -0.5878644829955747
Ni 1.3131663419237478 9.066133723807823 2.290733266303909 -0.3249460448256404 -0.4110690018676533 0.41519613666214944
Ni 6.559360991897403 1.3671755130476837 10.246700412438003 -0.027034892630605052 -0.9879718436454017 1.5863554810047453
Ni 7.001817174424558 8.874997251059229 4.947574735281661 -1.6916897208678865 0.03848607189034017 0.5281652673627291
Ni 0.5348502444776908 5.948341685692505 3.2671358323089983 0.002730768667601749 1.109585794505173 -0.08316901662001161
Ni 5.526576967282861 0.3428247433201052 12.373218358232231 -0.6876094016963964 0.19935074072061795 0.4510625115414554
Ni 2.289132273538186 1.9443487012001457 2.604577908379501 -0.42053914614161764 -0.1604142115564205 1.4931360221272671
Ni 0.7315090761755688 0.9841794787506901 8.689554639090643 0.6466962084218024 0.823710233318433 -0.2505293204769621
Ni 2.2875841218770634 3.422499804279521 11.569036076565439 1.45691509212202 1.8108323273690297 -1.0139978353955181
Ni 6.759044745074467 7.965027077980888 2.507945433617797 0.47991748809993473 -0.41733837981613287 1.017446456065751
Ni 0.8362957677104634 1.4541408467781405 0.19896993474648716 0.5905361162904669 -0.32841806253464084 1.4373428264170474
Ni 7.083007068125799 3.5913317686648827 6.910610646772166 -1.37714893053597 1.716288236142857 1.1360653288529403
Ni 7.452051196734238 1.4368516081674059 8.156056014446435 0.21150845912907446 -0.5745140298305976 -0.27770073868543144
Ni 5.463204723238367 2.4720922806274404 13.356134285657108 -0.0829710416765926 0.14798318488191933 0.8278268265899679
Ni 0.28658604839676904 8.083140852318351 12.772202998337233 -0.3384798176460171 0.13151501202356705 1.4792176122739622
P 2.6451608037501244 1.8742647098343792 9.874675860122675 0.3411254827989803 0.8200965478252457 -0.5111525348548164
P 1.449487121425546 0.5295197821714321 6.272895458300601 -1.0551897362527958 1.420216965370038 1.137054432239087
P 0.05284944793347848 1.5704654398545475 2.675620455923471 0.5650616261684462 0.6367560664899549 -0.27642829973091104
P 2.613521033574018 6.221928822357385 6.473975329083443 0.7670842572942724 0.6653176801777315 0.3130575209181705
P 3.3540010460517897 0.04378858904976155 3.200503199406919 -0.607088107111877 0.4363632576580678 0.7711820815127299
P 3.1194792453148645 5.89411002570709 10.711747557737544 0.6262695651363344 -0.3307333409313788 -0.9765772286552149
P 2.437152259006068 8.824686957257375 12.76100902749409 0.3795269653953141 -0.554441941671071 0.9999238738009552
P 9.105644037458735 7.575949681470146 1.4055492794312094 -0.5438045165618828 -0.6659655981743756 0.4180842568432219
Ni 6.980161591907305 5.833843355354069 8.103384557602139 -0.5851581398080051 -1.0023435389860416 -0.603715076874586
Ni 5.345341248870066 1.4805799398171835 6.526158237469409 -0.08415374913078409 0.2609132348144474 -0.5381313774365055
Ni 4.329030670374172 4.917550790462044 12.706695788259465 1.1844293219786248 -1.1856138292050291 0.16695972598442213
Ni 6.852870152033848 6.220797837311536 5.465551980726967 0.13681842651435144 1.2154306554561454 0.11582768319529728
Ni 2.8135570607817573 2.010372270843927 7.577673970146606 -0.6479825313333938 -0.9843465881879886 0.4096104150442558
Ni 8.868304044476414 6.269624872036865 9.193230485927486 0.17812165613851258 1.0413489737149615 0.5433933971663931
Ni 3.5427179524318038 4.5431761995473465 8.976737699265712 1.1639993362590468 -1.0613385294630109 0.9450940704452692
Ni 4.598464681624784 7.2335764051314575 11.849204248345472 -2.1415718389479954 0.7408114396406725 1.3637555399481998
Ni 7.2325195830394335 1.7877999760422492 3.6689015831824823 1.053012783206135 -0.24306540799974916 1.042619870007585
Ni 3.1544563484131496 1.4782994289870277 12.270155028336871 2.3722542999023593 -0.23876086708712432 3.2740463651258835
Ni 3.146854645645963 5.087263439924091 2.1340890563429613 -0.6824067744495345 -0.30953536669752496 -1.9342468217726492
Ni 4.490826424515272 3.3037092929883927 3.090180243368898 -0.4048831847719156 -0.01444162934662674 -0.6044054180733914
Ni 3.9918024489571766 9.348703848254903 10.600556895139755 -0.25432915383902654 -0.1124453969866257 -1.7994279421868302
Ni 7.076091372681506 8.245641154520802 8.490048877002762 -1.0202875250589718 0.3131148565186672 0.46686939666672495
Ni 4.466593679352559 6.803727924754757 0.9315627170848414 0.4422184308872642 0.14748079132420408 -0.6833192589614748
Ni -0.13950793244247942 2.7366129961870667 7.095490547328596 2.928720213981995 0.15194448352251252 -0.445277272318246
Ni 1.6975436612357544 7.7736495756323585 11.04338018428835 0.8351336446640263 -1.131190517259142 -2.4812053105824816
Ni 0.5820976082865222 5.225262156256208 5.594530627799971 0.22559090536406956 0.40004668261522075 -1.1902135327605696
Ni 2.220930167125759 5.904261080012053 12.605396609628249 1.3213940442628533 -0.229472756916979 1.3102102597318919
Ni 0.5078363885464946 3.7310918551503716 1.9326430059756017 -0.010123461587247081 -0.6498560942070227 0.4606437274719873
Ni 3.0913622154455034 7.189894425327821 2.9075808536426235 0.05666299990968306 1.048892333279858 1.5504407693860072
Ni 8.884731138748919 8.730444383682721 7.0145157261934505 -0.03050202524359908 0.051181150859505406 -1.066597206758789
Ni 5.896464699491073 5.785183187274848 2.8786674990565535 -0.27384202706097355 -0.0232132048916697 1.5621400601008064
Ni 6.446837250204589 3.609408988660021 11.621870691908152 1.026844352340883 1.0517876525497822 0.9036831115986501
P 5.205052751338566 7.42493536674153 4.1903515089407 1.2419281875260417 1.6267811931199598 0.30623535579001454
P 8.987159448352141 4.971800991185914 7.451111181294491 -0.849023515272241 -1.2666632283788768 1.3282997702437511
P 4.888126638531496 9.152570646492268 8.00277694851535 0.05292847256791529 -0.2647956005879891 -0.3217265094470782
P 8.51488048801762 4.042733857497325 3.6959293446675203 -0.9415444054207979 1.0780095623607884 0.08138364258481469
P 7.502825008997505 1.7635857716179923 5.978169098684483 0.04675936764272592 -1.5556817060699724 -1.5148024513571074
P 8.67749203465081 7.488771129247438 4.990667119602379 -0.17122801434247284 -1.6245463902521697 -0.1186813505940085
P 5.948248982000223 8.185578432290802 10.429164454773543 0.7209820636195712 1.3461604525742557 0.341016982245574
P 0.6905970826973412 8.09438581019225 8.834720277873139 -0.22766552850491112 0.052766493068754285 0.676361596696719
