# total energy = -340871.92025166546 ev
CRYSTAL
PRIMVEC
9.22578266792785 0.00000000000000 0.00000000000000

0.00000000000000 9.22578266792785 0.00000000000000

0.00000000000000 0.00000000000000 13.50286549091897

PRIMCOORD
 96 1
Ni 0.18417983897158663 6.0953455835010555 2.6427264266662767 0.7108403471998791 0.22778277080906575 -0.6727142297521189
Ni 3.5858865130194584 8.792180304141588 1.1886544783014439 -0.17128997792865983 0.2697233769069097 0.7222015378489691
Ni 5.732523220438503 2.4418248562366367 10.838223688000419 -3.5989227330558533 0.24447745785592734 0.22213431427403682
Ni 1.370932883422821 0.8356188257110029 4.094041711108535 -0.5128054970772072 0.3877966616032741 0.7489335545271747
Ni 4.086302201856032 2.033131900727494 8.979608541262904 0.7483383441453371 0.4846218355541396 -0.24441780826258552
Ni 0.7939561128329754 6.8115615595295385 10.038624163783778 0.1645356899239618 0.4779917318321316 -0.254564152667968
Ni 2.3840714554490963 8.762943798215757 6.207051362532291 -1.438846407545767 1.2528114100974486 0.23976539709223865
Ni 3.770688169756713 3.5324231012680536 3.867180632829697 -0.15142614912519728 1.260807540929048 1.5109799922872236
Ni 2.8235139452753106 5.6074861851551905 3.075358443575341 -1.3307621157413145 0.2505627448180588 0.14504004309319538
Ni 5.694549898131551 0.05115973376791457 2.550285927431294 1.2996844204999036 1.541824745582222 -1.088005497231236
Ni 2.171813868880577 4.226958487544025 6.136539626609114 1.9813304055240133 -1.3033053050819425 -2.7181946875914798
Ni 6.208287617437327 8.649485120438573 7.118102956751148 0.07986206373396568 0.5892101983901916 0.12862380651870106
Ni 6.4976081683474325 6.054955106081271 0.24760248333483634 0.18514719552672632 -0.25626236630599736 -0.2852142734536572
Ni 3.513288827588603 3.9653337368198946 1.4951451337172494 -1.1633509040417707 -0.45263139869047203 -0.9595891787376506
Ni 2.8179784755512656 8.880332659497011 8.547935083194385 0.372292652430404 -0.9152739017600432 1.1637440257151312
Ni 5.429124124863576 7.5345400344042295 11.745791626606275 -0.1209943149979013 -0.7201564823944823 -2.847305203938612
Ni 9.043296888172906 0.9684488797874827 11.617689786252418 0.2671455888774044 -0.13174589708745052 0.15766364539447686
Ni 0.8186000240444256 5.277553738036341 7.406592264624358 -1.8577657586957745 2.1344871641870724 1.6413092115328056
Ni 2.0990870224894946 2.855573540760407 12.956688544837222 1.1776750339739266 0.13784455378602067 0.6731986255877052
Ni 1.9330413823338803 8.929229308726079 10.857505574205842 0.8082987838593693 -0.6140246863307103 -0.3572668684455331
Ni 7.301109276141236 3.035033469213958 5.896971877578729 -0.20614230972115463 0.863437890925358 0.7373198815476463
Ni 5.569411379236632 1.8893849777769094 4.808302743746142 -0.8134265920042378 0.7919874482938554 -1.206951928561173
Ni 8.497315057724565 5.053450246258365 9.346845441430382 -0.7571937376534379 0.4054215737738889 0.40517629053230225
Ni 4.9638125398603234 7.641808211873355 8.864577790084091 -0.17503941766876308 -1.0125155944230368 0.8512112669521792
P 6.630274926067052 6.310758387812281 9.80588902954944 -0.8606646990555952 -0.49604498978941675 -0.20695734942328228
P 2.9633399105046965 1.9435034201123262 5.361029544053232 -0.3713796536978314 0.6905484297200624 -0.9345080673993068
P 9.397566950511811 1.9643260120576103 5.820667272589339 0.16781410356491744 -0.22897036335926374 -0.5765295175987297
P 7.706416369335837 1.4728962357397364 2.808528506154033 0.0021296447484931065 -0.05647119561385113 -1.0276642771390172
P 7.220669675267984 9.004437890710108 11.550905266610098 0.08541950321708514 0.23197084074848434 -0.2122103702921055
P 8.22498839886728 7.617913434231226 1.2342252328046475 0.16843322520615508 0.5011843678985111 -0.663173123030903
P 4.240437356322076 0.2125509664638938 10.295503171797828 -0.7020854838253844 -0.9309049234290806 0.2531089082786802
P 3.7380473499505915 3.3867479896969264 11.196238495607638 0.558492971811993 0.44613704921538005 0.8449274908259965
Ni 8.269659639540327 0.2367990915900745 7.0125240201261425 2.316523067778327 0.8754094614649374 1.4100911897899457
Ni 7.909143722196126 6.99757179382321 7.46879987338318 -0.20041826275318386 -1.9704713513223224 -1.8710071970867135
Ni 8.539476885456045 0.7170693609442728 0.6139620115510545 -1.7033640718820213 -1.2273559461388217 0.7892862473126084
Ni 8.056211926981138 8.046026662688893 9.260481042795826 0.16944495430012108 1.6370041563995483 2.4197173784803296
Ni 2.137290989368281 6.748401849978181 0.819362073709769 0.062346937668337786 -1.0446842087357815 0.4191813465621427
Ni 2.105074555574337 1.64903488235886 7.688909523755258 -0.36120605559893915 1.5721601633409699 -1.3936551557211094
Ni 7.633883264385097 4.709051771594009 2.0841403316562848 -0.5829868431882992 -0.5920888054895674 0.8004417497087957
Ni 0.9219850695021333 8.940881472495194 1.7898184838505056 2.27929195134101 -2.2272623364382804 0.14373058025315247
Ni 0.24883504792672378 7.439182342624675 5.737516214129592 2.607508696498122 -0.20591579553264536 0.031223219680339774
Ni 4.023363911093637 1.1282671165035458 12.407027472178966 -0.31815010494972945 -0.2617457580180718 -0.15364578248433539
Ni 3.129726904626627 6.789198261844395 10.463762077264773 0.19307313524202233 0.5096936909211028 -0.09611092149266029
Ni 6.325990155336279 0.38895347047319667 9.5362775185918 -0.0788315655869223 1.0195565604302181 -0.22551762892397287
Ni 2.038575112622805 4.578488492369526 9.939202514648487 1.598775451935653 0.4120827878441483 -0.22622031141795235
Ni -0.02584510814156779 3.054721289865812 3.459906602726485 -0.09506448250601693 -0.7084811029390831 -1.1504259684499862
Ni 9.031949175238614 5.983243095806263 13.448246559537036 -0.043022783418429134 -0.8827854422140345 0.8012148804293944
Ni 6.98390840938769 4.313357944153499 11.426030605105359 0.05198204949424596 1.1025029195164626 0.3966445989122072
Ni 2.9087232758941157 6.216267919622826 7.916176536480526 1.1347548375716328 0.7557636900751307 0.41812025228747984
Ni 4.985262485040999 5.830602518165714 5.018300013510676 0.5950800269074075 0.18610724544715043 0.44729250297606193
Ni 4.333387118771671 3.4773728548624225 6.617781370899882 2.1901528331804925 -0.5767305778659422 -0.3771787768781117
Ni 0.4528613910155877 0.7802189221344696 9.263627957333947 -0.21583254042572508 0.10645446951051343 -0.6313562356306223
Ni 3.2607791503434007 7.893506020225698 12.59281351994881 -0.09420059184382486 0.22745829759011152 -0.550739038898187
Ni 3.5459665505262175 1.4416208317988803 3.136297507189069 1.041789917907122 -1.556561023351132 -0.6006855460196429
Ni 1.6706693431970039 1.881247837282563 1.8166489056029533 -0.41618446871734777 1.1531919612308978 -0.9411607968291339
Ni 5.785645278223591 2.8702517613120007 2.2105270989739756 0.34109540089199325 -0.3868206708432499 0.922112007727799
P 6.143845524066566 1.8188261903610778 7.343601386899583 -0.22369240278977603 -0.6520415318941157 0.33569505581202835
P 4.368371287427637 7.839313771627293 6.59490788742184 -1.0028991543791952 -1.270568991191186 0.46261602070700975
P 1.566823931173913 6.054106334056918 12.11324533267128 0.6705107943428967 0.6947652960148873 -0.53982393464758
P 2.91571641931216 3.9461717857918237 8.060103362197141 0.010073839296234264 0.17367236211790738 1.2935374270619011
P 7.526928763533666 7.812088486367864 5.358962968689589 -2.082858641377503 0.5299120748505068 -0.9091726739583116
P 2.749181812664255 8.53207780759157 3.2980753001874437 -1.8724218180460526 0.7935337097350528 0.005078185853855771
P 1.1930966927549902 4.069465148112061 1.5728409867639501 0.19612323492225578 0.11606371046550333 0.11687052263751485
P 1.1812507875455334 5.815970426528486 4.552437649269881 -0.31675708125694485 -0.5923762548229992 -0.04480558635046477
Ni 7.615007312626102 5.61186843202006 4.48473424165337 -0.4511617561234811 0.10103098450209698 0.6395948214903308
Ni 4.75021721477516 5.087760932764572 10.000465403241071 0.017656279629182495 -0.3372168917731934 -0.22697415886484135
Ni 5.261759197757065 3.2481859567211973 13.322777757615247 -1.3463316880447975 2.2349692181642347 -0.12642037110947904
Ni 6.571026948454021 1.6229166910442392 12.7842300630063 2.1547284309346115 -2.075444865411935 0.1690880851813346
Ni 6.2804147879416385 8.470200481859615 0.0074267552130941935 0.590420673758525 1.175688342561201 2.429645436227319
Ni 5.748991242867538 5.4708338892342585 7.59692846850737 -0.6334483422729607 1.302992144716898 -0.3160826808977395
Ni 9.260010527869284 4.2210816638536635 5.399971573561892 -0.4817002910319704 -0.0536766635878495 0.8459186510946721
Ni 5.59925678683211 8.683436001412717 4.715808734970494 0.0014758132145781034 -0.8084134550603627 1.432164110429585
Ni 6.487339872009328 3.6193576532841862 8.745616855401206 -0.289796750618017 -0.9066833318775547 -0.6508431407106403
Ni 5.145800332821188 5.327677416387572 2.574753626189862 0.9546009814944398 -0.5647386956113887 -0.9224179690039921
Ni 9.254844089460173 2.9550090285700086 7.789506537628621 -0.9100699889616004 0.09793717606812165 -0.28021990556285936
Ni 7.68063030620466 0.8325530980621692 4.873684021813416 0.39236139815582105 0.24973382115886025 -0.41919008831289095
Ni 4.307278153239923 0.8750175314718959 6.539154636361254 0.3225862863442122 -0.20365013942692026 1.4168693890540438
Ni 0.4167461413793411 4.109901754446212 11.627222787695512 -0.6314979034148092 2.688850687211724 2.673187012532538
Ni 4.427683845520783 7.3997236692751045 3.1642885324269914 -0.154782724302256 -0.4783748262031632 -0.7376664662537877
Ni 7.74485098078646 2.339760020308113 10.23943901185441 2.3391269212207715 -0.9795373397248033 -0.9508546270781302
Ni 0.6761299494435207 8.240773713363684 12.716931667257933 -1.4357217458738563 -3.5636603103091335 0.07428585519776883
Ni 8.996226943952774 2.686169715638872 13.258545089515714 0.022465013871735502 0.8343456015450921 0.9478608345571289
Ni 8.636559798632927 8.522824347369541 3.4002914389550907 -0.5287635630683604 -0.14091393673996377 0.6036274022567862
Ni 6.86550471199036 7.11197150145348 2.8140381436860324 -0.5821396646966555 -0.27723845433703226 -0.193390409372125
Ni 2.1363315079494463 1.9582831242755274 10.72935022431132 -0.40679222886917044 1.4182109906836027 -0.9357756212578207
Ni 4.1083518229234794 5.558691019537731 12.405906539559846 -0.6474179170791753 -1.0846517502676545 0.17392792977213917
Ni 2.9073394084631046 6.785674012786753 5.306369548263146 -0.11015094452549418 -0.8272475570477301 -0.49164557517014035
Ni 7.96322526140005 6.893560317708397 11.413081296264242 -0.1703003603218809 -0.12742412978364506 0.4775225055051969
P 4.477410815208457 6.444818238745786 0.8454931811204126 -1.2339333422460232 1.105786989584373 0.1048992092082516
P 7.812992613089458 4.841552465221907 7.254846587922527 0.17578915135059406 -0.9412834384499273 -1.0003406496234
P 0.4048550298338043 3.270530802840594 9.873120077082834 0.15741913348383857 -3.5214610512332643 -2.2274875650752093
P 7.485099063985631 4.072989397169703 13.604677088781981 -1.1451354094750084 -0.15938011386495132 -1.1377802546615179
P 0.8718724620903506 7.941775316219373 7.992804966448772 -0.2872606144597246 0.06820828154512124 -0.11150591589149184
P 1.5458814040512745 0.687678784444454 13.229905491741789 1.809369369670258 3.0045340757885155 0.7195448169524125
P 5.874019052367975 4.09335992575419 4.135508837389646 1.6470520275538538 -1.3646762519902562 1.1393167459107023
P 4.8457963253436755 1.3292415706178862 0.9957728809236579 0.46537301462685654 0.35161969746208477 -0.8102767335213465
