# total energy = -381173.2727100971 ev
CRYSTAL
PRIMVEC
9.20092401479204 0.00000000000000 0.00000000000000

0.00000000000000 9.20092401479204 0.00000000000000

0.00000000000000 0.00000000000000 13.46648233929621

PRIMCOORD
 96 1
Ni 5.307819672184749 1.113136952048147 0.6001468110187061 0.14769007912153273 1.2853114396076832 -0.3368299407474199
Ni 4.495102080377665 0.8845676051029238 7.051386435477059 0.07192146873065033 -0.8975222342035767 -0.3791240735299406
Ni 1.9068086317637485 1.7627037645285786 12.493366616545059 0.5643646001014216 -0.7651489879447726 -0.7059413672363648
Ni 9.051712335794731 2.097304556373438 1.8429284585904413 0.09944435674126745 -0.21493214009864275 1.1312270269240323
Ni 2.017210515428338 1.1913079999366674 1.3414863969165653 1.9693580636534858 0.3594299375351229 -0.056985159135792184
Ni 6.585947588302687 5.946391380824928 0.8768084661334805 0.4373009389809888 -3.385738171775937 0.7570263588376381
Ni 2.9570112655965617 5.144963322416998 6.589903985500435 0.43473857757045126 -0.8818791283496812 0.5528080056120738
Ni 8.518380792614638 5.544513434770928 6.929757584694582 -0.5222645856075779 0.17273313813308963 -0.277422031102748
Ni 6.330658758887093 0.8118067003592305 2.6788470996390146 -0.30257307644707887 -1.419199579849117 0.3057962113700669
Ni 1.469709549726079 8.184019224786386 3.4003540944677 1.8915731941635232 0.9456993081294357 -0.5781966208885074
Ni 8.855014988600665 2.20607787654035 12.17733604903558 0.11467737164093798 0.8007006597971372 -0.32739810591055873
Ni 5.883236240440418 7.576629446618687 3.1626574311965094 1.0288750096176669 -1.785847375288918 -0.5427007419747428
Ni 1.659322185659062 1.5781516366392263 3.4701780643613436 -2.093723352006149 0.20296159800032787 -0.3168144168574415
Ni 8.338640747828592 4.168938535580095 4.64438798775714 0.33587477592300224 -0.449466113588613 2.369871658602796
Ni 1.4755337344381123 0.07406467563420677 5.429901208414037 0.20020666096301004 0.4717264676487102 -0.1600110625807309
Ni 8.720727506970139 7.620223423183637 0.13890634533580376 0.37333549187262155 -1.7149780019718657 1.9115612072496755
Ni 4.41029716649013 3.2153087970671863 6.8901522085603855 -0.5152094785330095 -0.14323692844618557 0.8493163639223115
Ni 3.7564887281767647 2.993161694875516 0.11454966007562363 -0.4835041770099286 0.17409607991888726 1.322199570883284
Ni 7.581947580526358 4.370181139089713 11.744401305071632 -0.14321044608362435 -0.4314614494810763 0.3184049012730129
Ni 5.926747408691925 5.0943122373621135 7.5365161794953845 0.37389984901652384 0.9783641453523085 -0.38756449098780993
Ni 6.416070933739863 0.9661889993848285 8.733928992317413 0.8838645342108262 0.762154681203139 0.09088489720703057
Ni 3.6305648862038025 -0.3344977414992435 13.343694824224777 0.4221391436388859 0.0073908931474324325 -0.2977440304895517
Ni 3.9840091698183993 1.3131650336272935 11.528547634701495 1.4954366452359857 0.0018504229451774587 -0.46812820877449063
Ni 7.57386916950398 4.2918076708794475 8.956638270948112 1.9933125175865543 -1.3403070791172724 0.14892575130084673
P 0.5354606369279044 7.479412486638685 9.725223632152879 -0.20212547525227773 0.44547421882040056 -0.27849238134879134
Ni 0.2965696937584175 4.205604216587128 10.656013917726325 0.45171300064126074 -0.057028353668901785 0.36574662378177014
P 7.916621979760942 2.226375114257167 9.937590152434769 1.7817140698468348 0.5886520118938765 -1.3435505257552345
Ni 3.947729927607425 5.1355691793032765 8.825245399918543 -0.42045969905393393 0.2616310868170784 0.6582764570602341
P 6.9067285927265765 2.7045287179142545 2.9971944597401037 2.6993541578462095 0.9716000871555975 1.2145086578625082
P 5.9890560640945925 3.9984270172808887 5.70609821688117 0.9066385946825484 0.9365929749527935 -0.38090147714533756
P 3.238467522059583 4.739211787478691 2.0031257414043564 -0.8414585584407894 -2.727804699877418 0.8019486732716253
Ni 6.52816578736814 6.9812284720525355 12.233423039821695 0.34160216532508264 -0.7390733739036432 -0.49986719174898425
Ni 9.243800020207235 1.2435324429469357 6.774380665815318 -1.252587981232733 -0.6584206959475822 0.1547644694698109
Ni 4.578241627072658 9.069267698244271 9.401651067473649 -1.172836989155335 -0.48937914773346686 -0.3668025758501102
Ni 7.059381118093624 2.4769070661117474 6.98689532096903 -0.08513539631776305 0.5822993302029713 -0.13609286120223657
Ni 8.292700535716142 9.188042422490142 11.863741886126016 0.8837922862119941 -0.46870902097862505 -0.98354954620799
Ni 2.103128741085471 3.0476035605012664 5.203556644823269 -0.12868474166362354 -1.2155370991270227 1.9965541644523037
Ni 6.104426446565656 7.974560196398655 0.7939155041940672 -2.032456020555235 2.352119733936014 0.6257563729453416
Ni 4.326265130194714 5.74674973804184 13.00481008229789 0.7239992531793402 0.09660817284405297 0.7177854110591444
Ni 0.16045122830846842 3.4666136265138845 7.3287694430111445 0.3694590396363508 -1.0410548395133103 -0.06870656133777844
Ni 5.6605646855969525 2.0255373513910397 4.857562349141268 0.4656360384802561 0.2611315214728406 -0.5824209433825002
Ni 7.6722362449484445 0.38065969587324244 0.5842080508660126 -0.23423341153041596 2.549575571626764 0.3254679787673814
Ni 2.6659860484692204 6.1452877487870445 3.77993360189672 0.6519119482947869 -0.3092047228309836 1.5006935227595508
Ni 3.8300961179023014 6.637859199906622 1.7837701994680273 1.5342531038825513 1.457289187631987 -0.8479228260088946
Ni 5.509816751439052 3.6588853294007024 1.8825605174034135 -0.8837812304684005 1.714070659666248 -1.703738938722937
Ni 5.681653202753319 8.827725048859921 5.028316771826568 -0.23840631196118292 0.5785702021778423 0.6170886699680146
Ni 1.4703628153098933 3.7714218273673326 0.9510875232902629 1.4191422442486203 -0.5147199404911006 0.8010464731723301
Ni 7.509646721968449 2.991634341538711 0.4473093470849729 -1.7597437362233306 -0.6910531372706228 -0.01602979976935304
Ni 3.9932929018475325 4.166316272321123 4.648710581718772 0.9333356443577603 -0.22149642357972177 -1.5649438480981885
Ni 3.463531317069128 1.124168859583262 4.5335177770754225 1.916212847089074 -0.4590889813903577 1.6391165747568608
Ni 8.69409083281321 0.33443149484849055 8.86144367400082 0.37557132318167574 -0.7046756131500639 1.2706607795740439
Ni 8.570034778354533 8.997601703422745 2.6931747780490904 0.06636660035069217 -0.9619432807921239 0.18757174580781888
Ni 2.214689941138238 1.8838155233982339 7.268197001913628 0.0684579356620821 0.6327032365768199 -0.22643602697318424
Ni 8.853248411247252 6.621085915972914 11.535670989842185 -0.3286088383892083 -0.4451204350254076 -1.5249919902955993
Ni 1.0908983194273194 5.102068616054442 8.730077485650025 0.6631211867470451 1.4117912032001878 -0.42267933241307204
Ni 1.6454103890009355 6.9260689343769615 5.967455975579633 0.028121440826564474 0.5510581128005027 -0.045001247301038626
P 1.0062222184718048 4.798051694640543 5.773161909660106 -0.6074668306075345 0.5198330933479498 -0.4821409781138148
Ni 1.255502844701051 4.080122018952519 3.459094631653421 -0.14944588547037488 0.18254215380371142 -1.2158345757627835
P 7.824713952764894 9.07734610926665 5.555758803736246 0.11948559166285873 -0.6672979438325539 0.2986333750730405
Ni 8.152478458288993 4.495792149656341 2.4102307322212413 0.7980547375338579 -0.20689050074108886 -1.3140879975197433
P 1.8058560967551747 3.864360357819539 12.234877705861148 0.547912110972353 1.3617513650339774 -0.31374760500665966
P 7.936643189766288 6.7206215087292716 2.4505362986502024 -0.005151205183636289 0.5412349560624937 -0.35683338045254026
P 5.714804130900958 9.128770071913651 12.276301184521563 0.18249176018175023 -0.2103064684011733 -0.11238857560676128
Ni 6.8503637340442465 6.615896594997264 5.56276162677626 1.2494604913473448 0.350126657856326 0.20345370714539798
Ni 1.0497701904181755 6.118200229368046 2.2148997221989557 -1.7355537692406884 -0.2686337433871567 -1.5885810279011545
Ni 6.769156381329548 8.39332183747095 10.378456092641644 -0.9311774603641769 0.11505300981280185 -0.9260324258281277
Ni 8.614088801105268 1.5744252625343709 4.422285049999306 -0.8059593370929152 0.4204740972316372 -0.22712842505451852
Ni 4.180458092072141 -0.23532098476779825 2.3720395380621464 -1.311288323287419 0.06528262325789402 0.19439082561218132
Ni 7.73574102043415 6.742032058215687 8.915470577966992 -0.271177592854933 -0.5052649657257879 0.865297055621284
Ni 3.856033521856838 2.1666979230371877 2.465348865740095 -0.2678528993570742 0.655069262976846 0.45927641481081544
Ni 8.971434276375316 7.009190079224524 4.3498351364772025 -0.868636147296846 -0.3904855212893468 0.750471845548572
Ni 5.587095309727151 3.0697685857323687 9.366570705622829 -1.3313311008709072 0.22681783579263518 -0.23786920851079035
Ni 2.29913601900086 0.3144158053973739 10.270576182167524 -0.25653696012362276 0.8682011166419564 -1.5094103338072584
Ni 8.785400799767737 7.790495717466235 7.185593869071259 0.7679106098503098 1.6110851225409417 -1.7162684386485152
Ni 4.338713979982046 7.6183648365930665 11.378383039107172 -0.2170777256867358 0.3123008452578041 -0.6558760751488576
Ni 4.3851418410514285 3.7255092180260294 11.546888756036356 0.6282624271966469 0.1783556265261896 -1.298113733578674
Ni 1.9198463406688844 8.832399118107494 7.697737525118856 -0.6640372708034112 0.14131965681881467 -0.03653743280440159
Ni 2.5240433983072377 3.558494050738786 10.05500498015546 2.6858826057223357 1.0882371536260675 0.38733591991677163
Ni 2.6015795824593755 7.397763489585632 9.251297852943154 0.19284944926699046 -1.5093928503057619 2.0270248222373346
Ni 6.271220791683723 8.338916775540063 7.30823298127772 0.21878596662709418 -0.7929007041367442 0.20622972722863836
Ni 6.513389103880739 1.8454016668852193 11.358667299769186 -1.2662616220650837 -0.1441751239897388 1.6439065399463366
Ni 3.826029309619966 7.225246169916406 7.349790793424385 0.8500067051211166 0.7784536754734787 -0.7626866424472091
Ni 3.021380927911544 5.721465599671119 11.111787194537364 -1.497302494800131 -0.4115608539024073 -0.449182006689291
Ni 6.0424766271879005 5.236172079210655 10.453343330856033 -1.9547079178404787 1.9385981567628097 -0.9377180896961722
Ni 1.3379891258122307 5.978005754712046 13.080384629513842 2.582663098209352 0.5859724081791844 -0.47045377158387364
Ni 1.9951743031292555 7.975103050897881 1.0786785726405086 -1.172028891431743 -0.21618709555166638 -0.032179155835705874
Ni 1.6684955066036071 8.227272767173854 11.928568834349669 -0.5856075686405978 -1.0517601417459563 1.046426902458501
Ni 8.847341418221777 4.802311722320908 13.636294319399873 -1.650159977055216 0.8454609947319632 -0.262691923981425
P 5.41127485844399 6.920769202316722 8.899095694030175 0.06269275104353074 0.1191912003508915 0.7585044860450615
Ni 1.068880508975668 2.2104667171527352 9.48698871484432 -3.0922328619580806 -1.9412402223713472 -1.1288091615111593
P 3.505910771703606 8.22480691961805 4.845711559395457 -1.1760007315952972 -0.6727998474873896 -0.18129491166017164
Ni 6.343889687190258 5.013196893884571 3.824696095773562 -1.2893683832858762 0.49391200260681395 -0.09631815240745992
P 0.6416337760527618 0.3532759067105995 13.599799775573953 -1.6812865232566916 -1.0252813787291375 -1.196110872081611
P 5.916460775977781 4.0851549242250025 12.995101267593093 -1.506038332011232 0.49878115777365706 0.825007869083934
P 3.5819932099086635 1.8939181376380638 8.86404201485813 0.7112234415709106 -0.09533110590384228 0.9770130306410529
Ni 4.663055741883908 6.453159857237818 5.178185097677247 -0.7814065874542155 -0.20810534698479644 0.05730166193494647
