# total energy = -340896.90205922915 ev
CRYSTAL
PRIMVEC
9.03070825426846 0.00000000000000 0.00000000000000

0.00000000000000 9.03070825426846 0.00000000000000

0.00000000000000 0.00000000000000 13.21735436810739

PRIMCOORD
 96 1
Ni 6.505396970615276 2.057123047140605 11.542384557729168 -0.32852142088172454 -0.1918562321157857 0.2633652958993658
Ni 4.634432939128234 0.28213376847978827 6.054988600695581 -0.11903076351362725 -0.0885541921913249 -0.12238219648436342
Ni 2.8166868701543595 1.688399237635658 4.760534133994834 0.050785972303615756 -1.1844511763554957 0.027705693445384545
Ni 3.597915361769691 4.233072150746214 4.916802409088015 -0.6015730908309188 0.3009561096689462 0.30737049783572223
Ni 5.116185090532861 4.328192598591318 3.0020448620042712 0.43341728765586646 -0.5067574911109144 -1.3796333875207207
Ni 7.228223873299221 6.026209540295621 2.6617632674891807 -0.1262591629412664 -0.5663556623895214 -0.39189937091773797
Ni 4.66664547472716 4.5590355576548856 10.936910803027978 0.433540443497292 1.5067340725266762 0.7096483837743068
Ni 5.7019890600397645 7.873495055286901 12.410288882096092 -0.40169913061697915 -0.0322082093014284 -0.03703339860421364
Ni 1.7966683963952665 6.4959418192914535 0.2885148667848629 0.5128492058309491 0.5621105139599222 -0.14114842134827305
Ni 2.7680926301605777 1.664133725116927 0.47569886780161014 -0.43027282848961373 -0.6942955554673204 -0.14138933371448553
Ni 0.6365249412454432 9.003823627823925 4.649111451985676 -0.25509919923583163 -0.16581687062923056 0.4535716511165544
Ni 8.828095079963118 2.3215783015501787 1.3067750616874632 -0.3789057868715474 0.17766991331307466 0.2672720871529397
Ni 6.846504874916547 0.6453154324571041 4.735473919168084 0.18356313886905806 -0.1554051883776033 0.1938292966817565
Ni 0.8448317683810264 7.499271544582138 2.527858637800312 0.34004510525060794 -0.584109901049149 -0.25694113754057685
Ni 7.588205957415954 3.84007379801449 3.855409746417657 0.45242442488598855 -0.11689571944849546 -0.1759238771562454
Ni 7.637775513878668 3.8602122769563474 12.78217253634622 0.13959547503885636 0.11936089315953637 -0.389046217739659
Ni 8.07474438408479 8.766306975514604 6.7524292799923264 -0.13427329149499456 0.21021622268021214 0.21155859564071952
Ni 6.9161226032406615 0.6020104781656744 0.4570360065544163 0.20270783011830895 0.3756499989384111 -0.5087472678474334
Ni 1.8085347467672848 6.566760631785644 9.201538337492735 -0.011600046132773571 -0.3223862545182642 -0.7066808165055507
Ni 0.18191006751807257 4.965923139360859 1.375688394784016 -0.14396249375830047 -0.8154618772667117 0.1112428920380923
Ni 6.549837084908047 1.9407804353881626 6.990843584681389 -0.47494266059316265 -0.1225557459477502 0.884737937954715
Ni 3.5250556092571776 4.597136114899592 0.7133527868732263 -0.7816747535139377 -1.1489570972139438 -0.4948178022505349
Ni 5.9741294469962085 5.625191918819337 4.812993517032165 -0.07621881055442357 0.21119838408782338 0.703102098015357
Ni 5.432467578416567 2.8481047034452662 9.344973073382205 -1.347796188405466 1.4721097975845872 -0.6007878759254621
P 0.1793336065126412 5.591525439225058 12.306097088019106 0.3372284617374192 -0.3723628435467071 0.13472452009980024
P 3.9530298942498043 6.193277639140626 12.469979153065596 -0.36225300880621486 -0.20796496475219023 -0.49886086197165697
P 2.45421231061702 8.600837311993685 1.296048386670809 -0.16878443789798675 -0.5968605158465979 0.6746289302763285
P 6.33221508242335 7.733365558542149 5.937565916260876 -0.44549041677031664 -0.1036077440903377 -0.9043778236728296
P 4.68696456782993 1.1755814505539062 12.543202843112349 0.581864813768714 -0.23805124261460936 0.8600802873070348
P 3.8743363043397845 6.057022316147468 8.139114367963561 0.06683582667762682 0.6317827816450797 1.6499067233938296
P 4.731747849028438 0.9760479562846972 3.7690210901819166 0.522600628790758 -0.38305220493975317 0.5141440133829726
P 0.2555031135238946 5.558996828844532 3.5741709211051953 -0.1200751456177416 -0.10235638818173985 0.38728398363291366
Ni 1.4145430161505363 1.0112767483708789 2.6324206909071703 0.3824649649777155 0.26681571634181145 -0.6493920100864107
Ni 1.8346244623112424 6.652678788132205 4.7787472659813535 0.5142093194032692 -0.835307194127413 -0.7160594295069733
Ni 5.992308262292155 5.703930662269586 9.144505803901074 -0.5409135681673329 0.2535951038864794 0.5850743218449472
Ni 8.794311201164245 2.232643888716362 10.155342756790128 -0.013597536178776582 -0.41768984961828065 -0.1332260811774028
Ni 2.155331997137331 5.275838978072366 6.969986261379096 0.4898121215058274 -0.6188861281880697 -0.21421248832379883
Ni 0.7567597881655721 -0.19124240121247402 8.79842288253744 0.16207360153671443 0.08835441747569299 1.1971567968476222
Ni 1.683134334845029 1.1789499046549434 11.60836561992329 -0.9429651970277244 -0.5824602812608678 -1.206452106106619
Ni 3.9549624657715787 6.80266078735479 1.5541098997840437 0.7426983722507403 1.3459097700160305 0.26559547078146517
Ni 5.822241968375985 7.926442096558699 8.050399401335255 -1.0360201053028801 0.6224509627211925 -0.08666751669157333
Ni 5.478343575288601 2.6644923474605835 5.032057723591757 -0.9861895549339983 0.545280586886777 -0.6480961740931225
Ni 0.851166810075068 7.279996922525081 6.7663997853389874 -0.5961511484843991 0.3138368222863563 1.0873328966442435
Ni 5.0834758659914225 4.596142737014568 7.09820786649482 0.3150146446445413 -0.8553201469142303 -0.31959609336763667
Ni 8.094106222134718 7.256435805233913 9.128856489928722 0.42454518197721725 -0.6191812908309853 -0.1072849358316088
Ni 4.539177030662445 0.6867121981384824 10.44011078280684 -0.6440867958234132 -0.9371789293632504 0.007669600730115822
Ni 8.076135113123822 7.11484333378576 4.698676493094368 0.34324330047293145 0.35830148035763454 0.19105404792946454
Ni 7.2091690793228445 6.0468266467639 7.0041665882611746 0.09379872841971587 0.229524693200837 0.33919535565580294
Ni 2.340949170308153 5.252521689898429 2.737935483712848 -1.2326683594906707 -0.5536294730721046 -0.2702689649977345
Ni 2.2999316943646932 5.291579502195978 11.147913296515195 -0.018817389816819203 -0.2708981139413012 0.9572990971518932
Ni 1.0543351643326617 3.170175875186252 3.8042851020294766 -0.13189373551922448 1.0527744419430838 -0.36977579954582124
Ni 3.7396071710063454 2.39809549082119 2.4981990833658982 0.1487077217527697 1.0365965466316405 0.6976732136903017
Ni 0.9526945452785794 3.322785810450129 7.987933993783316 -0.44539117218829094 0.14774458650855202 0.6935514782124442
Ni 3.61621157627023 2.6762593600440994 6.892229155893412 0.5483592258121008 -0.3710292123369481 0.39538861501791905
Ni 4.0867656496982185 6.742200196988989 6.128107534529005 0.19697529850990594 0.8403545267433333 -1.1167607149870573
Ni 0.8112149576809979 7.469280563162448 11.294797762878114 -0.07586991185543708 -0.1357442196135662 0.21641592373302082
P 0.136495539827173 5.491302641334146 8.036693495734333 0.28773189766918833 0.39956974297880216 0.6007534231431008
P 8.387757755655961 1.412176970642569 8.076305793505886 0.7321851314242424 1.1593878056289646 0.01761102821354386
P 1.8312831003343422 3.147879057021478 10.401132440740096 -0.651070426230098 0.5478095239562178 -1.1896664020078478
P 4.009652433696192 6.037398587564214 3.7099394889346913 0.6266953398198433 1.6099826335053822 1.120874480045115
P 6.700171281744415 4.036175623226342 10.62030230658382 1.6652042729828482 0.6301714712939018 -0.3082091916869337
P 6.344099494211458 7.911640766071836 10.208119117679864 -0.9012457058017511 -0.7076354671093361 0.4957541980218752
P 2.4342634765441225 8.582568189617282 5.82944757032563 0.45827779834297205 0.028536159766479885 0.22122722907873513
P 6.891224941158733 3.9417595706088004 1.6313919900265244 0.24184053445371254 0.36983236381536955 0.0636268328220259
Ni 5.250616210500792 2.9396580216123285 0.4930351180368942 0.0931369264660009 -0.3926210795751109 -0.11446319874760287
Ni 1.2951209329545184 1.1656747638277998 6.948072345235459 1.0124688003455016 -0.5277646894902008 -1.0189150701914775
Ni 6.7021309453903255 0.9979474232954613 9.389343651223026 0.8470321958738251 -1.832884679183379 -0.8086625949566912
Ni 2.5751334913486206 1.6066984219464282 8.943680918381332 0.23672712448654717 -0.5542128563794004 1.0953138579671913
Ni 6.3657370706888985 1.9778785840397992 2.613665716437911 0.8256516733155199 -0.016544020401610217 -0.19422318968606553
Ni 4.1285597665336065 7.097441159381743 10.31433379035908 0.6223044098409992 -0.3563883224953217 -0.2374632313216233
Ni 7.9874354986991944 6.965421238462007 0.4273285893673609 0.5306602658704409 0.6250603753195815 -0.31398851737287214
Ni 7.5480283373207415 3.9459498191419944 8.439743026520894 -0.1262434792119826 -0.6236740364950163 -0.468171146197284
Ni 3.239296914567855 8.414569927843573 12.408320187742133 0.045887763671050005 -0.2762750619824984 0.29732854021868793
Ni 9.098618970179386 4.641115663082034 10.219473426905692 0.023311163922114693 0.8515377970536625 0.26458528434939593
Ni 8.628001681795077 2.2086041438987727 5.688366236952864 -0.18399328442794116 0.964344948255081 -0.005602433788441965
Ni 3.4308562936327323 2.8784840053109204 11.703742539876892 0.8514804614531658 -0.3418813871283983 0.7430254165728557
Ni 1.0206054697820621 3.4221868139088834 12.543202843112349 0.26830438507219595 0.18979420738043443 0.22015482195016275
Ni 3.2036436792035268 8.29520202889583 8.020026420965234 0.2349823738812985 0.2852075885854378 -0.009259828035371148
Ni 5.564604898540898 7.860517927825265 3.8137221919372077 -0.4652210624300246 -0.39949106722206684 -0.8847399948372441
Ni 3.144311927343436 8.369416387615193 3.5627506877106336 -0.033883797231638424 -0.0540553870835069 -0.04919677343962495
Ni 3.3123101891171447 4.0555916455245455 8.926630941591098 -0.3553601383411235 0.5353684699793876 0.40722083176615675
Ni 7.206857218063153 6.046591848354712 11.462235217682185 0.0276918094883136 0.23053102297816427 -0.6548224370733625
Ni 0.5050703426493665 -0.10797204846490567 0.32597604989993567 -0.1988617168993414 0.13659319787742283 -0.04974956061930142
Ni 4.7147430257784295 0.35079243560945306 1.5449365065512461 -0.3031842276685166 -1.1025201459076432 -0.2686036614801696
Ni 5.781224492432526 5.459595825385778 0.2800982468862929 0.47608243062456074 0.5545530133276385 0.3929854048930651
Ni 7.957670284980646 8.906057182521439 11.243394972682125 0.15428418739928268 -0.9255392882417931 -0.08083188384640273
Ni -0.05632452608088061 4.909688920360435 5.8389379414108316 0.6721331604376682 -0.8321583640857863 -0.808836144420078
Ni 7.85336560705309 8.665515243016815 2.543481762719331 -0.041064374140477665 0.4746768085262858 0.41879593819826577
P 8.479103367537972 1.5794076222323956 3.5741447320518627 -0.37063969020801335 -0.04486009373748403 -0.5485767411395455
P 1.931352376188477 3.2810549085710603 1.7010602903156957 -1.0821104719030397 0.21293773537643326 -0.745275131838981
P 4.652593693008089 1.1652232284255162 8.205174900388485 0.2874511332039759 -0.5948409143134078 -0.8435401235601666
P 8.545867392119655 1.549416640812706 12.308660906033275 0.5273808237882207 1.3914578909594746 1.8980166357960215
P 6.223367958348818 7.6174835129000344 1.4906402774974243 -0.6866259547372046 0.24941757547002208 -0.3026954609575562
P 1.8070898334799765 3.2730717626586827 5.911726351329783 -1.0297751528344328 0.19859252239835473 0.03625821100108594
P 6.930165354251687 3.9943273221426803 6.034686665938097 0.3548024660654406 -0.377165407141673 0.2230642822874739
P 2.4818191851126516 8.541686174294508 10.28553305625981 -0.9207922604751109 0.5434689875993349 -1.0112215582019617
