# total energy = -340855.6803395403 ev
CRYSTAL
PRIMVEC
9.38100399049850 0.00000000000000 0.00000000000000

0.00000000000000 9.38100399049850 0.00000000000000

0.00000000000000 0.00000000000000 13.73004758650805

PRIMCOORD
 96 1
Ni 4.9769696013949085 8.531084835757976 6.166521218767797 -1.649529799670385 1.3274749603496105 -0.1880872519916567
Ni 6.338603537771199 2.887810679019565 9.449704621117403 1.3847118304848927 1.3079019233136895 -3.58006112026466
Ni 4.934539321306791 7.328627771487626 1.4186301010305844 0.16950100434903712 -1.0984840281650567 -0.6187056367461473
Ni 5.637495458411133 2.2690396698194375 2.1279653207039995 -0.3874999562984617 0.6811307359505883 -0.8697517489585278
Ni 7.113605783890958 8.04320697227297 5.479401154141181 1.3676044813806445 0.4759423055022707 1.0435387822774285
Ni 7.933533657103796 1.8287610195042525 2.195256198904324 -0.26935468071358126 1.1498019617127424 1.9458980328583326
Ni 0.07267276006779183 8.000851740215078 4.0719335095060964 0.2011667108834342 -0.07214309782315316 0.46940476149406896
Ni -0.02642441144200909 5.936636906885567 9.285837247122439 1.1819970583880481 -0.09085841484446933 0.11285754482337984
Ni 0.24260776730639813 0.4337888719015304 2.479001543978224 3.914035850951472 -1.644449556934 0.8032470803680747
Ni 8.646902708401772 1.36913873939873 4.680628382548222 0.03540383342059064 0.2758698561242798 0.23794582738499664
Ni 8.95814565174989 3.897581925688785 1.8220188920889684 -1.9349484758253643 -0.13887273794021893 -0.23418456057035153
Ni 2.6158835225052517 1.9718494701308373 2.235677067983183 1.78792328398134 -1.7639341201555947 -0.8856085134851264
Ni 7.195051658691982 5.455729129207651 9.37401117783308 -2.5720148744668867 0.11108065542861513 0.3956058732350477
Ni 4.749855499928336 4.919201380129682 8.51172338206046 1.155709585446429 1.0577125026746494 0.5871353181390341
Ni 6.98101467649201 1.5345915030321846 0.3159212499322307 0.4318774539725724 0.8268708904346018 -3.437513247465699
Ni 1.0833839833155723 0.6883414713185186 10.009822780396032 -0.27813628356095327 1.062230445149661 1.1493484191150916
Ni 6.792906788734568 2.1307730551347697 6.910168397859805 -0.3812241505920789 0.5337378763545002 1.0618463223373649
Ni 1.8490802736875072 4.235448157759007 12.385299319081216 2.6356838733807577 3.0268597358689093 0.342816497348158
Ni 8.711744206515649 3.7109374745207173 5.519451473570806 1.2033446708258888 -1.3581541346010222 0.3039781843247216
Ni 3.7369416169934695 5.364714630553017 10.803886288092412 -1.1080732145153884 0.22750637721922753 -0.8682404545203242
Ni 7.092714288477243 8.78733633495917 1.1997684685875623 -0.4975308303063238 -0.5372379190879586 0.07811448491523967
Ni 9.131018789371781 5.6478239435707644 3.4650379129886018 0.49466867826718036 -0.07281004198319073 -0.057810483250564954
Ni 5.037730362865333 7.35351557451079 9.313118144209383 -0.8352292897016261 -0.3558136809387743 -0.5260808740298746
Ni 5.775780835103357 6.670522213446137 7.118164951727091 0.8563925540428025 -0.39378218976274765 -0.37906596659849556
P 0.34441042030578845 2.637234687104092 9.401059426026327 -0.047192341415086464 -1.5317601622573687 0.36336269693062584
P 7.120266296573374 8.995022377601401 7.651398092278209 1.0292205658825435 -0.09600447782178305 -2.3567346070002055
P 0.5496620924676168 9.101468627470926 11.93016209688198 1.642845445671674 0.4394601514158367 2.2696495431552397
P 1.2648688824057128 1.369889219700974 5.936131270781931 0.978534609491902 -0.07246140039452037 -0.774071487245383
P 7.629495324657221 5.603217270606141 1.8163067988885142 0.006079887645492755 1.4430643022818568 -0.555877645676333
P 6.578363232330581 4.749058114607202 7.148425255613945 0.8434285376829667 -1.819828617330369 0.6258818427796123
P 8.947742118560033 8.321822784481032 10.19283021639935 -0.8149641116946867 -0.027325941508462615 -1.719083025279175
P 5.483665758458682 6.674302757968691 4.557098386698492 -1.98233544974976 -0.02539864257876271 1.7711869450632658
Ni 7.376630367819903 5.401131687219404 5.063600356984059 -2.8009140182685828 2.434504049871201 0.6243816040850021
Ni 6.704059301952663 3.959093167461454 0.501870568720345 0.14085351581567354 -0.6687704146130224 0.17436861685398358
Ni 8.114633935039036 0.8722691837924632 9.347443237033266 -0.7796014159246766 -0.07960418208688871 -0.04153977111499943
Ni 5.661004253878925 0.14940186616921214 8.946910961625298 -0.9812859469847938 2.006546499778325 0.556225515934055
Ni 2.2625480152050272 5.5988269608380135 8.792626282989612 0.4091535300124953 -1.1470637368459728 0.04404042604966609
Ni 4.17454668123191 2.1146283476327468 9.592744290524342 -1.5623174662189352 -0.32093460967340215 0.21314882294597484
Ni 1.0920238877951556 2.9064601145303266 3.478452748391212 -1.878376750077907 -1.313004020426945 1.2198660655196798
Ni 8.210883033801823 7.078427019723274 7.850154357424117 -0.3160119755608041 1.2912000371779762 -1.6603842258863857
Ni 1.8407311803250432 8.71438026857728 8.410765957501471 -0.4041311370972395 1.8103412466652244 0.4181796447705056
Ni 9.044582220560835 1.7792668435712646 7.1930891527016145 -0.5790026617295706 -0.7476773135225705 0.5235233977153435
Ni 8.417330783945351 5.022795804850678 12.971461959148845 2.1784712830775064 -1.142924517866619 1.0332595118386076
Ni 4.699207460530649 2.925381599150652 13.093521951706556 -0.39238325253269196 -1.3784527369490582 0.22142057603646384
Ni 6.1319212625332185 1.0580083680959491 5.037114969017493 1.2459905305208734 -0.5623385708103282 0.1685262991405936
Ni 1.929869478224067 8.250574060786748 0.4039338273778887 0.3655049400846092 0.11612490272074195 0.22184789338186955
Ni 9.437852660944214 7.31936872075869 1.7252350761108344 -0.6342019326095335 -0.5244127422988323 -0.7329790880804473
Ni 0.07998994301467023 6.108797088220326 5.782876626361073 0.829432737624507 0.8847685340823344 0.583046492781641
Ni 5.13853862946425 0.5578010513454522 13.288530505843132 -0.21333265682200678 1.1024486692397595 -0.03940061328480956
Ni 2.141092159290624 4.968667413051334 6.455552759470628 1.5969227149976304 1.7780245368103893 -1.6098535641266856
Ni 2.820698977991401 6.740945408807953 12.483373023078833 0.4799388282561734 -0.2865137089913711 2.6634435599925292
Ni 4.381210194462335 4.618680924099873 5.224721911173188 2.9840904632221834 3.3246011952553003 1.6958032288156275
Ni 4.837821172355104 8.52514666036647 3.4453631337648987 -0.9162992577007639 -0.42309919355931 1.2667485890038312
Ni 3.1268667982955933 0.8618459504946727 7.163007087886544 0.5282357155893483 0.3457051317498627 0.13737069947339567
Ni 9.220307183331254 9.048972530328962 6.294718263997106 0.6479298237185873 -1.8001558214917899 1.0088533150801013
Ni 2.0507906169231216 1.271932778250584 13.334415809622705 0.027855074539055252 0.40178320569035314 1.4177990999571648
P 2.0731924539451034 8.635148310667876 2.9932878711988176 0.618523088421696 -1.1710662704081574 -0.27114056896941047
P 1.2117161149992859 6.016713155134996 0.12371855402566896 -1.8270223068653308 -0.3605213708270888 -1.1390835468539737
P 1.5079869763176368 4.655069837754927 4.37514818982096 0.8443471928424943 1.8992055138978001 1.1302572068115952
P 0.6772718868604205 2.0124973595011246 1.2576727144075712 0.19332458913119607 1.515933479637757 -2.068446065496599
P 4.716262125399142 1.2731992137606205 3.6239361692823326 -1.5183667716695979 0.6288792348450395 -0.60989318066084
P 3.516816363341545 9.040482721909829 9.614026035695225 2.484986889112101 1.2556995302785212 -1.8524296911948421
P 4.678728729283167 8.001330171407758 13.048528781386276 -0.8121531246084529 -1.797536124480756 0.2136082790808966
P 7.021174753665839 3.657203084880051 3.948143659851715 0.7870961816398251 -2.186602911045705 -0.48966094063994386
Ni 3.466093275913632 7.0018874098981705 7.469200236900938 0.9801346069891702 0.7036358590316397 -0.015311690656405889
Ni 2.3754108716587377 7.440899624703318 10.491719315872155 -0.1270317794412328 2.058672788159919 -2.003618270387936
Ni 6.95927889073827 7.455430799555517 3.2846937439578716 1.019474028018741 -2.4559056554754286 -2.385800156907594
Ni 2.459802381646069 6.15326304612828 1.7124525203628647 1.9382842250668169 2.282906922385778 0.6955821354892279
Ni 8.422162000891046 6.69022232138004 11.458452393408441 -0.5285650739043091 0.2900698017737456 -0.48775369631490195
Ni 9.003962474201883 4.062593782144671 10.749665962456042 -1.3709006356334132 1.900417274817714 -0.8121682941171046
Ni 3.362029801003732 2.829132500387867 5.723617763595514 -1.5634577504709655 -1.725283754773248 1.0309033529016054
Ni 3.4653897006302783 3.8625626385853273 3.4271433482271716 -0.5973899059875066 -0.9046285062310548 -2.347200185147209
Ni 3.828049925685884 9.378592860078278 1.444648315009004 -0.5801779129845944 0.5471618630698899 0.38171214597209097
Ni 4.614365662361971 5.182695014247528 13.056396629254927 -0.49822657082176774 1.0887739999661443 1.2838001451694794
Ni 1.0624831068980785 3.517069650443552 7.610592602044451 2.628821856153601 -0.6151613710383148 -0.050961578649531596
Ni 6.032454479474562 8.734080376511184 11.308451081097813 0.0699021243077764 -1.485117779808481 0.29719355730272046
Ni 9.212933714361707 9.311237252951885 0.2459877429676293 -0.37298145096731244 0.8887879396543725 -1.366215314342602
Ni 8.380801155233627 3.7569043930331585 8.176380640006535 -2.67553391549816 1.4134459651947915 0.060371301999205707
Ni 2.9805512823693596 0.650613888424338 4.554037365165715 -1.123770056425355 -0.5682816757676405 0.5179983541320562
Ni 0.5093378477276721 2.71572554571503 12.215526603207971 -1.946062840570971 -4.356249139632414 0.8699978035310629
Ni 1.6635052569501372 4.163383286736032 1.385608967731851 1.5576172325297883 -1.4664364013488937 -1.2909786651957895
Ni 6.0493309052712725 1.6961792931090827 11.112976291073467 0.30555221368006086 -1.0333438440222977 2.9223276801920894
Ni 5.656107369906783 5.136315331568852 2.8575109749168437 0.7518838954047502 0.9631265024669478 1.1070108346891452
Ni 6.622116233951402 6.199520775757841 13.677585123128656 0.051870720727362284 2.508928487529363 -0.00742765992263882
Ni 2.9539373746510345 0.1442638903999746 11.553189274362204 0.19246995444038464 -0.201206305872118 1.0440797423825632
Ni 5.547859967311872 4.136159613772134 11.165082138458263 1.5397622066262384 -0.1759426462093228 0.24154974268617108
Ni 2.3824841485073867 7.665096233994917 5.491016713019161 -0.13411619709184 1.1702954536804038 -1.0988630087710303
Ni 3.1746161075258645 6.2019316937288 3.8204681984324647 0.4446437524993052 0.6687912405486289 1.0616905134857908
P 7.663098080190193 3.0194261620255958 12.36095561427718 -0.7750037692516653 -0.5575023257639495 -0.17401868971373255
P 3.07807619764596 2.3834034868776355 11.670155381868435 0.028070018763338755 0.6828155798521789 0.21256595385931135
P 4.708691655350257 4.058128424346319 1.375818952189079 -2.870027842347109 0.008015156994992648 -1.5364711945797926
P 1.318096697842364 7.264217799547539 7.268714114658358 -2.6918444797327257 -4.085298318076306 -1.9972622462629213
P 3.42032335848053 3.516685029288652 7.968136427639508 -1.8349150793498463 -1.6516221634230392 -1.3298666005102386
P 7.8281474606611905 9.313723218953069 3.238643334511806 -1.9397700655837236 0.03237481678627972 1.2805808669012333
P 1.3888763713477457 5.735798997001312 10.822503828190328 -0.7526557405737683 -2.806059309914948 1.3253656273160916
P 5.62438081512942 6.40433623124399 11.032697413142433 1.5645913498547763 -0.8525932349013703 1.0393388852634682
