# total energy = -381173.1391488698 ev
CRYSTAL
PRIMVEC
9.26183563838571 0.00000000000000 0.00000000000000

0.00000000000000 9.26183563838571 0.00000000000000

0.00000000000000 0.00000000000000 13.55563265746873

PRIMCOORD
 96 1
Ni 3.5774025692136147 8.510358152075147 13.394199146315046 -0.3971796454800708 1.4854923895390804 0.047314983035879804
Ni 1.003316139509368 2.8961389812423506 3.051887863020076 0.7370830829464919 -0.6812652046459234 -0.749769934385541
Ni 7.80328182796168 2.3197378972545915 3.6270534181232392 -0.5840685062882522 0.5924065938403024 0.3140558802756978
Ni 2.3026868577003046 5.566242861820736 5.644036724738863 -1.0242663072010616 1.0136288820918737 1.2009743708214993
Ni 0.04004539908792422 0.06263872113503256 6.70929231678666 0.4497725890854383 -1.4680623669880912 -2.120376178706987
Ni 1.9387430232159553 1.2562476110943817 7.920068019246753 0.06312752458810418 0.39553028280210595 -0.08905478597682727
Ni 1.8310278738317336 7.0660489667549164 9.57567209368796 -0.1787556901780857 0.14154514256605946 -0.3562595102269413
Ni 0.07671578524071428 8.625603173896975 11.114060227666839 -0.3252962290762075 0.6116068209178369 -0.2691086261410462
Ni 8.312127082232456 4.1806259294366885 8.86325539510029 0.18459389412641758 -0.21612744595832456 0.8282801120773026
Ni 8.75057312322125 6.712311675230276 10.251732382353628 0.4529227046786457 -1.7099358115622678 -1.2376930663987715
Ni 0.9708348816512026 4.639725864073531 10.150958978839007 0.7852182478908218 -0.38678081874425 -0.7464485833217919
Ni 6.528695782148402 7.4713932068925315 9.975996418867167 0.6968257780883419 -2.2212058458315553 0.39439745474924337
Ni 6.525917231433418 4.133761040710621 4.996349143607469 2.3083968391267664 -1.1241765478351542 0.009732653906731625
Ni 4.281635509762081 0.7457537500660476 8.165668747862066 0.9717471542564232 -0.2663457186839284 0.3092304338625965
Ni 8.40657002103477 8.97459840553471 -0.054704106476609296 0.43307970181078964 0.485344572652777 1.2583091999872265
Ni 8.459066105876538 1.974021355460538 1.1323724107518118 0.10373347103492457 -0.30631197466422083 0.15755051685538027
Ni 0.7981488808985051 6.426074642408318 3.5660670084800508 0.22704769241525416 -0.055681866943336364 -0.7534149873372961
Ni 6.590398131692485 2.3965555626881883 12.274272790399221 0.48192680522047965 0.8807815244101282 -0.6208419663628598
Ni 3.111448876146478 1.7368535282652018 13.111604793480433 1.8517285513627595 0.8612663371953362 0.8063905110930628
Ni 5.213644776089238 5.680941435335284 3.8374776946868523 -0.9192256873189396 0.2959314027608452 -1.3060142193726734
Ni 1.8789671355009279 5.2585554174791 1.5876898116819889 -0.5751871446382223 1.2488799362535263 -1.6402799989373429
Ni 6.387239765248555 0.9926742902709785 2.277238111701764 0.05567723895764604 -0.5615543843461361 -0.15800688766650853
Ni 7.79614095262417 2.089016307718018 10.066006643095509 0.40935690427255306 -0.9639543976848819 -0.21050907133028263
Ni 6.494667797725562 4.492157035600719 7.494367190387592 -0.20497785709940824 0.7963439254903382 -0.5413812518323708
P 9.403263948006758 5.1523406854809695 13.223547044685718 -0.7759872162108571 -0.1440645665538035 0.08246993367045796
Ni 8.903847242495495 8.719342213184827 2.684977462555695 -0.4651835243238698 0.10582532056694678 -0.39645999370522694
P 4.119951643657149 3.07881016708113 11.539408180585195 0.10677688584693867 0.021393892294743797 0.2188538437505521
Ni 5.2619545111870965 7.49568700197721 12.13084122394102 0.5071169313328622 0.8506553944487092 -1.5084248299655376
P 0.7974783239926222 5.939643030571747 8.085527935773348 0.45085425218539127 -1.3747701458911485 -0.14795284586461616
P 7.60994100737736 1.4165144163346712 5.842518790329474 1.4488850227286918 1.0103275856327827 0.44135813976949795
P 0.6758157762027516 2.334334550343975 9.366169369778149 -0.01699190657230622 0.3566703725121148 1.1003773885330275
Ni 5.503475401169242 1.6858578608095247 5.565550076509132 0.245502556686332 0.5714053089982869 -0.4861585839136402
Ni 7.919638270069502 6.925278325698099 12.355281436494586 -0.7936846334906202 -0.698773645843332 0.1599195313081891
Ni 6.121341723660282 5.876495834655873 0.18932766716830968 0.5515209113695341 2.137053382252352 0.36667144958888465
Ni 5.091712708880014 3.985942142673461 13.396015392299075 -1.728206841957314 -1.9402827435540841 0.06519854818451996
Ni 5.354998912796201 7.263029688775865 7.57133582374337 -0.020271091544210248 -0.8245874937170637 1.5308430497597378
Ni 7.210542865769813 0.012249703918793757 11.579126636872324 -1.3574208559794234 0.3455120419024501 -1.425624252428538
Ni 1.1311943052486584 6.9808030308192 12.460215256613107 -0.18874853972473946 0.7583360787879971 0.641193019215386
Ni 2.796185250188652 8.006681002134242 7.3993287155487 -0.1218065264865515 -0.17223280145790337 -0.07393695649878235
Ni 8.768865248761562 4.31947010866445 2.3039149771163276 -0.503487562110391 1.7644874215559032 -0.6931634987454063
Ni 5.894834269374768 3.454673984132762 10.198254542925898 -0.21592587147047973 -1.5376006801985456 -1.590931787521518
Ni 1.2645740014036175 3.237261652520963 5.302190704090783 1.033108330972724 -0.36520180702189364 1.3735642985085055
Ni 8.194186866217093 4.091527069842861 11.427845664644293 0.20089083151422824 0.7880852850259717 0.8793195951526211
Ni 3.393184656810161 5.751377695960134 8.026384631437764 0.45624431285271105 1.1925468088794364 -1.8106338382049785
Ni 4.289795187028418 4.068381742387043 5.560682981840052 -0.958790336985439 -0.11690960340556641 0.6853599435405874
Ni 2.3505612865194827 0.47714662153066495 5.81857879736917 0.32261302581708956 -0.2300121743602168 -1.8713848921411063
Ni 8.753231270071916 6.707773375729135 5.556155796541771 0.8999051326134567 0.5280282275642325 -0.045153199497870625
Ni 3.5051139414454417 6.295834708561291 13.107374913108655 0.8325373446917598 -0.9717013886201523 0.952059960240141
Ni 9.11897190068529 2.283264788202565 7.376202837947886 -0.8570137325665691 0.3642890653996371 -0.749921886582373
Ni 6.452294899322053 4.534789265404293 1.9286679983234225 -0.29857681080349224 -0.6263053034702761 1.1241513510241736
Ni 1.224294277872063 3.3367430299531144 0.4263852785186183 -1.4048335409354322 -0.9614575994049569 -1.2543782403639363
Ni 4.714811566228121 0.6726093286776597 11.001615984965714 -0.17343402085485612 0.8117062668790214 -0.06231274199629268
Ni 4.523656538872923 3.4155797755729336 8.06003010204551 0.9494754873424165 -0.10817762284920725 -0.5556511314878237
Ni 2.075206910664547 4.877903231361978 12.195582381783725 0.05813135692509343 -2.146849799517483 -0.3349694904999134
Ni 6.927056598155689 9.027409392790844 7.076365725559652 -0.04363779129460872 -0.9361291479424974 0.8847009140691925
Ni 3.61636711207341 4.9943708154984 10.044507143846534 0.37896415091330865 0.04390801423685986 2.324979940296428
P 8.893260964271406 4.251784613247434 4.477561308694907 -1.0680007719745348 0.8837532054439424 -0.5518710956201012
Ni 7.401818296989327 9.034642886485518 4.520626992410019 -0.8051964907849616 -0.6157781786867073 -0.3725489914155842
P 6.164964969885534 0.07085767414995588 9.298635768466884 0.010257416061950075 2.637560778688496 -0.7949794410426438
Ni 5.739679997450049 5.212940876574775 11.453412035956434 0.41589933337676116 1.7417454998736972 0.9535509429633706
P 6.362029048427932 8.062576180684006 0.33572950434082816 0.9176097489820713 -0.0962315062309246 1.1421922676862846
P 1.1734560616235685 7.960825653501285 5.141570096726118 0.464637936233045 0.756260170095575 -0.2846591722811356
P 3.649098439495924 2.0459580334714795 6.570306431472433 -0.9764198771417443 1.3215205425383885 -0.10621098604113967
Ni 7.506495564258498 6.745469047095754 3.217673796163896 0.35671613814838565 -0.979484632109997 0.8937370561295318
Ni 5.104651493376124 8.428640975547461 5.573954266238388 0.17986177875807088 0.38510523081404 -0.25563296025211457
Ni 5.620294935062895 0.7034716176525612 13.275884752136733 -0.6958425882394661 -0.5735218411206574 1.1260287705525447
Ni 2.302557192000272 3.8109397568080383 7.625612959593444 -2.215231630525991 -0.2808541967127486 -1.1655013747258702
Ni 3.111476661653628 2.2625645853759324 4.082061473740482 -1.1158839688090587 0.42405358705277935 1.4597875285738084
Ni 5.041059729345851 3.149264951377413 3.403236527113402 0.9839023015617185 -0.17061017825281585 -0.9704405196298577
Ni 4.184219521694735 8.009329887149192 9.568446935645428 -0.605868632882479 -0.8549203403726502 0.2375020549793587
Ni 4.3601944003104025 0.45122644809414886 3.919895992178286 1.422710935436485 -0.7802315933095079 -1.3030697920323688
Ni 6.639365457126224 2.038807896298253 7.929977257279958 -0.22411843458360112 -0.0021620406483253084 0.04549335644610874
Ni 8.979553487643098 4.546551796764394 6.647980816709818 0.023463630339578944 0.848575629101545 -0.22697570152673813
Ni 2.015736663528168 0.3803585859249047 10.05011889010723 0.524328153004826 -0.7615257893698885 0.13669218534913233
Ni 1.3625827469568275 8.343515443476061 1.191343444943065 0.34137873646036687 0.060234005090393034 -1.026002316055562
Ni 8.704569585216827 6.749479421961047 1.157934151146095 0.22993504126537817 -0.8208185135929348 -0.3252221813051625
Ni 0.37287502266588046 0.9745581396092814 4.295468061404844 -0.4987143090914637 -0.11883407412178888 1.7252958389581061
Ni 5.637633091524396 7.804541437619139 2.5871335776782405 0.0659516243004606 1.3110366122879293 -0.5490539378862802
Ni 3.0162649904868353 2.792619443437755 9.619144371991029 0.7004394635815292 -1.2699817512291482 -0.5446488668400491
Ni 2.7197287963480026 4.697760526673835 3.5728985385046252 1.3046499920352952 -0.5492112893997508 0.3738939354792528
Ni 2.2247485101449973 0.24565166871175478 3.1477395270348865 -0.1453596312161432 -0.8318338908668318 -0.25635724001264887
Ni 3.097769144793039 2.9836170195857705 1.6976528085946327 1.0464335873267203 0.5326672689981407 0.5801997673614653
Ni 3.4450324131517664 7.382396227491587 1.9359478011966809 -0.031581374350706896 -0.9972802655305213 -0.6458572574602747
Ni 9.037115796621855 1.7282214973773176 12.021690490020724 -1.046117084527566 -0.1468758107503535 0.9459265936488934
Ni 8.948387410456693 0.1072168626226677 8.892630233259103 -0.4431270587444626 0.07212484299070804 1.2579003945845821
Ni 3.193471693252812 7.48447091892439 4.180719473977426 -0.43252845729300987 0.15745384337651594 0.8679566047313181
Ni 4.1143111857057315 0.888608304159103 1.5933154506962603 -0.25861389725730943 -0.7486890426165363 0.3366628190419363
Ni 1.8172740477925617 2.395434880566478 11.370369490737701 -1.2399594938354452 1.0968999715073884 1.1378689577205823
P 4.132973784674709 4.995046929505713 1.640963890723953 0.27435881879639207 0.6719716951591395 0.35112938808922756
Ni 1.6283603846807846 0.2055544033438175 12.448612028827334 -0.06939844519848047 -0.5062700099515346 0.6707956725731673
P 5.679116853699111 5.5169235866297655 9.249144223131585 -0.5034587657549845 0.4598847378187757 -0.6665991179933165
Ni 8.074023809629741 6.592537615743023 7.923430065611884 -1.237721862754178 0.6074943414113603 -0.4316499113427985
P 4.322276444886584 6.471170520512512 5.7151768848781765 -0.24088408407771414 -1.2582858029484587 1.253529776320712
P 2.855238714717783 7.688147948168449 11.278950541296862 1.1455118189778206 1.1084537377832586 1.8287871120752375
P 1.3141989171732356 1.3351121422213503 1.5531635404975952 -0.42774132031701173 -0.537500428720726 -1.3012054851301202
Ni 6.601771665952487 6.327093404104864 5.721805580700557 -0.6480848612392129 0.4815771351905448 0.10251579657773956
