# total energy = -340894.47909366305 ev
CRYSTAL
PRIMVEC
9.02618548262227 0.00000000000000 0.00000000000000

0.00000000000000 9.02618548262227 0.00000000000000

0.00000000000000 0.00000000000000 13.21073483463505

PRIMCOORD
 96 1
Ni 6.21464619297297 1.9293652451592902 11.452412678633598 0.17155454444395615 -0.43363223188014993 0.06638485518313729
Ni 4.610918649213488 0.48225646514426834 6.100122851464789 0.08078097600380926 -0.5154213374334995 -0.45936614631114436
Ni 2.704308418196973 1.5534787679828732 4.879437744902507 -0.031171026286165672 -0.2245879180208519 0.4857369229951893
Ni 3.697965096864801 4.533473975931054 4.892357827109555 -0.6893754924578838 -0.2879015904778332 0.02838215068711886
Ni 5.076778145420126 4.45945022702788 2.635845702301877 0.6431858812756988 -0.7133047495799715 -0.4087796916128444
Ni 7.190250500246291 6.077926558216674 2.4544094409828183 1.100089939199596 0.148102484068603 0.9685828975958287
Ni 5.333500919021405 4.210002559098587 12.024886772440482 -1.6954000798399382 0.6519186331630062 -1.0328429931264793
Ni 5.511659772313791 7.770453716865735 12.396425335966532 -0.7516949193223957 0.9607361478579002 0.16882094756287702
Ni 1.7007319614478638 6.544995563306744 0.1756179820186091 1.0774428912240412 0.06067674905476648 0.3210158565332988
Ni 2.5568024915324594 1.5473229093373464 0.4287609703723571 0.2608538423314217 -0.3834435268409009 -0.08590004239792948
Ni 0.5210221274768319 9.156343295007707 4.950300523574503 -0.383423729346559 0.031355888603462126 0.30535963805328054
Ni 8.818204326417202 2.3616473305721457 1.428291890691958 0.19545114855589565 0.3128639168501257 -0.406683471205448
Ni 6.835873423586429 0.9484896454387726 4.869027844937865 0.19778211068191745 -0.953363766653229 -0.010699388695375123
Ni 0.8943677333794721 7.462742020260672 2.384907811113967 -0.5334391141671587 -1.1796822942119425 0.6103858040265423
Ni 7.7464801676538295 4.03095913960787 3.773752562453219 0.45797466528025643 -0.7662923575205964 -0.556759534060654
Ni 7.532640802300202 3.810675077666404 12.523684625493535 1.8958823630618384 -0.043767374893937526 0.6346418483604296
Ni 7.814113377083349 8.783218830654649 7.102791273932756 -0.7043655381088127 0.8686014374041686 -0.6394287282261116
Ni 7.036967814735536 0.963075961525534 0.5845312726612759 -0.09221312910015088 -1.6731916620636993 -0.5101392630989537
Ni 1.7342822936845543 6.266429420318112 9.077532057210709 1.3763302912894169 1.354780847253415 -0.17935629987656207
Ni -0.010506480151602857 4.8037540804496075 1.434686040639892 0.5603842752974348 0.05100811561675086 -0.08058222972944187
Ni 6.335615133687559 1.9973233972739104 7.126874942610168 0.8256773843471329 0.22731740113687304 -0.5043198282036992
Ni 3.528516512770265 4.000748496079164 0.5905779144598658 0.8149972789254674 0.6351159597833708 -1.2017439019976723
Ni 6.022821694534943 5.507859748135247 4.739311627664067 -0.13935816221706968 0.8577547244976518 -0.025361104472607934
Ni 5.275995089944203 2.9608416418986097 9.28853358978112 0.13277870922733906 -0.3389449302078937 -0.14949139399632963
P 0.1146758840464639 5.544045726595535 12.332525356941398 1.0708780935223299 -2.0415489839954386 -1.6441878186321812
P 3.940209868607686 5.92598877437481 12.653122836247856 -0.07540762750703787 0.23318671543345645 -0.8016388553406903
P 2.413746474416692 8.619862921905758 1.345790748181923 -0.08303789035878602 -0.5554888948783465 -0.6020268905388858
P 6.340805190463479 7.8566898950172925 5.6336252039293555 0.13745323188487296 0.03596767634386063 -0.10506555958278678
P 4.436713265256499 0.9357627236056455 12.625856534493597 0.7250171529208933 0.13795562544258821 -0.5130515516497423
P 3.8812779021903188 6.231615422083807 8.166084072636323 0.9984164360174934 -0.09716044580309718 0.20311020776305022
P 4.738323260330218 1.019588910176037 3.817757022964469 0.26563763687331027 0.6721442161812617 0.4506940724584432
P 0.41983587795491306 5.584365698105167 3.5654588855919833 -0.7769151273417652 -0.006731662296878729 -1.2990943523243885
Ni 1.2684318236636134 0.8089285674249813 2.7959729444268597 1.1045243208218656 0.7715392077418326 -0.8028763272922173
Ni 2.1639919161736927 6.308590733709983 4.593108179595667 -0.6494560305551266 1.3450867598941028 0.8155261548457438
Ni 5.9176124740477585 5.518411359215335 9.076528345361172 -0.3041499340158955 0.914831929126618 0.288512998809587
Ni 8.517867023526795 2.5620828101653528 10.230314071391124 0.5307898494697697 -0.8414073934878799 0.7018011198157461
Ni 2.4300928967144175 5.243925052161863 6.878829943938228 -0.8878762264733805 0.4700652778962034 0.12844640040057234
Ni 0.2971348122050213 9.042974402650204 9.1218542394585 0.9967544749340382 0.3780133569642651 0.5338011254922677
Ni 1.3435477410361556 0.9159682983715689 11.335735689218051 -0.8092336369688127 1.105843039633289 0.1290053582278359
Ni 3.9600855295130377 7.057177444511686 1.3669409065077271 0.0044269254231020525 0.08208632507879411 -0.45589798525688574
Ni 5.681252775379482 8.013158824079179 8.182993728921558 -1.0732599634909452 -0.4695613416765913 -0.5426038113855622
Ni 5.184938928630312 2.887521935479821 4.997356737469994 0.8263386720802156 -0.7874389096912245 -0.19960682259548201
Ni 0.7675868316944218 7.618245147452952 7.02978928925051 0.542363413239982 -0.9463564820974605 -0.5180258649358821
Ni 5.250803005663169 4.481239439301049 7.091244977188829 -0.09874990177740413 0.25704655277018956 -0.6678730996097336
Ni 7.892893925848976 7.190801097573824 9.103821725672528 0.9086828788060868 -0.9125079089791317 -0.4234938578945674
Ni 4.455171815007382 0.18070784813329022 10.389371710510982 0.6960817008334657 0.8882415802325991 -0.3537917654127391
Ni 8.264501991004895 7.191035778401953 4.524161660147199 -0.6992086764982216 0.023253571211301886 0.5227109291163772
Ni 7.107561613073754 6.238691951670454 6.9135076467685055 0.330525852906263 -0.4940282164697041 -0.0697879673274153
Ni 2.387444169294896 5.231423784971167 2.32771789853617 -1.4601266570807823 0.15951278278807368 0.11694714151172117
Ni 2.350933248149506 5.1920696153311425 11.243776006715866 -0.23164688175016232 0.3809050766897633 1.1063068666435851
Ni 1.201132583104893 3.233179716756137 3.708623216936118 -0.6005659897226431 0.3312740439261972 0.04393912458511142
Ni 3.481029749817015 2.6943615615586003 2.864694711851467 0.408271127407542 -0.3901865019916893 -0.3670085212133292
Ni 1.252094427551585 3.286813312169216 8.244582101789627 -1.1753139899409177 0.2626212186444897 -0.971796776547436
Ni 3.5938119401041955 2.8040567963373197 7.1684351120346 -0.18906324275168082 -0.38548883940570383 -0.5894415976747075
Ni 4.289442019420114 6.928491115025946 5.9808697886512485 0.06819079804362449 -0.05406027217951335 -0.01481752462880674
Ni 0.6027713887182854 7.2892677573451605 11.006378296692406 0.789759330294285 -0.4438351405550808 0.1306853170334201
P 0.11186693505747865 5.692887528743243 7.823886028337766 -0.4531029390102519 -0.7610858736189925 0.2295869138973401
P 8.431035117119219 1.7817239257093176 8.118062959489796 0.7939903376564971 -0.7118176235114837 -1.0833132339618892
P 1.8060856009062043 3.2620364324302558 10.329870191776118 -0.4345051214034066 -0.8666453421190622 0.781325340594319
P 3.9564931076055307 6.089462023537764 3.372106253915411 1.5726597286852075 1.4843364215577664 1.5419815828750605
P 6.8118727958174325 4.099792831735124 10.379925807178807 0.3230411144934437 -0.5041421649752543 0.3079063157345342
P 6.386739449476801 7.967062093723307 10.30775513419928 -1.3967867593715557 -1.0322390409938933 0.8164808054495294
P 2.432457757367098 8.295172970004161 5.741689406952582 0.14634616349912863 0.8768809038041414 -0.16649949851855197
P 6.94240949337111 4.001587931349008 1.5215197522846085 -0.19571442951961132 -0.06454445954028884 0.018968827793018946
Ni 5.433240270976054 2.5151737230967273 0.5843940746386777 -1.2700455145875482 1.223141650947158 0.17054101557777726
Ni 1.4434224857762634 0.9732213942492467 7.112289529141976 -0.3108934233873162 0.8164455813362197 -0.6257288621415159
Ni 6.8901659305554075 0.7767168185271934 9.344903924697606 -0.5243286672254583 0.6787941173976115 0.04477139067841967
Ni 2.728913800407686 1.4899614992313015 9.077333481125368 -0.5230498005130347 0.02228503665044549 1.3399594659698664
Ni 6.5506008246247385 2.0954019310602647 2.6828360250417775 -0.6391379364585702 0.1988699444294575 0.48535202885194473
Ni 4.277987789770299 6.8165483600086105 10.356278103270572 -0.6534535817502939 -0.6772308866755499 0.14586151055322621
Ni 8.286841800605597 6.908128040092942 0.31728847962984846 -0.8565234231937121 1.5517296634007598 1.6577827837077965
Ni 7.600589928229125 3.819701263363657 8.250196389293318 0.35462583127826025 0.7773460442315967 -0.9673641946973791
Ni 2.9808888003322096 8.304713648286159 12.139357762071617 0.0865962971340057 -0.5176193735260828 1.3957112669191896
Ni 0.03881801420960759 4.856485057292961 10.041466408996051 -0.17372455551208146 0.8156161434563889 0.5684279715375178
Ni 8.862396531590955 2.4876077519773157 5.865051189495512 -0.47804495366757027 -0.15642488789136932 0.06667796094352388
Ni 3.68604150555873 2.4939351081510903 11.260923051684937 -0.46910625641704373 0.49422644852343917 0.37133543072345726
Ni 1.200076519378314 3.3561524706955157 12.629396604524057 -1.1394689552178505 0.2246686506601163 -1.032526490327325
Ni 3.1325919033459453 8.430656017319935 7.882436187100138 0.36863063019778447 -1.0900387256111808 0.5137424070691797
Ni 5.63315223179882 7.616286465156648 3.2847436077888355 -0.5414619844716353 0.18727298362047748 1.3379506630699538
Ni 3.164030108129479 8.423886378046994 3.5181246651770177 0.4008421819333226 -0.4126116637644249 0.4752259961615364
Ni 3.3317276121987485 4.3057523369750506 9.202096127688513 0.7701783228385639 0.40452400166028396 -0.4220838649209182
Ni 7.1215612270901945 6.099914346575184 11.407509210026902 -0.06306633233286559 -0.33965506890104086 -0.5027607112466954
Ni 0.3596095565085601 9.071226363882607 0.45083450749499016 0.6912462271180353 0.2800545836295886 -0.20937804304963295
Ni 4.852044173929913 0.3434499762547674 1.7772532559334682 -0.43957867927157196 0.5252653201071148 -1.2320304687963557
Ni 5.967373835796716 5.78034224196393 0.5076516386034906 -0.4203704817742373 -0.42348228793034165 -0.4399124084619069
Ni 7.88571810821966 8.51758721177018 11.75220389728932 -0.5575966852499687 1.8939195829085127 0.12969055722031858
Ni -0.022077147596911876 5.060115806622996 5.6405347490806035 0.5652575442293363 -0.3963136979353497 1.0341552841799997
Ni 7.82443030733531 8.673315993604891 2.6434412375661154 0.5366866745701789 0.8410063013947193 0.40992126141645535
P 8.52665852839592 1.6397781294343121 3.5217974201372297 -1.0394347874113838 0.2757220176925058 1.5685243663605954
P 1.7849643263746318 3.3234776784714586 1.5418115203506035 -0.3785152363013481 -0.9466953534941179 0.19477957641016777
P 4.701848443927618 1.1010592622794453 8.267502295130662 0.2220103871016628 -0.3246971620396279 -0.09569234589800295
P 8.329282925754082 1.701986601259782 12.303316620025086 1.4164965790956572 -0.6148117010083799 -0.21273410400605944
P 6.492715895748253 7.949397848313782 1.1697864454154716 -0.5513874711154633 -1.3517703425618655 0.11142235503875003
P 1.8593130179629072 3.430140114855901 5.88651906955786 0.3975105464569283 -0.8458682574727109 -0.17851632047377
P 7.045732241047569 3.9213451405004265 5.884166845565156 -0.7852257040899895 -0.06916498903143573 0.500776590937131
P 2.31924231016645 8.397800701381932 10.067451894999873 -0.41241960235827685 -0.13571902280258563 -0.6175782080099235
