# total energy = -340872.8098141174 ev
CRYSTAL
PRIMVEC
9.28709750235978 0.00000000000000 0.00000000000000

0.00000000000000 9.28709750235978 0.00000000000000

0.00000000000000 0.00000000000000 13.59260594890619

PRIMCOORD
 96 1
Ni 6.697734041119546 8.658528239899628 1.0557340349442892 -0.7394238152645266 -0.10185836549939876 0.3562443407182897
Ni 0.4032272026496989 8.823959309059862 11.964374638347968 -0.31814059186803273 2.299583868820827 2.79213447230374
Ni 3.3202209680798567 8.325901553039301 4.8302686720319326 -0.0965814333711756 -0.4866352664397426 -0.6986322351694614
Ni 5.300035142700064 6.477369789784338 1.7340905746380038 0.05996969568541284 1.5147276322551138 0.6070582823152061
Ni 2.824800747771501 8.690810191081404 10.323692762441604 -0.07672326099466788 0.5236444966742402 -0.597864274520764
Ni 7.674866725710855 8.018517197396486 5.444491301979965 0.7254740379526537 2.383823749907514 -0.20507273080605973
Ni 2.957754836700818 1.6902889076202452 7.335915525399784 0.5338872574481709 -0.6790121469456887 -0.4150922640944335
Ni 2.1930737963081026 6.48801280360894 8.067415623565154 -1.2713297806166106 -0.9616586596721697 1.0077737088626773
Ni 7.959859889092661 4.246608951503955 2.9583222783628456 0.6992225604552925 -0.2796606906252797 0.5288337541846635
Ni 6.911225840246896 3.412293253469997 12.272274427906371 0.5600929693092611 -1.7737197387874486 0.5429375405758972
Ni 1.0277102180021116 0.9266795982880527 2.8181279681615736 0.7447190022251949 1.1536570737927745 -1.341649709188096
Ni 7.443153641135102 5.782852771594821 5.619699827470515 -0.5003402747306609 -1.3091381097136356 0.1337284747351181
Ni 0.5665993222768502 1.8637904645759242 7.131346769625555 0.034283346662902246 0.5262045440919325 0.23631986174579947
Ni 2.1029796627021162 3.4728729909725073 9.04106750398416 0.5309112055389824 -0.020317371401113397 -0.16795088625309787
Ni 5.623235425518531 4.085821431132812 3.3911920390625996 -0.30303278969231684 0.486362215284014 -0.8563033367631059
Ni 8.86437675772013 3.9732339471924583 5.3903382360015595 1.7059248906306623 -0.259332777701205 -1.514430412729669
Ni 0.4858563672223393 6.723301420752293 6.57266376932435 -1.2033264159934438 0.47291894529491457 -0.6829364217007593
Ni 6.204384843571126 7.196339735897219 12.897221798137693 0.01979698012126913 -1.5812955499833345 -0.5338294076270419
Ni 5.237133630803008 8.506126968641588 3.1028388037770047 1.2222607910041015 -0.7786297960400268 0.6245543822174404
Ni 6.60061886174445 1.9583331179218622 2.6104740385718723 1.181486951520849 0.32849648118106006 -0.7942726447836063
Ni 2.3199634105188642 3.9635939399063007 6.465254770993593 1.0194431747808057 -0.050703697002454605 -0.1568807444818653
Ni 3.791262557245473 4.689863544715636 1.876907561195355 0.02333353251961788 -1.130078772252202 -1.7129098065889272
Ni 6.458284804261165 8.69875994660833 7.66968266784271 -0.28619000710336523 0.062110910398131734 0.8801320637515876
Ni 4.622754977615662 2.83550877127915 8.431017566978005 0.8432295342982832 1.5045450352951573 -0.4776168649912161
P 6.761044185310042 1.0345176605269224 12.069540802613592 0.05677895666225705 0.2942660992432803 -1.0235546258460178
P 3.3804199345816612 2.5529581145604054 10.723546891250907 0.17452622547777039 0.5471729188134834 -0.18819163878000492
P 6.644955465582712 0.582152424591039 4.38539626642213 -0.31840155883890325 -0.2821600600083657 0.05826736828232546
P 1.0808974258323856 0.9347092228541526 10.224494487079722 0.15641923146441447 -0.4047965385953803 -0.9732833883952915
P 7.903366474524553 7.5030647076119825 8.697623205864762 2.0017457359555717 1.073675710872125 0.4908966128192577
P 6.868988120461304 2.0966922976416837 8.600517313587243 -0.03862671123326251 0.017479387731686023 -0.11548212693042045
P 9.192889260353319 4.411594239980436 11.17391075765869 -0.34385522302531746 0.12067729797811474 0.01744390650806028
P 0.1384929139249475 9.074302311377457 6.578509068540061 0.5149847641167131 -0.2980916436369576 -0.3970937706344838
Ni 1.8387524495051337 1.403707650552568 4.962620028328425 0.6212188900863044 0.721763421870286 0.7721292759173476
Ni 7.87623886249867 6.517824386834917 11.263825650281419 0.8806786802836768 0.2208467058108648 -0.05574948695647818
Ni 8.183660366531798 5.171585296096168 12.983480360443888 0.8763623122965101 -0.2878391126710139 2.22248265566145
Ni 4.839803735115457 0.4261338288262958 5.978911759858158 0.5382781874270148 1.1421709275300458 0.20291840346721826
Ni 2.864103744722386 6.79275962353955 1.2065750738091934 0.1113526781430792 0.9502738148739958 1.2266278097235455
Ni 0.6953723598764676 7.297151180108433 10.604040519614802 0.6790491708312112 -1.4677471497405175 -2.0568694164025936
Ni 8.165076884277847 0.9362508810521316 0.22586592794052554 0.859168574126043 0.8902688950752733 -0.06937093439465472
Ni 7.5590937673011815 1.1237016585702468 6.516906821594193 0.6380243916794173 -0.6219508831563224 1.448273871507254
Ni 8.703440643787737 6.557433858005884 3.7095175243622758 0.41909161506181375 0.24337394037910345 0.2833453385657184
Ni 0.43166522414386366 3.026293616827834 13.226204227908338 0.35297312616618565 0.7336714861617817 0.6770105431346276
Ni 2.047544977257921 1.457266342285969 12.14343080836516 -0.047777010273962875 -0.2263226413237715 -0.5739620139818696
Ni 6.618069318093863 2.6763000574962996 5.246718844213454 -1.7814415329117386 1.66912649085539 -1.000697004521554
Ni 5.837665221501277 4.6396482081103825 0.45719917022532947 0.5043547952066927 -0.7385393557770442 0.11692065914915994
Ni 2.800134216603838 7.925720518395248 12.634870578651505 0.8284271791781282 3.0264951534406395 -0.7083075534756962
Ni 3.2153789235197103 3.5818942294428378 4.152282687531588 -0.16570348497981785 -1.0759143703946568 0.1852317848207326
Ni 2.132094713609731 4.64688285712379 11.49265694847866 -0.9226529678329335 -0.0011091739037787348 0.12248195528702133
Ni 9.030123588198023 3.159489170294184 9.417514432057398 -1.0837721758761787 -0.5557174659493849 -0.5848997439402959
Ni 4.605304521266249 0.36213829683452864 12.089468127887107 0.5974721812886677 -0.2653946676245687 -0.7831384825436577
Ni 5.08753706301358 4.744425242987482 5.572519514353812 -0.2963132115802961 0.6792805701157268 1.4281943271485598
Ni 9.029844975270677 5.674843826760513 9.115609463985715 0.39767021196324415 -0.8600106104113641 -0.691717510327499
Ni 8.275788374507407 9.341334228043051 2.60125752293528 -1.2455105055606612 -0.6107688983975739 1.1960365672002498
Ni 4.530831285786772 1.330488173246146 3.5388485321679437 -1.1174091472043337 -0.12562744289453848 2.9206518351515633
Ni 3.42159892524334 1.0943358560280212 0.3574390254599663 -0.0010289554851466152 0.6217979025182259 1.5454541148046932
Ni 6.507227808498207 3.885563746054378 10.057427031326212 0.510089897918257 -1.5537526073680596 -1.3582587784996865
P 2.160903290297265 4.896863662635834 0.22586964277955682 0.3047065778503139 -0.9932935129686314 0.0610071358109917
P 5.615025631259413 5.116977162336432 11.814435376657904 0.9953264842382602 0.30787854782039237 -0.2104260246981731
P 0.481366984253044 4.268415056617536 7.415024879990291 -0.07232050394128191 0.7374677199794202 1.3033574984761167
P 6.31251452067395 5.616177231359108 7.450895365676279 -0.8376438126803898 -0.4199367366709284 -1.1884620972871016
P 8.359743736614213 7.578633820605686 13.382709467586178 -0.3973498525093479 -0.15165703418908075 0.09435665780571491
P 0.8908759797046283 3.1993122447094478 3.776705960501424 1.068422947113618 -0.08406453185108749 -0.6687012519379839
P 4.370071626708365 8.929990102110017 8.196817397670815 -1.448369516544854 0.18240280001236975 -0.5587017453886893
P 1.0816403936386403 0.9198563676973591 0.5608793988784451 0.8507682658774897 0.3543083000378414 0.23870070327315018
Ni 4.203321789692027 4.586108090572138 10.156232462460535 -0.4865779308392459 0.12797280319826349 0.7556839858771308
Ni 7.658697888827231 3.814684617337659 7.214833133304662 -1.9533832854917843 -0.5895578115375976 2.0401068522322734
Ni 8.40518550506428 0.5543384960541283 9.208039302632613 -0.020104226949042795 -0.12215336830300898 -0.7744101015317243
Ni 7.641461035722117 6.361457524910993 1.662959765576916 0.2809081898791356 0.015535890852070017 -0.8858807933099064
Ni 3.7290575776667807 3.457558567066078 13.017420987253129 0.2646809293869958 -0.49402873069033626 -0.020018866324088107
Ni 2.350202200233439 8.568266938537233 6.993925586761129 -0.014236712424672254 0.5109021094069072 0.15680001184260092
Ni 4.985109663823762 7.239821926758289 10.75266194215852 -3.334866838847366 -1.2510792578976906 0.4795094540282387
Ni 0.736881042502172 5.2817209862758805 1.8889640712713565 0.04683830050977739 -0.2261228666081396 0.057073347974224295
Ni 0.8335885182935852 8.577944094213704 4.468406201995476 -1.0226596248355742 -0.7453404378592776 0.7867837926057288
Ni 8.7904793222905 1.7765660441215971 11.40380264239936 -1.241450733668991 0.1981135258794072 0.2191333226641839
Ni 5.425178782566126 7.3026119934844065 5.977253084230693 -0.9072404899326052 -1.2174317450465744 -0.15087104795267564
Ni 4.8396922899445185 1.0654529825598615 9.843873937354845 0.614639951317206 -0.7043999908911739 -0.01928867302628291
Ni 3.0813753925640577 9.098959555447541 2.2849036884514526 -0.3903942471271212 -0.8737819531638437 0.3748796964312899
Ni 3.926547707666915 6.037022058114627 12.725288831962969 0.3677970785528956 -1.6110136458730577 0.3106864495828327
Ni 4.397106367758465 6.156918487849015 8.430107431415342 0.8230402038346019 0.6064851834205556 -0.7099438035275386
Ni 5.793328617663016 1.785862428797362 0.2699332059490202 -0.21901582324971314 0.5603809328633252 0.5313161542868851
Ni 3.7291318744474053 5.874033495617455 3.7423297688157664 0.502320024164851 1.8447549482584034 1.406530983242513
Ni 1.1093066573240578 6.70662179350187 13.166953474069267 -2.2380648263704233 -1.7864721533571104 -0.8816942660323848
Ni 2.1401001917221274 3.024501206995244 1.8271454349519163 -0.9094087012285177 -0.7350922777687082 -0.39954608882971837
Ni 6.5755529853809245 6.0730002741325215 9.473244447204578 -0.947614779984594 -0.28145840595565075 -0.37630383047232613
Ni 0.5318414308807294 7.835422068642541 1.5732621910375177 0.187973866342244 0.5877688379579747 0.7662077682265901
Ni 6.739098773732787 8.336479557180857 10.387374390535228 1.4103868666534936 3.0600025411694656 0.0769646875815126
Ni 1.464231665469609 5.439285883787392 4.633542870162483 0.21230575821938918 0.1706680280739448 -0.3856875856800712
Ni 8.578659200727223 1.7494848675836054 4.3589995489756515 0.7333094748366725 -0.384477367422054 -0.16981519315534627
P 4.436910867978573 2.74117972117751 5.970130809097982 -1.0076338408507033 -0.9979451528080296 0.18134787638529415
P 4.66695227499025 8.381187644922246 0.27347344754582487 -1.4254568736127387 -0.4158003459050516 1.145470424216924
P 6.4229752592689 6.7749098219942745 3.9263601082958353 -0.1543842033122567 -0.6760288959476486 -1.0530284669354188
P 2.0952435104194866 7.274434939432189 3.3135509745992033 -0.45294018818014253 -0.44980678475748337 -1.1893627547245
P 7.968143980132403 3.39281820984854 0.9795073954420506 -1.190774290360046 -0.05216999713533595 -0.6995627174035306
P 2.5958830795667835 6.478939309275051 10.186801872848894 1.7477279427093773 -0.6786542493856377 0.3496574315293914
P 3.1374508877411476 6.214535641224083 6.155479916434153 0.6060151857626724 0.21271456362203364 -0.8163905597285682
P 4.380463888898356 2.5961431182989725 1.9947013920380403 0.1896016317536541 1.043779437533325 -2.0655438042481395
