# total energy = -340861.5685235464 ev
CRYSTAL
PRIMVEC
9.31406323326819 0.00000000000000 0.00000000000000

0.00000000000000 9.31406323326819 0.00000000000000

0.00000000000000 0.00000000000000 13.63207302183112

PRIMCOORD
 96 1
Ni 7.846213570364406 8.492041411789254 12.758147895385212 -0.4052991892634117 -0.14073421662898988 -1.3088666012198038
Ni 2.3896161034332564 1.7250483664669862 2.6344660646519733 -1.8392088216291937 0.09460374081951449 -0.6257592011588191
Ni 5.274675180790449 0.6085697250506893 9.195378937617937 -0.5705465605424174 0.4049531187779026 -0.5920003595408192
Ni 0.8689741721313241 6.2128714720390015 2.895615636803838 -0.8066733324408043 0.8569106313298017 -1.1415361221595244
Ni 6.79477689641574 5.523472442074005 4.236385307317289 0.05088495977532527 2.138836956515336 0.840149866931695
Ni 4.578122950141649 4.637956493361385 5.532141040871422 0.16489538725622566 -0.13877477890977388 -1.0850237888950927
Ni 3.0746840939217304 6.381213853756543 1.3475866335088627 0.3763331410483648 1.8802215165961296 -0.5181773029120817
Ni 6.66302015569557 1.9155954753071698 7.531734465458302 0.5201930477905299 0.599135942144336 -0.03043800477488306
Ni 3.384087965686422 2.4830641014288357 10.325136639209884 1.1491046785354015 -0.035725735536383633 0.200274538086468
Ni 4.608579937428159 3.171820461019896 3.367994195554202 3.2595885378293414 0.1610353900801872 -2.209878336633878
Ni 0.23480567525854265 8.244259383415248 10.671336649804571 0.25856144675281917 -0.5675555962348935 1.9978374020401013
Ni 3.2128209680643036 5.135122569012539 3.5321517685904515 0.36709362472796775 -2.687537367716939 -1.3144461521901105
Ni 9.16281231497351 1.1623951111181414 9.765090390204003 -1.2798486167208991 1.2323050626139809 0.0721801217086757
Ni 5.882948718625324 9.091224423755127 6.634470688591408 -0.6230973380559398 0.5549584762961733 0.5338579468721322
Ni 7.767453850335441 8.755303413518053 9.069159407583342 -1.5320676661954582 1.1356218135576184 0.7508482550513843
Ni 8.89705414425609 1.6014321171499992 12.603083642436982 1.8342699895666796 -1.682304422998245 -2.462705452006081
Ni 1.699425378080079 3.8130192129397282 1.8149877567834132 -1.6206858788554992 0.21554740508513848 -0.06975274321410568
Ni 4.504504593104167 8.164167752321458 2.577511498426202 0.46729722823276293 -1.4569906825549617 -1.4374790948845955
Ni 5.581610825756693 2.197522860070271 1.126034870454816 1.3872687925787914 1.1990316452728318 0.941804858171036
Ni 2.7451245889802784 7.484390149838714 11.630298645381952 -0.2518503532812308 -0.3467065764311835 -0.09841385859422405
Ni 0.8284430938817912 9.066206849488594 3.073882153063819 2.8529567457974347 -0.8402709658905916 1.0736569418190476
Ni 7.3249240705321945 3.4315710608505268 3.6217008996508224 -0.7528706847980519 -0.8649031626169751 2.184710579118999
Ni 5.946126010602203 1.861965098305421 4.942799268283812 1.2200396149830666 -0.9452635061435979 -1.3017662427295968
Ni 7.186731312009278 3.0169927852817797 12.931138926140887 -1.8015190203879037 0.04811768144283326 1.6644463117709014
P 3.11826459652527 4.756235784355689 10.964385957662111 -1.4233915064432776 -0.12488053742618492 -0.1600095199188341
P 1.5996345029156578 7.788661972675312 1.4846551845805604 -1.1993471196307217 1.2920922099749426 -0.3544278563348412
P 2.657712104061658 3.539409286784227 6.5649197830365 0.2813365356658058 -1.21153260595332 1.7385691590282446
P 4.041679469173305 8.031060472409685 13.444823493214864 -0.8256912683042038 0.1669250160917448 1.7590117431533125
P 5.17189449127772 5.611341316098753 2.8438955742034535 -1.2019606459941687 0.3830547760429145 -0.15807990699628902
P 3.882055050789149 8.20150783245345 9.105297973537976 -0.3748007635642384 -1.3040995188484636 0.4778330947670803
P 8.40125723592332 3.4953444528843884 11.386856970547857 2.2174561489811357 1.1196758317513231 -1.5620580419099614
P 7.348572477480343 3.899118414920306 5.880208521175878 0.05073120780628037 -2.170600879190494 -0.978978896118172
Ni 8.141134073557074 6.184938595931283 0.161203152128824 1.9441622811141483 -1.3267604507810893 1.6955777430683832
Ni 0.3664320190912476 4.210757661898686 3.848552364773989 0.06682142849992363 -0.6415941113085467 -0.5505264086667486
Ni 8.546547310749697 3.2288318430323493 8.519391227528734 0.5456647096990731 -0.09962356263160907 -0.5699513501605797
Ni 1.6510667609572793 2.321241564084552 8.75503516849241 -0.48297427264838755 -0.6631738943618514 -1.1001274773057503
Ni 7.987722135454294 2.8979497410894646 1.6647491200777325 -1.839709415414696 -4.748559887055957 -0.5599245620521971
Ni 2.68394982063233 4.397243839100669 8.765764038111778 0.3933777552354773 -0.7716613351419936 -0.19494746944659974
Ni 0.48180811652677447 3.6473965377321735 5.958020069551705 -0.6147775053363348 -0.4515319949787062 2.088985065990215
Ni 1.4471074008349631 5.333046416057896 13.026127470221235 1.7952347300410887 0.17356000490975915 0.35790990134617073
Ni 6.094592181044696 6.8905254680687404 0.41208024376744956 -1.9502429400905894 0.6450298764629729 0.9605872809848619
Ni 3.246966324453399 -0.0036175822208196007 5.181892206920942 0.6206879572834988 -0.07273085200582313 -0.036859592030510716
Ni 1.4422361456817998 1.3124353582736075 6.025349570988009 -0.213277120993723 1.374407363235091 1.4328665358132484
Ni 5.78787075953643 0.36455802953710514 13.25650989677569 -1.820692250882245 -1.0495752182794957 -1.4625332096397456
Ni 1.3759945268494904 3.3229318254652545 11.438740960663914 -0.4505822294709272 -0.600827728024462 0.20215118628389056
Ni 7.18199976780697 4.780983250783902 9.710671112033092 0.7455255572868902 0.41333440086306233 -0.996130211086478
Ni 8.241576933158822 5.484623483672773 7.0451920105102035 0.4662474468120099 -0.4153835700826072 -0.19909902972112808
Ni 5.2177289972217284 7.744476055951399 11.790857264324162 1.706154233032649 0.9716826195670748 -1.0344044240763282
Ni 3.9542204139377333 5.583836886906991 12.754154025003421 0.12444010745465664 0.6008626950274555 0.2548624006346772
Ni 1.265520420976315 8.721912496263577 8.686929805575687 0.02108741679791852 1.3139869531655046 -0.4053734941447728
Ni 8.119516132428025 0.9590691073063704 5.595106903609339 0.12749689200310946 0.19070206390668448 -0.4791047623906523
Ni 5.047579687206455 2.5748541961409295 12.38629229718175 -1.697153572195935 -0.9252562097837357 -0.03914607407184226
Ni 4.676367690783269 6.217230453705694 10.217238803270485 -1.3086781393580815 2.297420799731237 -1.9379623229510237
Ni 7.332691999399763 6.252214075799923 11.559044197632945 -2.6187619008144383 0.12067678375748249 -0.9822853347835856
Ni 6.884378186231096 2.511760730734565 10.35587677402346 -0.9263738683279465 -2.2741600294310835 -0.652933704691082
Ni 5.961345190182066 4.702651977670892 7.3550895276345845 0.3442843401429361 -1.1789415593911763 1.837319575026281
P 7.52537202875634 0.9986352485886609 0.48323130541282294 1.097544804180239 -0.1215278189038681 1.7118304574818195
P 9.540767693291322 6.268541628923241 5.177147623029887 0.08253781079391591 -0.7885002610762033 -0.23325536388786283
P 8.985109299548645 0.42192520877107037 7.440058002319571 0.5484265887149264 0.3078582361054182 0.7164962599340756
P 6.439622345277551 0.15183041013909493 10.90493615385406 0.9381230384440747 -0.1354220603874571 0.8653068258132968
P 0.5916004329597747 4.896459008697706 8.504014640277573 -0.1761359931670515 0.7361659704488611 -0.13226037483002384
P -0.03795760253477373 6.289582098122087 12.01397379002779 1.6240036303748224 2.0976607393873423 -1.2208546546851944
P 8.833755769455138 4.622094643407585 1.8088395435394302 1.1610304834387102 4.516814017834085 1.3746207647974777
P 2.9230045716095594 7.473352984721126 6.36257920713143 -0.6238110762935128 0.8191097584319441 -0.3987073949785069
Ni 8.293866085032356 0.9664085892579818 3.0601141045601747 -1.932166285094537 0.43861708668925103 0.640906855433535
Ni 6.305127269920613 4.534505191284548 1.43728385817714 0.3691708189719707 0.0875136667419525 -0.25975520995060425
Ni 7.869424216333208 7.887353788359669 6.894816457072684 0.3136452751008405 -0.11665557841323136 -1.3040918055389799
Ni 2.6371559661591126 7.031614900306061 4.109933857104274 0.05536562125449819 4.877590442094775 0.2989200530755239
Ni 9.294634254137412 3.645682750068346 13.705141319505968 2.527901943308072 0.2132917762817423 -2.769997016974752
Ni 2.1268663751909265 6.581093654113877 9.403894737550822 -0.10298528001499037 0.3273330570005782 0.4620506351218429
Ni 3.713526387803799 4.338611810058292 1.3636030969149424 2.8820369509928425 -2.144404166190468 -1.72120058584281
Ni 8.813041292474956 8.352982445371033 1.2976176148258682 -1.7047318987638256 -1.8846119323543413 0.15931480784465465
Ni 3.143421881742659 9.600843402159208 7.5522235421044375 0.9283597884097238 -0.011997795791824499 0.13914090399994103
Ni 8.76780288658793 6.707308527116777 9.204007485942775 0.4188098221553368 -1.737016469829144 0.2309511412347184
Ni 3.011562686325194 2.7379061898527417 4.596435330173455 -2.601563791768597 -0.62197428019509 2.1471907277966698
Ni 1.009923893417789 8.748234039404762 12.82153754800739 0.4584549473507846 0.22003912230790493 1.1648598844871292
Ni 0.4105462175270557 1.0716575055691595 1.1421901134054124 1.701655573831347 2.0683254807583347 -0.8642966393812276
Ni 3.2924655241153546 0.5205061871010825 12.157819253622321 0.34581286097232056 0.5896930515638812 0.551734827152553
Ni 5.316886516075605 7.867570717718524 4.682739441548621 0.5184261856980943 0.099519432953577 -0.45180710301696386
Ni 3.938321307730372 6.149237790955994 7.755204925570766 0.8669024524351908 1.0928078037158857 -0.8306830650918403
Ni 2.3440330772007867 5.395236417315395 5.607471322760054 -1.7729496933906435 0.2142016896905214 1.7433714655128942
Ni 0.8412899815161281 6.975190304287201 7.244220505473657 1.140061851606843 -1.5215050601882636 0.0486594128789162
Ni 4.571202601042605 2.316128143283239 6.4852817468298225 -2.1065019918280563 0.03186059615402255 2.2520081759243924
Ni 0.7724972407211963 8.507418930446754 5.492784466015415 1.0024612955108285 0.13277870922733906 0.3396445273780796
Ni 5.280114593810425 4.278489530873455 10.838288441857932 -0.4256319872834927 -1.548120348782947 0.5546771976103286
Ni 8.411400250955433 7.827706526407742 4.180847410133192 -1.1314350291697803 -0.15026143939313477 0.22752746026515008
Ni 3.9256821237096404 0.7937454135336468 1.2162099065750196 -1.2536138513940862 -1.1584843199780888 -2.0240708818153332
Ni 6.467909155794105 6.830161023235754 8.57349755316973 -1.1617892159816057 -0.010011104379098888 -0.4929450107078543
P 7.0611125390633624 7.659848475986499 2.6704686452811086 -1.856007124133455 0.01006715442801492 -1.5485258117514815
P 1.5391024049416449 0.9678802112736601 10.957051132742196 0.6268506344507849 -0.2542085691007622 0.4175718359831776
P 5.782226437121866 6.5246970002851885 6.176964826262787 0.3048083935355008 0.29429875225342866 1.7627434422816028
P 0.7218212846268728 1.8891155930883488 4.0969835833663035 -0.8138536522393274 0.34426377131764585 -0.15016785123806395
P 2.207265370376598 2.521261075392742 0.028460052095613725 -0.2739297016787734 -0.24151786100697115 0.6570071034295072
P 4.053601470312978 0.7342210972184721 3.3689898689306323 2.0803055359383467 1.1686309214937873 0.6979709474363787
P 5.071339862915288 3.169370862348229 8.843671521340525 0.5460809713008853 -1.0473933801368285 -0.17537571796225923
P 5.877462735288397 4.695377694163014 12.888743172400604 0.4712158465608788 0.9581416476578467 0.9591549194137095
