# total energy = -381174.0786613543 ev
CRYSTAL
PRIMVEC
9.23294294705646 0.00000000000000 0.00000000000000
0.00000000000000 9.23294294705646 0.00000000000000
0.00000000000000 0.00000000000000 13.51334528320213
PRIMCOORD
 96 1
Ni 1.8634940461833323 8.191069694595312 10.875769358100484 -0.5730667558611098 0.40239641379431995 0.5384147130048792
Ni 8.159548428418807 4.863452536166745 0.725962274213948 -0.40936024670666277 -0.6132348434395632 -0.3093240220176673
Ni 0.9986166101693835 7.85204527375904 8.399746201108202 -0.08406144652729393 0.7725761336467791 -1.357879797893713
Ni 1.1511909873125357 1.2902021717160033 7.301219918620148 -0.3206422752439639 0.5678494733262285 0.4010877222852254
Ni 8.80572515209449 4.262129447841224 3.2466617940576823 -0.4021663000613848 0.6542871333951829 0.08105068472542816
Ni 3.303186792200381 0.053318397163466 12.973392363775256 1.5213340818280379 0.6051250698482352 -0.9425851879804864
Ni 8.73376359715024 6.690134840040258 2.1878103893924314 1.9064940771394137 -0.47466523856205994 0.9409242553382956
Ni 3.6724675660713353 0.20501010499013503 4.811494151454304 0.33540914914049336 -0.27078292851967556 -1.0553087783291633
Ni 7.740852945533019 6.6826007588451715 4.227014720388829 -0.8375998468163317 0.31651873999389357 0.46167936782535324
Ni 5.321895837122202 7.297403943426607 3.4837942297902527 0.38430124685550593 -0.35679404257417263 -0.14069976384662866
Ni 0.3890291148858703 3.4504152955543725 5.4000545431671165 1.4911580724652898 -0.5710309563780037 -1.7175686455171775
Ni 1.052970943497174 3.8221151003972786 1.2995163642522825 -0.451215492179552 -0.9709303147820828 0.3060654058710535
Ni 5.1525821349708485 5.654097113346748 13.20294363030527 -0.07843150193502621 0.13816182791612333 -0.08114195888765381
Ni 6.08365976972104 7.185371417420253 9.30080292286106 -1.0520301075778915 -0.3532230373934626 -0.8010009646463754
Ni 7.75402835468178 0.004967323140878421 7.777564972062314 0.8748109086489902 1.4623455191089718 1.2012805892080085
Ni 8.459702160736311 0.21526513438153588 3.5008077731948934 -0.849701258065556 -1.1413034373234279 0.4512062362081713
Ni 1.8712312521165217 0.3723498040048352 3.1926361534879133 0.8078398419450796 -1.4267881908296522 0.06432257333746987
Ni 2.945659554311468 5.173254693544132 12.156956484621777 -0.5092316636830198 -1.134699558853665 0.289110780294586
Ni 6.6773195156544976 8.277554668313915 5.973425820941158 -2.3547582000001253 1.8743941112810751 -1.5062643319791091
Ni 3.6154726111482076 6.805758980733977 1.2662232963829636 0.9670258375213538 0.6515028857818264 -1.1509252766839082
Ni 7.768422512259159 0.26173730457667227 12.97862190248714 -0.09544089200882917 0.9444469237795734 -0.865870925846883
Ni 4.159976170460781 7.3126198328990375 5.453986007721948 -1.816715268512368 -0.27204482595123464 0.8254102467286752
Ni 2.3731617129112683 3.417859939802072 3.470348295422109 1.227308637840654 -0.844756255355455 -0.014055963872433857
Ni 0.2226117868410098 6.168815199699332 11.638732649948391 0.17151314968305945 0.9457841545337582 -0.3487197502064704
P 2.4427504015967716 1.1428998048208838 10.597124688959543 -0.5365326654908179 0.4337510168462014 0.44227653781870924
Ni 4.955828127290329 3.4468975444081367 11.878892567572956 -0.18629596441918886 0.49253517686394527 0.8484370466411517
P 0.9721642295028097 1.0113119063008107 5.095192933396948 0.11083022998070591 0.5114145302669515 0.2650424264914726
Ni 5.420023551511154 0.4048931569317017 7.928874436063643 0.5566433201977639 -1.0452238832893355 -0.18760696992112852
P 7.289278953902493 8.250225158096443 1.9303811758520675 0.29876013045889194 1.2047379516289896 0.9922421888859816
P 3.1337530617946934 5.286616763290796 4.762210550224971 -1.2760809221483507 0.6933283064580446 -1.0807765835829644
P 8.172345286919288 7.276232805950707 7.106924643564937 0.05809407592925478 -3.732082479771695 2.0897723377782014
Ni 4.348752915699443 8.140057686503576 10.632069530267342 0.7435900308270742 0.5370270886287332 1.1684098066219166
Ni 7.525808478480604 2.3474756664839007 3.936815946826893 -0.40795950970439415 1.181416760404546 -0.17300284685470851
Ni 8.888258426362729 8.485351275393114 5.662078068965661 2.5811839425606644 1.324326901638932 -1.2352852282882274
Ni 8.274618592554065 7.18909229330459 9.558799962373847 -0.37803803955461346 -1.151850873821971 -1.3322541269058088
Ni 7.266630545604027 4.205688469476559 5.953601769796586 0.39326874046143884 -0.04738157460775711 -3.0076785349547683
Ni 4.540216447246647 1.4682317717204971 9.95733531500293 2.216358802151899 -1.1926236848639589 1.3369708156551878
Ni 6.661189564860604 7.684633557791739 11.606868841599905 -0.06748143068142572 -1.419625354532626 1.636291703713556
Ni 3.3110347934452635 3.2887280040245153 10.09241418913558 -1.038536958187463 2.383101527029509 0.04568798895541809
Ni 4.09272341626346 9.189316987059055 2.2615797545057963 -1.2181927915823147 0.43281616373675785 -0.6364112815560266
Ni 7.23596794309314 5.224026645127199 7.939941041113192 -0.49683920355593786 2.744554151421615 -0.7016206283738239
Ni 6.804300175796693 2.7949502315818058 12.908987972382695 1.0039504784618452 -0.39208011946997634 1.5159465922638795
Ni 1.5230662180656216 8.111029314840154 13.46604833368708 -0.41741525580065525 -0.4586552362870488 -0.15124617190390727
Ni 2.2840915152531753 1.691216569444205 1.0345586092824162 -0.06225669194737666 -0.4662811282634228 1.0976299076948774
Ni 3.3228898917963563 4.04548768171191 0.8288569568884673 0.4673764182101306 0.19255994305102966 0.5707967288800105
Ni 8.460902443279647 7.3408911032658954 0.07128939671998229 -0.6880117793411377 -0.6072719409879089 -1.4109010872857508
Ni 6.08767609976989 2.969942193457398 7.483731188982601 -0.6862351470566891 -0.7925839442272737 1.0632311185000332
Ni 5.219151651412732 2.981834223579055 4.564686515128189 -0.45941628282278946 -0.1716316775387947 0.08291473451736042
Ni 0.17255354172409432 0.1330513199286775 1.2805472835962697 -0.38523095775862687 0.44649571810637945 0.11583873893889081
Ni 4.237772945154166 5.240055033552042 2.801275720585181 -0.677763105029936 -0.8386115759102977 1.0280553419298486
Ni 7.155013502016519 1.639428994170623 1.6662091443009535 -0.07084700471954897 -0.44887604541309784 -0.27956453136704756
Ni 4.683308592297453 1.7799543811672207 0.38228168040379973 -0.029383595368439718 0.658654152114627 1.1343033518565109
Ni 5.672359873890722 3.907141269178597 1.3203781981497076 1.1747653165262995 -0.0016966709761325617 -0.30234244849351155
Ni 5.975154227803561 6.199163882160423 5.90131838550318 1.3290299635415563 -1.7061310931041973 0.36180949351089303
Ni 1.3955500472502465 5.923302021931492 0.530968988695075 -0.3441817531268008 -0.43715490032142773 -0.07933935846127627
Ni 4.590692944665201 5.274660102570652 8.40931429956711 0.503359778283275 -0.24891029681630034 1.4425865913144897
P 3.481253323975439 7.146731552467509 12.411115389878686 0.7182962892572919 1.1856045732336484 0.25706763581611214
Ni 0.8820497860320152 1.1091164676973257 12.400534437612055 -0.2556519864155081 -0.12567038031733196 -0.26661054230954084
P 8.100097510753164 2.1135498317305634 8.830025333831438 -0.2084899840177248 -1.270940772708308 -0.0669443272310331
Ni 1.7183891196367795 7.526094699702477 4.574577766579533 0.08333922364928872 -0.7216639201779442 -1.118517035556532
P 5.13978527647037 1.2605828917235535 5.929817709553273 0.4746256435733762 0.3329144077430976 0.38141518355696247
P 8.79932672284425 8.327661848026827 11.104509972266614 0.19607566951377198 1.0496135277165988 3.7157462045055167
P 5.481791937779698 3.5924364192588185 9.873701473971881 0.857249245616143 0.769828909918945 -1.42647554468524
Ni 0.12022768589453987 0.47371828126079096 9.578515988089519 1.0354588334827715 0.652268046082625 0.45787876313234044
Ni 0.42633574292124826 3.954441634328634 12.405088124922615 0.0737207267229182 -0.806319034425179 -0.027848903891468164
Ni 6.857315732441532 0.10791001711713114 10.111603937120712 0.021300561249989122 1.5053251079942913 -0.7169060937779846
Ni 2.2646561709937902 3.555929364056154 7.698254918070062 -0.7439178464801381 2.075891980251683 -0.7741856442257441
Ni 6.366067786282467 6.266204278677001 1.607993594360681 -0.019186086010147603 0.2832810609866863 -0.037955653308166894
Ni 4.272793496591623 4.650882497742128 6.34636653327502 0.16400270023862723 -2.0275261873537858 -0.9286891467246845
Ni 7.284283931933692 5.015325209669178 11.936445192231604 -0.5446293264560234 0.23295711592115365 -0.1651931210023026
Ni 8.06696047961448 1.828713551254542 6.090842999095766 -0.4520688413187827 -1.4060887534987718 0.42225124373671796
Ni 1.5792025093231323 5.5349736873920765 3.121339370413818 0.2452081653743648 1.297265526645766 -0.33242718369403396
Ni 3.616755990175312 1.877777408449018 7.9910222962747355 0.07379991670028581 0.25999740786839737 -1.480458940880231
Ni 4.963897719158597 5.787310009771644 10.88137744746065 0.2378632949735194 -0.5475619267217859 -0.49619308533150674
Ni 5.533182496519715 0.8209249358655515 12.057349652821733 0.6902414400026048 -0.3735594349579695 -0.8811530488169341
Ni 2.7432826845625575 6.55850077680698 9.277032712031707 0.36854012736650726 -0.6849048582810398 0.5139810054425471
Ni 0.20110180037018366 5.824149450909385 5.560781608662306 -0.1600923094406275 0.09723757889793577 0.6003775278609209
Ni 0.49446654996373146 5.6268876313836085 8.773579738995453 0.9002149505443916 -2.009970180747893 -0.22392740161871755
Ni 7.746328080519154 4.052052303929687 9.684582186561235 -0.1809519264984561 -0.17910690286991734 1.6637343733055412
Ni 3.012773814369173 2.2503266440148995 5.720252993958313 -0.6851249447116459 0.6729132331368024 -0.08881155961776963
Ni 2.790158334351107 2.6553850706198756 12.548059318424823 -0.5253627649169276 -0.4768254794381724 -1.7096882143278362
Ni 8.912245611344146 3.5413043829127497 7.493650139261869 0.6116559289882176 0.49530296941706947 1.514214440064121
Ni 2.2226370490344265 8.588954124768202 6.481122254415233 0.36499689009993913 0.55740333829224 0.7741460492370603
Ni 5.728865482853873 8.662023632829376 0.6174696584161673 -0.41620478043232195 -0.39349422620868363 -0.6561678953576635
Ni 0.530417782019405 2.0314412728238125 2.799789216819973 -1.5606233663459637 1.8583576266435027 0.124132860626883
Ni 5.90621184510293 0.27007926825285006 3.6480492026685822 1.0163858760117206 1.3714747629693282 0.672798561935809
Ni 1.059313975091567 2.913085732673886 9.606880511177051 -1.5896493212646685 -1.0455846090628638 0.16312518272968035
Ni 8.051172147698304 2.1223580590101134 11.135279676912136 0.45565064513277015 -0.4409130818122794 -0.38258066461997337
P 8.80145029965169 2.4064926358454155 0.3863571012855539 0.41439703779962184 -0.43184222985926274 -0.18404342093958626
Ni 6.3824839582982325 4.781648664367148 3.5203077480527654 1.1670980297890288 -0.08188423637031704 0.5156329392236733
P 1.5738381696486894 4.738743179914245 10.605557135473601 -0.5579823507241616 0.3885314828867696 -1.1162943168736001
Ni 3.1952721586119295 9.00995784331425 8.83307866796283 -0.8985514467990396 -0.5175157580686829 -0.8319069101966124
P 4.624448582960835 2.458418705258613 2.4692258646199483 -0.6719729807107202 -0.541019497617578 0.4336394309690016
P 4.624070032312553 7.474057834977586 7.798618851166673 -1.240690972684831 -0.026266389895696695 -0.9848114436395492
P 1.9661643683516743 7.658328904207422 2.178351239656688 -1.3141463615615043 0.17547701942681393 0.6390592607018348
Ni 2.3443364659859482 6.1298614146967925 6.799942226870122 -0.008109773591327968 -0.13616973718675904 0.1191688317533883
