# total energy = -381164.567646219 ev
CRYSTAL
PRIMVEC
9.30711241812494 0.00000000000000 0.00000000000000
0.00000000000000 9.30711241812494 0.00000000000000
0.00000000000000 0.00000000000000 13.62189980126524
PRIMCOORD
 96 1
Ni 1.2601550595167754 2.0692223159832652 12.650331031203557 1.3709258324443938 1.1272790980198781 1.4801810046284958
Ni 4.628529234793586 3.2060302185927547 9.298934889853424 -2.437453876528144 -0.8250052979807727 1.3563060256486899
Ni 3.151360242008328 3.3264549422948124 6.1894780587364915 -0.37794702250270396 0.5728638958216843 1.2833766844788157
Ni 8.02242351149949 3.9663747431185783 8.549893852995591 0.6166207291926606 0.009989764222860215 -0.1797216536357808
Ni 3.0476045561106124 9.354113034759523 10.609102647050497 0.5195171047694278 1.5022557250403483 -0.8291458025117076
Ni 8.034736820832345 5.456154872824485 12.797488573043756 -0.14912115514110447 0.25712085765155074 0.6812232956643945
Ni 5.475169302882705 3.8917968537125507 5.936396273874951 -0.726346156144962 0.012479363413933346 -0.16581198553322413
Ni 1.2339183104545526 8.92816374154147 12.338988585902248 0.4370854805360731 -0.20060158240858353 -0.8474096338179019
Ni 8.70429046664161 1.5907902175286475 8.694885629845803 -0.5755285871380411 -0.8785282095995773 1.2047860312581058
Ni 5.828122915754887 1.7517753358433936 13.741772346502332 -2.070261521438783 -1.7509850161940943 -2.2747835219476955
Ni 2.476678377421738 7.925434096111968 6.326432213561114 1.59330260174654 -0.6136811869483625 -0.24361999495163852
Ni 5.06281770046987 8.326077351479654 -0.025689490869651496 0.9698813046922781 0.5072051201712943 -0.2828594000682354
Ni 2.0725170336732357 8.076562982693158 3.3854918158852674 -2.006422058385319 0.9123616132092545 1.874382027096217
Ni 1.6754942449196693 4.6929437577661455 9.487598428897558 -0.23086243817565402 0.6330927587057548 0.37726053795864056
Ni 6.172793198841548 7.697409849207228 3.402519177506174 0.8968516904991135 -2.9615773697213315 0.8181275970243328
Ni 3.2443569062969875 7.313779994792272 11.495847991969708 -2.251015987214452 -0.4833231713473741 3.64753226653344
Ni 8.094116196148764 8.440731665668205 7.226771526440694 -0.037658690893038374 2.2085997270317703 -0.45157441818086747
Ni 1.2838509669706313 2.356067511477309 10.33482577576136 0.04027170303585322 -0.5315691508379554 -0.506091061171509
Ni 6.423052136597529 9.384454220266033 8.799352379109378 -1.2477676770259543 -0.9755832401730619 -0.9343288615089651
Ni 1.2709978451348987 6.937558601623688 1.465770572573656 0.9346749319944742 -0.5249125647533863 -0.4911645217686638
Ni 7.967883834484723 8.055398609735551 9.614813621601318 2.0126536411173275 -0.5246654817395867 0.45297206985934246
Ni 4.650884918102369 1.7312810749583227 6.921777462315457 1.8218952700514108 -0.6254455265731422 -0.6509940644662079
Ni 5.803682439331546 4.896769513162627 8.270849878879327 0.3821934564838837 0.71804869202286 0.19056939498356212
Ni 5.894733917187425 8.37091901766688 6.062398749869663 -0.995478436435092 0.3207608030996992 -0.0527243269769092
P 3.0650926197813884 8.138622806299722 0.5916847615581127 -1.711217506488169 -0.917839348494374 0.39418996672412754
Ni 3.6720559365933303 2.117312164299869 11.777017710493853 -0.44477590720179533 1.935765315299705 -0.40086197942766444
P 6.452862816713279 6.3790108820524996 10.196373175885647 -0.022620051392361045 -0.06862171493345601 -0.260650468071364
Ni 7.976232314055072 6.3837947376814395 8.061276981749634 -0.7052654242152627 -2.0016251512173073 1.191358187887974
P 0.5037762954646704 4.863273216647927 3.112767370897504 -0.1397685102816109 -0.14158885131980134 -0.23292857667606337
P 6.940881240650015 6.337938596273291 1.0420549862640576 -0.11874922771746646 1.2001547031336814 -0.2604836034761966
P 3.3790028973162065 4.41981724553486 8.159449331087425 -0.03868764637818498 0.9638870347820561 -0.5300887096376871
Ni 5.283200808325271 6.261145614183045 12.421156425240962 1.166484821685062 0.3393606775890736 -0.32733999897911364
Ni 2.909496319383289 0.5433259377012826 2.160746595134768 -1.194271247769711 -0.3763966472964485 3.2996954331525563
Ni 1.0680655725017993 2.976237620385488 7.827361332873846 0.3170252473166669 0.6196091223970231 -0.3242528754133577
Ni 0.864395245877698 7.121513672647042 7.890607813275524 -0.5699683194414442 0.3132408405735702 0.48361781976965745
Ni 6.3888391924497 3.720164399134171 3.661103327052208 -1.1652247240257159 -1.0393658818466616 -0.05354579443694004
Ni 0.6473608369625552 9.256202215272264 0.9558646130677015 0.7776139531810027 -0.4299810082808079 -1.3041105745920574
Ni 5.343697037095915 1.6542368008408765 4.615276837847968 0.25180844429970184 -0.5065052658907921 -0.04112890882982594
Ni 2.5865023004207552 1.0100822640031655 6.236364497456166 -0.29402467265643556 -1.135223035457303 -0.9863556481982175
Ni 5.236386034368909 0.14399498514231326 2.5660527136738533 -0.29536601717567845 1.7245538185857587 -0.9776493786734711
Ni 8.111753173613437 4.643522992416587 1.5593666148827507 -0.48565233370118294 -1.2408516666324112 0.40014952674167215
Ni 0.9805880256994464 4.544141649214595 0.7051673103309362 0.6496951431491262 -0.4216390640740158 -1.1873120428430584
Ni 7.300750037826286 0.11180354574663522 0.9333041732923102 0.2821369200799141 0.04727641648846052 0.6976253911715018
Ni 1.6398480055055815 2.7206922429461646 2.375332302851518 1.0103311851772083 -0.6501070338755642 1.0808881694601644
Ni 3.4889198914364092 1.0126696411721254 13.871452993206299 0.8279075592292321 0.39053385802877905 -3.0470197557565526
Ni 6.783107076016172 1.4376230733934925 10.795341683387747 -0.4980946732295937 0.0019062158837773622 -0.3955585649368801
Ni 7.445764151745582 0.06280997684331936 4.366963086524765 0.5174769344109476 1.3177461630976208 0.1955187685690375
Ni 4.229030754216482 5.767701143881189 10.330834886084919 0.5830611480696605 -2.6870617136321013 -1.2908267129989575
Ni 6.051689055954834 4.196762996501432 10.738960128884717 0.9590980980338449 0.48638715498467844 1.0722068396360824
Ni 8.679859297330387 2.817514130315553 3.5684203124419445 0.008003329920450733 0.5430565826522648 -0.16109426834258062
Ni 4.386758383289732 6.425788427560385 6.9378787662805665 -0.3991372834270739 -0.19160580666787647 0.12650264641064018
Ni 6.6233318822768386 5.969162892799557 6.237631195415502 -0.3255489685169619 0.02390920251742979 -1.4105619587787772
Ni 7.662033516044579 5.61585560966687 3.691452888959623 0.442489939381096 0.19891879538952192 0.5615199315637749
Ni 3.8964224884354755 7.212230094466655 2.6304979501164043 0.7699752056888223 -1.5029123847877406 -1.3670367818026328
Ni 8.429302531986613 5.566918814147478 10.538391862729732 0.8680918447576017 0.8100939280865791 -1.0177390476055055
Ni 8.409115405801453 7.274801809239738 5.22195535702908 -3.602408120501293 2.8688255945088916 -1.333454317861497
P 0.6062783133600159 4.121924507956085 11.963024069028137 -0.26426569622644813 0.6514928584794973 -0.5430897498830454
Ni 2.9368220005633834 1.634840779185796 8.287032154719869 -0.5464874627106846 -0.19335158571438957 3.27777035094469
P 8.996859536088568 5.692611363308641 6.272367199264394 -0.47976527879278663 -2.80900990790284 2.0343954036697935
Ni 7.780038390595811 3.8201972401844624 5.724343962076874 1.1454259441322339 0.24619675453987921 0.43770820172173647
P 1.0895370801593192 0.05166471008134281 10.053247475015208 -2.4909091681338067 0.850185396790826 -0.867234638963629
P 5.182563004987272 5.517488741685802 4.2297222726468915 1.1887860562854236 0.115779089345549 -0.07043434266216256
P 2.8526670927873568 3.0821246349583546 0.3639257673487522 0.6169140920633635 1.0810846017416866 0.19733448162153758
Ni 1.2669585584754435 7.20662721297128 10.228997395994838 -1.2085303287918863 -0.20642024597288963 0.6316534551560671
Ni 8.628651566454066 1.1337737840588384 12.207400911925188 -1.1080971257747882 -0.7220791533384919 0.6804249681328152
Ni 0.9885269923365788 6.413112140854906 4.754355806369257 2.40994075870954 -0.9723932724808544 -1.8421151966427112
Ni 3.165674580446675 7.175504230046814 8.90612077719987 -0.27555695286955123 1.173484650041663 -1.5803689244040073
Ni 7.301029251189842 8.380989312979162 11.70051697172413 -1.6953910809788735 0.3295156664741938 0.5615983502101941
Ni 6.89415023070272 2.2207793297219087 1.9044640944156543 1.8811082900764569 0.594523383072989 1.6621053223425506
Ni 3.19506644051709 5.519052336521719 4.976556593221413 0.1453588598851948 0.7623629405592031 -0.34761083341300775
Ni 9.05116653530037 1.7585602205778246 6.305359050302268 -1.2494656335536676 -0.3608784970561914 -0.6770861335675694
Ni 3.492447286929344 5.743912165306147 0.4817686981491215 -0.6904602408816303 1.240962738288979 -0.9592500502306769
Ni 1.7779934706813794 5.343548123302019 6.863952374722839 0.8469782027074382 -0.7746355872789691 0.6246693105287501
Ni 7.26807276717802 3.3149885801647456 13.165388477267133 1.7195797624099354 -0.7134675004100809 -0.15310070861414277
Ni 1.0046096820774517 3.6141563921037636 5.2950096721813 -0.6695728559096598 0.4702521970960289 -0.9479659926764255
Ni 2.6649054129075114 4.798207195827067 2.4759710369007273 -0.7213422751724674 1.874192022572598 -0.19779316642551098
Ni 4.677140281388829 2.4354944062971065 2.1554750468308153 -1.274417675513315 0.6680934431506559 -0.6400190535119429
Ni 6.3124091877320785 2.189079305846091 8.446218208262096 2.207443244829824 1.9862890350808695 -0.22291233009064187
Ni 9.447463369308688 0.5731803612439901 2.927359459672443 -0.006274520154802097 0.4442627150108026 2.5881449472595297
Ni 0.5841050494487566 8.97291233660751 5.475690501161345 0.19119365883112233 0.5684940488887629 -1.5043650580738672
Ni 8.453864000867494 7.775012550051788 13.503157536717882 0.22284728118066138 -0.7394209870510492 0.7628722760954539
Ni 1.0453841402688666 0.08718623419304192 7.752849523963859 -0.13560769403570191 0.7109892140729175 1.3122545438554303
Ni 3.5586301612044298 3.4471774935846646 3.930013717493785 0.9469928301298789 -1.6350228643034617 0.6845672724359628
Ni 8.17477162976821 3.262999051870465 10.869526812662372 1.4561445325045825 -0.46943227229789475 -0.021981903587729886
Ni 5.051788772609376 5.129503158799357 1.9958264298162947 1.7138634287514483 -0.31213398066263665 0.3492594247600243
Ni 4.941620486461971 8.002320149323399 10.364998502538521 2.7734009004499782 0.976401108088667 -0.8294183394468039
Ni 0.9636304674194287 6.612563553555664 12.677833547513904 0.41138756154933664 -0.9384889064239256 -0.24553675235837713
Ni 8.586825404593254 7.548188920610343 2.566284460765606 -0.19960090905821107 0.48652496611412344 -0.20563117441269102
P 4.1923886538057085 8.49380081896824 4.329475900333626 0.21910298364688072 0.8841231871888515 0.5646340517127244
Ni 5.173414113774728 4.104911107003356 13.121430986731172 -1.8121423044297047 -0.7655793906139718 0.5707244808811784
P 1.911904199843232 1.7531993239975334 4.48314376710076 -1.1790163784931693 0.6942215076962754 -2.1522347179784806
Ni 9.183513669626304 2.156681248561381 1.1530776653039454 -1.5553052965671599 0.034833048518785166 -1.3020914872794995
P 5.003782688301839 0.5816247040691602 11.494948924939056 0.8499056607668782 -0.948590770744618 1.234908561675099
P 4.296060575694358 8.957946500320865 7.806996440847222 -0.46282479428370615 -0.9230599734633651 0.34267791488776467
P 6.773948877691509 1.1246621212947674 6.59380320765828 1.275180007600636 -0.3836980660538682 -1.0631503858607692
Ni 2.652163976417202 5.027916030025266 11.995185725665035 -0.10694992108969321 -1.336681309439227 -0.19407175170986576
