# total energy = -340868.90166632214 ev
CRYSTAL
PRIMVEC
9.25227510605933 0.00000000000000 0.00000000000000
0.00000000000000 9.25227510605933 0.00000000000000
0.00000000000000 0.00000000000000 13.54163985201773
PRIMCOORD
 96 1
Ni 8.590931702119914 7.138491056768663 9.870772081230685 -0.7817246329152666 0.7792028949346774 -0.49597634133501034
Ni 2.860692424958673 1.2995467997866033 8.15833695499145 0.1679359738547624 -1.3918582117216869 -0.46318706271913135
Ni 4.712507523792403 4.243158113940457 10.931827612624119 0.3086941017431522 0.14893012217622095 -0.050102315973029846
Ni 1.463765430039367 7.874083934092215 3.671992043058789 -0.05923744550507862 0.34705547513017004 0.5291913946343982
Ni 6.233368743301025 7.469352413343052 7.347274195133178 -1.1161588197370003 -2.3840006418050104 0.3291292296690525
Ni 6.709907170883908 1.152953753545982 2.9599591589785543 0.11984246078164522 1.5972551586363846 -0.11134959281928565
Ni 6.403370045473783 7.965117068525532 10.946844980293466 0.17596501480682597 -0.5880812269920711 -0.48241248660764663
Ni 3.629797042592975 5.18125553576467 2.0128703762393805 0.9707665355107088 0.13928977087297947 0.30967986269518927
Ni 7.69271158585598 9.075686149966725 5.941272568823263 -0.07815999344119443 -1.161367812173471 0.574208839885353
Ni 5.488847420533002 7.7969292122668845 5.254900869655195 -0.2135296033241613 0.9910260570906931 -0.2526965033316099
Ni 2.746315800518723 0.7243199053758382 5.199042109363065 1.0275169529278756 -0.03897560993224901 -1.2486945597155978
Ni 1.2120202776055709 6.742697233739043 8.287104568078375 1.022988983150535 -0.8535129185021624 -0.28701533121813794
Ni 5.321436755380402 6.276327056460278 12.287751300106882 -0.46935719608558524 0.3913324426706744 0.10906696743269603
Ni 1.8940147254370803 4.7953708993371515 0.34402641877432444 0.9582408922398722 -0.616395757666048 -1.1954626969746507
Ni 4.699073220387873 4.423161125466037 0.11731607223032098 0.6554734403938002 0.5850642945426181 -0.11825686146208018
Ni 1.3105107457469123 2.4785734644854553 0.3177610602999572 1.8869544644445888 0.16217798832506264 0.6382534769710879
Ni 6.8290579692610045 4.914614220464968 7.051754678878779 -2.834698828028512 1.0843514454184164 2.2532978412700935
Ni 5.152999087694811 1.1664065615006567 12.046534311477505 0.027774856120423134 -0.10602380973099805 -1.522038049873598
Ni 0.5405197601607133 0.5365560855198725 13.099478373315325 -0.4766563008501597 -1.4990968676963923 0.346857500186751
Ni 5.54302874335458 0.6328315590089794 0.8178890884063877 -0.9481760518047025 -1.3963172759343048 0.6139346977200651
Ni 3.5863020974795465 2.7727310458492567 12.442911953064167 -0.3742767727399683 1.2230287795183774 1.3737684440995115
Ni 2.235321900567747 4.781196413926862 10.031700602467849 -0.25331588208316375 1.179683322653207 -2.207561258464927
Ni 9.090119699079029 1.0333218368651418 10.791996129006106 1.5491004533080288 -0.3827231037351086 -0.11521138976753706
Ni 1.4385529804681922 8.526702408570154 6.243305686728343 -0.1710225831998861 -0.8734212273903151 0.34318210821769285
P 4.090162493350018 2.447744883945582 1.185283053102532 -0.2699938569594769 -0.14773173099274556 0.06179672159182261
P 0.6360004632211363 1.5004599529748823 8.811856601061402 0.22911537357756023 1.6403910705939106 0.299266123561033
P 1.3269797953750557 2.4299435067070716 4.0790939966813955 1.2548364109472776 1.7160126138839673 2.4809132332633594
P 7.5857922951240555 1.8159162715544064 4.8145536412439105 -1.6199993943114357 1.1657893382799343 0.7529077086835743
P 5.239008236764036 6.468478305155382 9.125562389197306 0.12580690589519625 -0.016429349200616866 0.03587177419594467
P 4.972209632788111 1.8864833735284798 9.723330601365962 -0.07625711999152673 -0.1837228043753739 -0.37688875644151865
P 8.266084324342318 4.525916892415566 5.862947434201325 1.3304834081586312 -0.2604530073485773 -2.3474313273214085
P 7.872696092831417 0.9009125283098823 1.0924808836754505 -0.4260811590057694 0.654265536128628 -1.3767298407206807
Ni 6.310486456026068 2.781872293620384 0.7577789077186784 1.1029618614307521 0.37805860837990374 0.5247989219936575
Ni 0.1527661641686535 7.429058755404532 0.4522003180060114 0.8113216298460931 0.013341711414228637 -0.3826169171745475
Ni 0.18366783768159536 8.768492113026488 8.139879591450336 -0.7994310490560941 0.8654544071347547 0.3294431613650455
Ni 8.196238899823861 3.2197084545771295 10.590835014845899 -0.2335279008229591 0.9852271910207291 -0.0016586186493455306
Ni 7.202600070742488 5.998712542925196 4.671933521919202 -0.6934257512678573 -0.1595937725376542 0.11688260682237288
Ni 5.54344509573282 1.185077652595934 5.283853088810468 0.1407830675890543 0.3479551041263039 -2.8674927346300807
Ni 5.99733395393947 3.465763457841651 4.869275296929692 1.211860421606384 0.5844199760903999 0.446320883091412
Ni 4.25446439407843 7.5941285949639195 0.8564211131712004 0.4419230111340325 -0.2613444088145951 1.0584280406844353
Ni 7.168237121125114 7.270872608498706 0.31447372696687886 -2.2699269651863423 0.22731868668845367 -0.764772064221328
Ni 2.6231772715855985 5.70755269868472 4.2502064970903 -0.7292448178489958 0.10893764094368336 0.5920589806928965
Ni 4.79814658185875 5.393650762317289 6.009333229480334 -0.7757180217098705 0.7657709377994877 -0.2816391545078891
Ni 6.342591850525876 3.30332126440271 8.73331496320278 -0.49186334760790124 -0.1176721926032038 0.7383040998377866
Ni 4.8456292575282065 0.09423349638071848 6.905315220404353 -1.4246906848706753 -0.47154417643457497 2.6220061187833488
Ni 7.210862352381775 0.20303655031730078 12.591151904267603 1.6322219045195567 0.3728456967203965 0.5302257494361835
Ni 3.0929707906410004 2.8110724737475867 6.027085569660963 0.27231196356969234 0.8055021949508384 0.26717258546059797
Ni 7.368012244479537 3.748096631663449 2.8472655233741997 -0.3129999282073577 0.3647138116418816 -0.5093519913109679
Ni 4.518348531406677 0.1578650929608276 3.1193712323314187 -1.0761182588753466 -0.9225876618126369 0.20284872657154743
Ni 4.069372631263255 2.427954267566594 3.4678785279231086 0.2770448502689874 0.030288366570896227 0.03499939889332037
Ni 8.685230889653644 3.6592932955224815 7.920003900502012 -0.958758198195923 -0.60069171666723 0.406951380154854
Ni 1.6389387539773674 3.4610355452798642 8.190105566678637 1.4886139658871975 0.4894010021103377 -0.04222625565906276
Ni 1.7295555360324448 8.224504600168792 11.163498103834216 -2.0739718804108347 2.1695187018699085 -0.0076006951653933615
Ni 8.642078278717879 8.646334325250994 2.38984229609005 2.0575738986687853 1.2189430394847782 -0.7040078976590779
Ni 7.909668184019091 6.3441462327379705 2.281956142613102 -0.31450350933607774 -0.8104739371338172 0.791872777092862
Ni 2.3438510871621983 7.038871811068539 12.90669982037034 0.6557248942829739 0.26621844907744474 1.5402244909746376
P 2.0996557911871463 8.240631315619272 1.3268706185292063 -0.4243279237600886 1.1874740223422193 0.42730757521370283
P 2.426575678580867 8.512675959561015 9.23430160243589 0.8008785801358981 0.09073474478241148 -2.312376906820437
P 2.7640431595566577 4.967944333979923 6.852218264221212 -1.3662052870402728 1.2689525386336855 -0.2906261884978479
P 4.3433880097953335 4.5283502407595 4.060434008316205 0.31590964565498497 -0.486936085509613 -0.9693388019252467
P 4.565081772795303 8.368192432036809 12.386876474318163 0.8290239322218625 -0.9411438275482694 -0.6229145326211724
P 8.409300290181664 7.769995839532319 4.2957193633969295 0.536136972714296 -0.5367460670532046 0.9527868111038366
P 0.09264303029584327 5.201221945370026 9.315673511239034 -0.11962237435103915 -1.4820764218789961 1.0551300866594537
P 7.249074248429097 8.837504832788467 8.360365007325905 0.9526765107782172 1.8599290848956807 1.4064615634571584
Ni 6.730289932867503 5.32510065630891 10.250235638758241 0.7351367578533985 0.723613073484515 -0.3050634469691004
Ni 6.840484528974914 1.1255762716079614 10.162594388366315 0.5115983641429834 -0.7579804952207914 -0.7290298736247122
Ni 0.9832300196253839 4.089477824994691 5.761385210736083 2.1095335795655283 -1.229568123298792 0.36853035717449434
Ni 1.0442395214500908 4.0424022494284015 11.873539898318956 -0.029137540795904658 -1.9898777808733925 -1.0062446738126605
Ni 6.512084277569675 8.145897271157159 3.0035355241126163 -0.30268440521396256 -0.7489258412176909 -0.09003566183285784
Ni 9.2212706982245 2.16836318587175 2.3952317463194843 -1.548106464825876 0.5662494758289602 -0.9963425842076002
Ni 3.402126309896499 7.307113769955695 7.418096659899238 0.6747389734916315 -0.30799887544834054 -0.2429733625065751
Ni 0.8040809930889489 1.8210327796692174 6.692982909322223 -0.6126748571710352 -1.203166750487128 -0.6129615351735185
Ni 2.185849985757812 3.4675121378302576 2.4795421776854925 -0.6751349233784695 0.29434091834527376 -0.7686413173687472
Ni 3.4744605964093225 6.9775014705160245 10.564293938574385 1.9880746662263824 -0.5267239069305122 -0.4999628367865842
Ni 1.5688990316823976 6.220711631002542 1.975941770744544 1.4484471638603247 2.031417551988392 2.154964201094501
Ni 4.7371463323091145 8.943822725640713 9.444765879180986 -0.4815748211976996 -0.12157101343697774 -0.42288167823186523
Ni 3.1196636042236934 2.5892306743464646 10.072339370266553 -1.5597846724947524 0.45479163956658447 0.7243417241204234
Ni 4.218621080449537 4.55274849012434 8.356410584960136 0.23574059220356172 -0.09532107860151326 0.46367120144440144
Ni 7.285741014539396 4.795611458489025 12.62248750948142 -2.822633155113229 2.634943395670307 -1.0679421508224574
Ni 0.07829830302422884 4.856019562434052 3.7345809082382844 0.4589378005244741 -0.33259944760584004 -0.6175005606944527
Ni 4.83760753504079 6.6858975170720925 3.412736818949058 -1.2201835967600987 -0.8654333240888321 0.139488774257663
Ni 9.207160978739713 6.045806623041629 12.0389511468285 -0.22961519603211422 0.5372435755149134 -0.3353021912489838
Ni 0.06412474284144622 0.858027308123698 4.557560598389282 1.2310308238872476 -2.4085161104478714 -0.547961733263366
Ni 8.623333169422025 3.4817513891660514 13.439684527712425 0.9656580106395498 -1.6933272564713095 2.1215439737628428
Ni 1.8348926877270595 0.7851998753495373 2.812232709041614 1.5395377493202582 -0.7501846533254564 -1.4155776668258138
Ni 7.057219072536296 1.6139946203832805 7.279890801011375 0.25476135628043867 0.11119995461529882 0.0828910803682766
Ni 0.6580264292575174 6.418247703789544 5.522808821412252 -0.9672518374892308 0.5643062360596603 0.3828614290851858
Ni 3.044128030535961 0.4576258521082268 13.180999243747127 -0.22215282621679802 -0.4688216352970893 1.0947932095770307
P 5.062761648917685 2.7190123367812786 6.86337743318554 0.8146396384757325 -0.015043781706999899 0.7807766671797005
P 8.90658231847595 8.25554598303532 11.722198584511391 -1.7498272484405673 -0.8994898994529089 1.1237260905612971
P 1.9219010825040603 1.7878356167109144 11.781470509077579 -2.5037281742753463 -0.6946650229915972 -0.3988022686851584
P 6.519800674979715 2.853595929978456 12.128108845104725 0.5419157841796022 0.5101318068997859 -1.0943057284176507
P 2.866475096878667 5.277775269315677 11.903087963988868 1.5733271870658776 -1.0153376372528644 1.2256803582086118
P 5.7648612904806305 5.929903373214801 1.6392699854249448 0.6434059677063049 0.18212409242968636 -1.5103444155857537
P 0.06290529298695784 4.9975701187604376 1.4955118362663817 -2.116804916415961 -2.7883256400806107 -1.0475800422263377
P 3.2875461354049658 7.741933689238971 5.0046518101005395 0.20932944919988467 0.7875754352690887 0.3582719126712797
