# total energy = -340896.0376581915 ev
CRYSTAL
PRIMVEC
9.03520649705337 0.00000000000000 0.00000000000000
0.00000000000000 9.03520649705337 0.00000000000000
0.00000000000000 0.00000000000000 13.22393800111288
PRIMCOORD
 96 1
Ni 6.274399822989249 2.120581055002992 11.430784990671516 1.1925856325371718 -0.11939868837600726 -0.51059177725534
Ni 4.373654379311588 0.5047030255389606 6.172695923629483 0.3227032715380507 -0.6649680101477967 -0.9315708391478538
Ni 2.7968753028067135 1.6962787187468222 4.71847309975295 0.09832464131452745 -1.0498215299623468 0.3604596643512179
Ni 3.3635544243682363 4.207659564003175 4.940939763234705 0.425426556140906 0.658706345508801 -0.4201282838564442
Ni 4.99369543094123 4.640870613948334 2.607588628452821 -0.43458328293950965 -0.48891197828906113 -0.7656395544279458
Ni 7.3322689151270035 5.803096342098072 2.6202442423110015 -1.082489709619329 1.2374927774625075 -0.29826699287255726
Ni 5.215762738292098 4.323545123612674 11.51506178357761 0.1300181157630664 1.0912785115555528 -0.042958248729080856
Ni 5.522950726843737 7.661439561290518 12.612503273499371 0.4874878442480249 0.8022242955305152 -0.8448009925504613
Ni 1.9531135010218565 6.407461310309464 0.3264221363215358 -0.2729737655234073 1.2806577428857557 0.23362663118435248
Ni 2.6379369838381588 1.7425841524750836 0.3281767734395901 0.8556621036346812 -0.7812438366241062 0.541901386001899
Ni 0.6135682296349251 -0.13507182078451493 4.600568171472572 -0.011531654788683366 0.45306951466915524 0.20248362992264482
Ni 8.527861661180834 2.315027735835364 1.441964759107922 0.8105202169907202 0.4256422716961379 -0.0572695231454304
Ni 6.855752120038518 0.6104149425381127 4.957588034881084 -0.5123882070341305 -0.06474320581465624 -0.8789172175078799
Ni 0.8071204250157658 7.36230194180266 2.273393503909544 -0.1748008192953957 -0.30989017893378246 0.8411410272003709
Ni 7.6415892124317875 3.680708245778855 3.805572090168016 -0.22293161336435155 0.20373575716219106 0.1580832494303987
Ni 7.728507899742202 3.835734320297783 12.65528226609902 0.06983836094937651 -0.005315498675642458 -0.11648897092838004
Ni 7.678949791644736 -0.2454874663298003 7.116818993076151 0.4180171510507123 -1.091778591120423 -0.26839463079315706
Ni 6.881791585405318 0.6449944851653909 0.3217012408828984 0.5752272538475384 -0.00297296658539488 -0.03378146732581924
Ni 1.6752989690654523 6.737354772999467 9.202881944856617 0.8359124318115796 -0.7226743637203297 -0.25827476875033584
Ni 9.253497172124073 4.819135239793912 1.4015791927316132 -0.4634297748575567 -0.2723518156686922 0.0032164500547686545
Ni 6.3589241805556656 1.7555587091255778 7.036999267576526 0.2868057863104932 1.4029368381333516 -0.2551022845596252
Ni 3.377631276221628 4.3291559868995515 0.36904210928535636 1.5730685340878523 -0.6249127939981237 -0.3829491037029856
Ni 5.777183369623407 5.363931091015953 4.692950448202591 0.8304861185896859 0.23134272024618222 1.67607258315592
Ni 5.344171094223035 3.0232433684901965 9.144882243250406 -0.018480575302690757 -0.6276990984940092 0.9226234001465787
P 9.244733021740384 5.669086158086839 12.488528493437792 -0.5391240803670779 -0.4478568601199642 -0.3368867621272843
P 3.882645112866979 6.0643854812176 12.548644240425302 1.3525149340373739 0.8701667250087596 -0.3956935478528476
P 2.5102424092271316 8.547558411527683 1.383740080857842 0.022712096885535077 -0.28609693316892665 -0.2181190224670566
P 6.103670559432328 7.689701687476274 5.964141671241345 0.48530677743630607 0.260728372497151 -0.8479511081436686
P 4.883998987839803 0.9842773345344987 12.554528870471588 -0.6216948012814583 -0.07666284007037764 0.11907138694357558
P 4.01382727721832 6.108703169498014 8.139003536821756 -0.2355241053173815 0.7685873242023602 0.3132853206582605
P 4.823987145727976 0.9733266641581764 3.6618535766853655 -0.16602924375035277 -1.3845894459744155 1.157029332699117
P 0.13172066266357602 5.692144005281868 3.6309495560952887 1.2712714165748493 -0.03245889185965378 -0.21971747730242808
Ni 1.5500077594050041 1.026589206953903 2.66458361508721 -0.30360820257981264 0.8153541480442539 -0.5670614302072944
Ni 1.874597555831888 6.4160808973878565 5.025546341181009 0.1847445607716689 0.6782724405661867 -1.7768402866943012
Ni 6.030268541167275 5.677597322686258 9.11113484314925 0.33614268487240817 0.01719245261888652 0.45763733654549577
Ni 8.536137910409144 2.2780918113317288 9.968363620343272 1.0055008536681005 0.7262587386374783 1.7602967805133234
Ni 2.2142400064229246 5.328757031795637 7.141733575223601 0.2919932440487036 -0.5790530553515317 -0.19594762857633996
Ni 0.666262457936699 9.08580373797841 9.27238707852323 -0.28909895322004403 -0.4298362551728274 -0.21975527251889895
Ni 1.491766817783078 0.9162693345983776 11.447645589672552 -0.4205746273652434 1.4470127454066433 0.09427283984265701
Ni 4.1246260155226455 6.833679110360832 1.4747734012452998 -0.04374500629643434 0.38517722170255597 0.8770822211816701
Ni 5.4448413659499195 8.092708041820734 8.113520640180353 0.7774514594612094 -0.8743997892535006 0.019205626394173374
Ni 5.311075132516377 2.7449319001718306 4.862309974441814 0.019578179242243702 0.29770546394213243 0.17525436189304655
Ni 0.6333038313700744 7.5015164048046215 6.889975675526499 0.4175834059474034 -0.0029043181309885467 0.162338682272643
Ni 5.158091014684783 4.475318523762397 7.233243050997883 0.39041610150399214 0.1908768989216519 -1.3272073085105207
Ni 8.134044111929377 7.237625126189728 9.123009815158822 0.2833988175114732 0.17647332190181222 0.18767716103743162
Ni 4.668292465922045 0.35663406008749865 10.34725591184337 -0.964508470416139 -0.7973461415026075 0.47269551643019886
Ni 7.982785718554777 7.310566348919143 4.753252320445672 -0.35520535793081404 -0.9364073413045486 0.006874358522330096
Ni 7.433634897760634 6.213123051956065 6.965458501867185 -0.9492854828187974 -0.9186800992281147 -0.26867179571394373
Ni 2.352596124799678 5.232233919889488 2.51564275220067 0.0930867899543558 0.8030143955319783 1.394582038410753
Ni 2.1626309064315437 5.377276091136273 11.364692454530594 0.382044075390213 -0.030537506467224824 -0.6022037824363822
Ni 1.0670127211978524 3.2285142268067553 3.7580975007081574 0.14650608611576058 0.8227753802089894 -0.8004695176229375
Ni 3.80516821643384 2.506519904115709 2.6038724479860047 -0.4099240896299327 0.7249788434837902 -0.6763847366251706
Ni 1.167954049122171 3.2409557062689633 8.113480885271397 -1.30354390345531 0.8053998650450195 -0.19910982835440547
Ni 3.518752167812205 2.839982273405256 7.136654885604351 -0.34165281605736 -0.3385314968195589 -0.24399511890287012
Ni 4.060250168632136 6.895967824531102 6.00707968347682 0.21285083208958183 0.2419788598037897 0.09122094039021064
Ni 0.6882279486560698 7.5402051593849935 11.285837689093833 0.23283781673447 -0.44868501244821435 0.3653635294107385
P 0.18336680700193955 5.577658902692444 7.979575509656504 0.3440105176562592 -0.3184640366457225 -0.025600988397555913
P 8.538586451392627 1.4080646640155443 8.061445323529387 -0.19448801331167795 1.3500726431444685 -1.1977458365818727
P 1.7856549822473022 3.3268895560620346 10.292931732274361 0.22485531274962564 0.012224824200966043 0.5015782609028201
P 3.872968406618595 6.135058867095153 3.8704882424120766 -0.05130199270808584 0.19428052528656217 -0.6037181621983796
P 7.1169689775053975 3.966428583493743 10.3468583627538 -1.116959718371741 0.7857970032124273 0.6107601566468256
P 6.332306461967674 7.633204540724505 10.240683843177695 -0.7470815889201003 1.4111985639215114 0.10906439632953474
P 2.3345528172571735 8.553738492829172 5.78040803485221 0.8551453118992628 -0.6672339233638379 0.16621976249460405
P 6.861155173574031 3.8792478751924766 1.625407461845143 0.4192451099205425 0.0838812121956878 -0.35764739171340343
Ni 5.281448690136871 2.8068230652525306 0.49261030505078407 -0.013408302986105942 0.0908131634288307 -0.06208931313157694
Ni 1.4535930699778286 1.0106059265118945 7.067216612466438 -0.09970352393992507 0.44487438045287253 -0.7486746444388331
Ni 6.756120897068462 0.7660906484102231 9.287858966272747 -0.13299879565794515 0.05207100966362646 -0.8075495643981706
Ni 2.606078845433115 1.6211600112313564 9.175746508931526 0.9419164440482359 -0.6686742553547903 0.5643432599451829
Ni 6.482652299477579 1.817097501149614 2.6041769344477887 -0.46597953786260393 0.3959833111791245 -0.09673132868547857
Ni 4.243348629998616 6.68151719632812 10.450323223876227 -0.4479972423525704 1.1111839922302282 0.025293484459466116
Ni 8.178795490125683 7.500450250428048 13.156615159583222 -0.8679563476210018 -0.7012118229711795 0.9220958097778829
Ni 7.4568192378477995 3.745075057462783 8.17669119051294 1.524451544411097 0.2659837073588193 -0.5587266850893539
Ni 3.2265716573918137 8.562186410982523 12.45356405101016 -0.004619501049882366 -0.7354031241409077 0.04969325346006925
Ni 0.17634012684379935 4.889736344018816 10.07410173944151 -0.7146833750950531 -0.6523762895257151 0.15673367738103974
Ni 8.71366164931507 2.434202110640391 5.739717982014119 -0.4995275490213784 -0.8745034047109003 1.108877969804871
Ni 3.614751237736649 2.5917761134151958 11.356506557368094 -0.2702185713757733 -0.14152508796140142 0.2858418797353271
Ni 1.2310559318847418 3.51332200865695 12.592640275351428 -0.9150841543467402 -0.5808214601058642 -0.5098572130821606
Ni 3.1348552753868226 8.303725291522888 7.998763577872838 -1.0339871340332514 0.15848742684735287 0.1688623423237737
Ni 5.659879282580674 7.655214303956123 3.6183870048648936 -0.33330547253392917 0.5844109772293354 0.13547502511257958
Ni 3.154615272179741 8.361252451824905 3.5409742583984802 0.3964327400117173 -0.37014038197409155 0.5473215285762058
Ni 3.5852241826295352 4.483115907041906 9.52431664714537 -0.8152322777544089 -0.22052506080538792 -0.4483214584612085
Ni 7.298097763837193 6.092575325750707 11.312417459814183 0.28638078295793257 -1.2133501187780331 0.7305913045745611
Ni 0.5746436561627843 0.14738409679261277 0.5470356789335014 0.16364763089205364 0.36772303078185054 -0.41721908062944923
Ni 4.751822950764538 0.20050207628304145 1.4335936402105103 -0.5916013243301875 0.1097663074925658 0.5868005605074346
Ni 5.922830899711129 5.57666502996852 0.4271936023621292 0.6357188834746923 -0.7208699635217392 0.09051954344781185
Ni 7.883524939054548 9.109927739550011 11.176423144437736 0.2568429213998157 -0.5631016742285979 0.7124174618790118
Ni 0.09112367245326915 4.9200765677182305 5.627354345929943 -0.3984374291465719 -0.5635480177373972 0.9184016487557473
Ni 7.9525539173343365 8.863022649307633 2.6973263002165457 0.25073706561239395 -0.7302269792566068 -0.4826742249094655
P 8.555084738609759 1.602565556087403 3.6735568797698956 -0.041660870073895996 0.2079755062751515 -0.014894143503013059
P 1.9662868322171356 3.38608822958156 1.5711754413832615 -1.487763444961444 -1.7863217438221752 0.7774452888136224
P 4.630814429023543 1.216138805819306 8.233435901925032 -0.19839660433746475 -0.6129255397292606 0.3616518848871062
P 8.656486862069716 1.6888517789371384 12.454556116692766 -0.43260404772595173 0.23847084665053123 0.19127490569101896
P 6.551780665029759 7.6411916633422186 1.5455479814365614 -0.8864940014138731 -0.39197547557131207 -1.3013214418826944
P 1.7242788239417262 3.2109768908327934 5.87445640367579 0.0784988648378519 0.3488961278833346 1.1919508271666504
P 6.926723667733248 3.8095412564191036 6.04207032800354 -0.3916322332992804 0.6028797254574843 -1.0060631539294738
P 2.5501328462827946 8.426233657556349 10.266021272993141 0.09434457362085688 0.28791290333174285 0.09327319493354903
