# total energy = -340854.72363531165 ev
CRYSTAL
PRIMVEC
9.42792434860338 0.00000000000000 0.00000000000000

0.00000000000000 9.42792434860338 0.00000000000000

0.00000000000000 0.00000000000000 13.79872027337887

PRIMCOORD
 96 1
Ni 1.2789073637747754 1.115559146771128 13.296529779417957 0.8044518993094533 1.2693891119504719 1.163657379538596
Ni 1.077800309815131 5.763931243973557 11.256167621709505 0.019862029031249666 0.4953826736150694 -0.8061182312682827
Ni 4.859831012080347 1.463270424117978 8.66359590831177 0.8817225481671589 0.24616101620593733 -2.0875902425252173
Ni 8.512586015883482 1.242129030949471 13.397467022918155 -1.1401952918609137 1.3812688662416148 -1.292269101872439
Ni 6.146940670025339 1.2198979853708838 2.402550012869517 -0.1697131203598432 -0.15513547965598443 -0.2767604862593492
Ni 3.448960991408419 0.8724827448481086 12.716445622644004 0.9444083572321542 1.5843765029015036 -1.3598227805526968
Ni 9.474686838276892 8.57224592106639 0.08864700133894114 0.5346040810095373 0.006082972969286298 0.21517665200928102
Ni 8.347635051743124 6.341966712789823 8.35437978881137 -0.368247792937069 -0.7565615033860776 -0.4217627341360736
Ni 1.1774063303994282 7.628972663567146 9.507097213758446 1.2800669033792922 2.0873323608781402 2.9874935753664618
Ni 1.4334687552995242 8.915148957003113 11.733411037060309 -1.4173627837506944 -0.1436642457915913 -1.1411139470204412
Ni 4.079330868200401 0.9068333871575159 5.433853013507806 1.0151689728854838 -0.6067394655232067 0.6268408642587721
Ni 6.534494355605908 6.769805919047789 10.179122488633492 -0.31193831971206276 0.22292878515087414 -0.6479920444150905
Ni 5.737636763007195 1.4353920518635748 10.863635992080805 -0.38161367272101376 1.4860891425828149 -0.18237863164265364
Ni 6.266703592834834 6.6745933112029405 12.495527671282202 1.363512313589142 -0.09751165849492884 0.4281143873857143
Ni 0.010371659559373912 9.374845119584252 4.339904554894115 2.1267522574366597 -2.068790079099579 -1.9391961953581247
Ni 1.6646508878832962 3.428870084653555 1.7119102441902445 0.5137364935319088 0.0948474813992044 -0.0826509393330125
Ni 0.45514530350532023 2.115333954801532 11.257119842067198 1.1307819689668137 -0.0076567452143093935 0.809176301368316
Ni 2.058474143145697 1.326433530340364 3.5686390628989133 -1.2082567634155257 -0.822152916133642 -0.043923697966143704
Ni 6.096086446169996 6.395573890550572 6.2316816823128764 3.149813745696343 1.6823172785140508 -0.4538051072835991
Ni 2.5348765876459454 5.960446898782747 3.8120067876838406 1.0166036484494814 -1.089151437910221 -0.06912745092528094
Ni 8.012349778667936 2.144070268170291 9.741827074268945 1.0105322454444208 -2.485240914104436 1.215598034271945
Ni 8.284420819086456 5.180776412244155 -0.12477103621549517 -0.720975635861668 -2.6940504862451085 2.5662838855203804
Ni 4.860057282264352 4.132164956165796 13.276038185878916 1.1977898024459308 0.31601171845048803 0.029713467904032693
Ni 2.9624989516442386 3.3228436475980887 5.007513790011313 -0.699419249847131 0.06494632296439783 -2.0017416221905138
P 2.734267759376878 2.718221432161121 11.130516960153686 -0.23356775292195903 -0.5090131199143105 1.2057800197402588
P 6.5157610699550785 3.8166123287207956 0.8695912004549989 -0.14262731988664468 0.042005140787192176 0.04388693119093732
P 2.9871812575495573 4.535849820281124 7.878724035918341 0.6386550832848807 -0.04074684290005885 -0.7833272015156961
P 6.5705467382575256 9.051184477212372 10.503807003588003 -0.09355035985433567 -1.438172521407194 1.1557885183134804
P 7.590714146621469 2.0377421375361493 7.643828243939571 -1.2796454995711575 0.21565127765285444 -0.44621366808958635
P 4.850601074157769 5.458805900841498 10.103188100465955 2.25932964928647 -0.2658826630045808 1.277370844604368
P 4.765976025339534 4.195407472595466 3.8228800128177607 -0.36283587789287836 1.3397455501868474 -0.06002831683749017
P 3.2269805129742233 7.9607790325632415 11.52793414017205 0.7395721679169327 -0.8567928748050149 0.9955838516647049
Ni 4.252729252543646 9.290748034528699 10.166510754252462 -0.8244370841821284 -1.4819242125718477 -0.23196724120405857
Ni 8.032007000903455 5.434114167011847 11.394100040294681 1.2626762187066707 -0.15293641512213663 -1.131536073524019
Ni 7.087998365306191 3.8804959440051494 8.908909556679149 0.33599201822715685 2.3642067470075347 -2.686738783075044
Ni 1.6957913219571186 7.308394952452346 5.662926119418157 -0.16169153560694732 0.6754719950029141 -0.6164451228467448
Ni 2.516199869541119 3.3739901371077727 13.367013884528253 2.7769999306551463 -1.1164930631479675 -0.08728998076692064
Ni 6.7699944775344605 8.386789221500493 4.707060926178978 -0.49039704747501994 1.0028451612128082 -0.5658473552945352
Ni 8.706565559046936 3.511694399924076 4.668479974221093 1.8608719084249241 0.24174488941611272 1.442625414972225
Ni 3.8293494544954654 4.5475781581521 1.717333186266921 -0.637123734242019 0.043463470500273535 0.8078120740309377
Ni 8.713249957399448 7.8404787180667315 5.966870143631216 -0.12814532422038574 1.1216769213417521 1.8262383775114546
Ni 9.40578756724707 3.928898907533761 7.080896309905704 -1.834741015665827 -0.5535700805890789 1.4336687199995697
Ni 7.446589467333995 8.626758179563163 8.7089102838287 0.4582171203083657 0.49457071923673535 -1.9107150571992961
Ni 6.380517495389841 0.07442026351956542 6.552957059828362 -0.14953330297785858 1.4521716638997635 1.9484105148675412
Ni 0.5822195816355096 3.925278584589665 12.704868131562366 -1.0777290550058922 1.3430044234437775 0.2034264534518884
Ni 6.509764910078921 3.0506877558605674 4.278444858955925 -0.7731080948908492 -2.4956834495939986 -0.3154170222892826
Ni 5.32216699347489 5.219534609179513 7.939549232548881 -1.3102994770115886 -2.9738099072317814 0.978256673240167
Ni 5.327192077144689 7.305462867984601 8.233393121423376 -0.6105261862591485 3.0320196828032944 0.5140221430931277
Ni 5.278600555129406 6.5342115178758995 3.9074937481267953 -0.6040254090261533 0.15194576907409316 0.42051934864727586
Ni 1.9573030871220252 0.3741386920463142 5.982159408522987 -0.9526070909928627 0.29716116140288823 1.1497657091581681
Ni 2.4741796107863423 8.51984551762034 0.05263421596952338 1.0867086327966833 -0.848871563075409 0.7842612832941913
Ni 1.2883635718813586 6.2249755997344 7.948297403538011 -1.7937877131819169 -2.139207709591193 -1.3220625310847876
Ni 8.357902061342395 5.343078129646776 2.3550417593601627 -0.011959743465037469 -0.527429417637969 -0.7819830287829758
Ni 4.073372420021577 5.665541425628292 5.809068374513016 -2.069282188244649 0.06528339458884241 -0.2077173675177584
Ni 4.210322448891193 2.060331444239413 3.4383649472499065 1.3796804387085722 1.3748940730635224 1.4233549967783874
Ni 2.9453872689787866 7.655898815463857 7.431769713074037 2.0607237571516768 2.380826872062719 0.6317046201089767
P 8.176169391888264 3.2699058524650235 11.805784498207053 -1.0970192706940718 -1.0508345446078935 0.9137335538561168
P 4.830076482883561 8.080164838399394 5.693614013123967 -1.1379386346162532 0.5631839495297591 0.8953355109649033
P 0.08192677687396366 4.458210863394073 9.447294004125668 -0.5471135263304577 0.6564543162498307 -0.21457321409732721
P 7.725014928753349 0.9716041701216597 3.9514156192196555 -1.704181425576994 1.8636101332916937 -0.2439454966118573
P 2.2220863420306847 5.5569317373054234 -0.03614571910252126 0.3049480044371587 -0.1524641034714084 0.014237997976252897
P 0.16004655790202676 8.487828286583495 7.9568108192112375 -0.6374824031330182 0.6309942243055133 -0.6589158904164458
P 7.65640792337787 7.363001490192454 3.2557394533613833 0.9854544765401868 -2.419972431913929 -2.564546848224616
P 8.438435390999857 7.030393747628004 13.05685968655666 -0.4408819714640278 1.5261962950163457 -1.8828525264610732
Ni 4.304988237124693 2.479694946521488 1.1597685695561626 1.2308673017261897 -0.3508270263574603 -2.3836915952050237
Ni 0.9062582837731673 0.9591875937743318 9.520496179821333 -0.30077381845481105 -3.194651213726008 -1.048286581375059
Ni 3.3913846575032323 4.872992394450027 11.638185230121394 -0.52808684871631 0.3244976444343121 -0.5396331587930125
Ni 0.18901856937912523 6.549814732647979 4.128301392773894 -0.9826350048135207 -0.24868841061348135 -0.8021510190904185
Ni 5.3962516228881805 7.968604209760115 1.1513550898808735 0.8234065860350851 1.3735123622246472 0.4222396737724922
Ni 8.29480096377773 0.4442673644092329 1.7867274233242536 1.605270058521061 -0.650454389912654 1.8975849475752418
Ni 4.074560338487608 3.4821755688356295 9.487517300502462 -0.3378054172868118 -0.07207110693463718 0.5382792158682793
Ni 0.8709365652574012 6.501977444579382 1.4946776684504406 0.6281133032132924 0.11806994226225473 -0.49919664804452096
Ni 6.944599636192405 4.187610579171594 6.510650192173844 1.0001303333848066 -1.0844432338012742 0.13969317695898523
Ni 5.454431343950717 9.00704293548254 12.632824647767295 -0.013790368915873024 -0.6673604216393733 -0.8342939223715502
Ni 7.1124449731031705 5.205232447965469 4.29741855667726 0.34651528635598383 1.42600734679957 0.6503772568178153
Ni 4.65916707056438 3.441607210428225 6.318599602329039 1.4076298727336467 -0.958849986578781 1.4414607052401627
Ni 3.0674883170230114 6.141745883717535 9.373774107379958 -0.11837333243528644 0.3599973800028187 0.5880714568000582
Ni 8.868914416071224 1.1832987831079174 6.09537746626011 -0.5461429348870723 1.15871469082134 0.76778308313351
Ni 6.306423438052217 3.7959840302789174 10.91031647383367 -1.888248500665664 0.06035484693897347 1.9895365954838897
Ni 4.309853046080822 6.580502626353789 13.482163723961326 -1.840961542654242 -0.35802020167178983 -1.8728167394916262
Ni 3.461179581344742 6.7569839419541164 1.6881763874728843 -1.5042051354572352 1.3796719540681401 1.6951375702071707
Ni 8.646104280295674 7.73141648937585 10.645850939975054 -0.3408264635013227 0.44405162744126103 1.3462224161604428
Ni 1.7652656963712867 2.452947925187115 8.210127832545393 0.8846173532164507 2.1706523012537198 -1.3409128310220713
Ni 6.178345085980501 2.0231194268947634 12.963125377247318 0.18013225881063816 0.8399490637747986 1.7552255366380027
Ni 8.933175148328923 2.700223524608312 2.5483754897067685 -1.2812508963850644 0.5307715946373246 0.14367658708676545
Ni 5.804565597851296 5.730339549573004 1.9151659221055122 1.3015620971385906 -0.6882277520066857 -1.4998627993281395
Ni 4.084478514886537 8.451719336385874 3.5584550190337776 0.7601006268875876 1.738848637941876 -0.46638037284544837
Ni 1.7650488541116143 4.947982104599341 6.2016829698758515 0.432212725824804 -0.28038677015802677 -2.0341719748050773
P 8.580608489950277 5.784088146198756 6.089637745925826 -0.3169077479021961 -1.8730070011255613 0.09540052568919698
P 2.8968334586608377 0.5868326650119313 8.280791068218027 0.28103777347846437 -1.0444047298221497 -0.10454336853072961
P 2.074077357917776 8.08970589782498 3.4895170935141904 -2.414440960572738 -0.5079733657958865 0.20814082820842217
P 6.799013628633227 0.12028240144027662 0.4189694150449315 -1.190540319972369 0.3562685090880058 -0.4962362798646164
P 1.22088791742591 2.574275883435986 5.825571013266518 -1.1498700959465162 -0.9654705772190921 0.4463298819524764
P 3.5507354345894404 0.7671539741933269 1.9838700351016267 -0.3094998854738993 -2.582093598859127 -0.9279702662807889
P 0.9405928986112074 4.5074811959613745 3.320054867580215 -1.4929149072553967 0.8228980218297829 0.6081844254998493
P 0.868922760619748 1.4600460739958927 1.5717292656515087 0.060003377136825686 -1.4431386071632177 -0.47265874965499244
