# total energy = -340871.85065079597 ev
CRYSTAL
PRIMVEC
9.23025913630415 0.00000000000000 0.00000000000000
0.00000000000000 9.23025913630415 0.00000000000000
0.00000000000000 0.00000000000000 13.50941725486788
PRIMCOORD
 96 1
Ni 5.303651545234812 7.2765548338753545 2.1852426320772365 0.9205338646074017 -0.5167482837750391 -0.14054369788473858
Ni 7.763903288500452 1.7780248265011152 6.671827942292532 0.597370622713797 0.08894011477583393 -0.9218168450848834
Ni 0.0520254328613969 3.646783100775194 11.798557571603332 -0.34346287268290526 0.35151273957057527 0.8850860653227531
Ni 5.96947629143041 6.843009560030381 9.705773522740438 0.4957153743641398 0.8085546086239171 -1.6571160966580751
Ni 1.8983135641793718 0.8599029448638237 3.259660492467284 0.7951033682150177 0.3527689805751796 -2.1120871992253174
Ni 1.9894992946523227 3.786178474963118 13.554133484744463 -0.14415121273033882 -0.24139624782744237 -0.2266129188706807
Ni 6.43607512341119 3.976395656214922 10.039820294691877 -0.9407206239679219 0.835455032559187 -1.8439663909188373
Ni 2.5730085894502306 5.508111016406624 11.721094467458363 -0.19679814950209332 -1.517775160832186 -0.14487009317423438
Ni 5.132660993862061 5.224880513363553 11.340237359084153 -0.035188374975674876 1.1469791475519666 0.3906721833788562
Ni 8.944776497130572 8.409956819525176 0.10288877609160194 -1.3203728020871903 0.05131793354768581 -0.49764884394142683
Ni 5.487804446203112 5.545807394911688 0.33794101830092294 0.3509645803765891 -0.21795292920283754 -0.07096604679591649
Ni 6.175846426253188 7.310014523415233 12.007291575802983 0.9115761411934817 -0.39945352911591203 0.28710326294625393
Ni 5.5938601242205435 0.8556708710282281 6.001571748662977 1.2231506498082225 -0.6293775146376968 0.6763919357140222
Ni 6.766924533581496 0.23171919561819004 8.18666669659328 -2.089321109173395 -1.337225869088787 -0.689268277456058
Ni 9.106758315540313 4.889406743342358 3.3373931201804083 -0.6143656146098967 -1.9509384234957172 2.097336523278704
Ni 1.5670487923458125 8.280188605665554 1.4552075878722168 2.0358956423644035 -0.38794912802073833 0.27854817428739126
Ni 4.140657348642964 3.7839724430182824 12.802063965816798 0.8764044783883551 -0.7443911865721309 1.774540434916531
Ni 4.153607402277295 3.25765383412081 10.633099818835431 0.9985681311040092 -1.312973938519958 -1.1469812044344956
Ni 2.7048074603302044 1.4823150130420684 9.962898083735059 0.19923915484341814 0.557691301846304 -0.10294902746041625
Ni 1.6488011979333137 7.498957928899726 12.342689657698875 0.06020675139688342 1.8845975341766383 -0.47801255776773804
Ni 2.0451023759732108 8.787400578053358 8.910244251473584 -1.9743280060642516 -0.8122341143580335 -0.5248503440568831
Ni 8.01216956975675 8.653912569742818 5.996046515515785 -0.6154894438016948 -0.521720797288966 -0.2770628479911164
Ni 7.799412095579048 5.50764027318827 8.791847716927926 0.7128548065267465 0.21853656962044946 0.5658825794078448
Ni 7.6025029764192675 5.6552690385678 6.399410687882832 0.8102589929095336 0.4007537359845743 0.9379276346038169
P 4.989093542523232 5.000723669094335 5.323778125384247 0.12210811688737033 -0.3185673949928062 0.6264058336038825
P 4.503655751549102 4.4245893513839745 8.797899997874492 0.01760614311753742 -0.8544516282663478 0.42274386710242035
P 6.318324707008373 7.379730671027561 7.176688967666322 1.0296044315845236 0.9459227369941514 0.2757330734360993
P 7.139623938889403 8.949677764756965 10.26030811093569 0.8786796475757771 -1.1881666775338697 1.2807775562930717
P 8.560206978512795 7.23836925163357 4.015295660517504 -0.47513163667551717 0.09470324251185626 0.4955225416270434
P 2.1257379201995192 6.770976617363015 7.69409945342588 -0.08058711482544831 -0.7508641958909842 1.4648001512970514
P 7.503665361083267 3.6914944762596535 7.502211595261879 2.244640165595096 1.5347642391910148 1.397398681923942
P 4.128621090667792 7.097709331937518 11.516359934562885 -1.1567750505964658 1.3316532600970161 1.096131211662164
Ni 6.426401811786972 1.776594136327686 10.494534244948095 0.24156182687102917 -0.8095596528496638 0.3223332897931416
Ni 3.7577400464190185 8.993678410284303 12.659539533765695 0.4471750035615911 -0.9302168962231205 -0.13750439683778254
Ni 7.693356417561616 2.3665461520356175 2.45932225616587 -0.9805817218289177 0.9788691100131852 -1.339490753863564
Ni 3.248451265714946 7.92807267833666 3.4294732627682323 0.3804818731094157 0.822338549781887 0.72356293697287
Ni 8.80814097043849 9.189858338968593 2.494891982955076 -0.34979678532073305 -0.013355595371299578 -0.4773389287394811
Ni 8.712238577522815 0.8781013238698435 9.118559201906308 1.656262233298212 0.06818385606508902 0.8201047753553619
Ni 2.1995615331484673 8.553939632527257 6.498961802253712 -0.3920806336906087 2.77176902127351 -0.8480583231454943
Ni 4.594943014873071 2.44581561790278 4.7512482238850104 -0.4749704285073046 2.3586181971761637 0.4171648303527461
Ni 6.955351044551718 5.538561641452708 2.2675423920343145 0.35731674784686207 0.4094476642141464 0.6493043354686108
Ni 8.742726123605632 7.567603366446778 8.088357975108488 -0.14059820527175784 0.6824098597733279 0.09170919288053882
Ni 1.300885038532875 0.8418254822531066 13.207090507862777 1.7307049257888194 0.32446396298289926 0.38092050330873106
Ni 6.550087284844726 6.431912276519471 4.527194758518646 -0.7971144851077756 1.3823533575550448 -1.0170913867191773
Ni 0.022928886837519702 3.7272617305953837 5.69308448741633 -0.2620609752656455 -0.46839766038579334 0.14616335806436118
Ni 3.5767438940914458 6.294104506911094 9.662421764433695 -1.1154098573861175 0.3514014108036916 -1.9154759689230496
Ni 8.175074414084829 6.118628049575203 12.94919522022634 0.1648722473277741 -0.9510001515170591 1.301732304167868
Ni 3.2919903982831116 6.662244164182393 0.3331006703851404 1.3645091302847727 0.08572443605201366 1.3075967333684448
Ni 3.5897954805767935 1.6845315312323108 0.36191477047800513 0.07797898777863989 0.4651004776917603 1.2159191650567895
Ni 4.010058411456835 8.349877062500331 7.930541772668224 2.590085873035984 0.08283580165030895 0.23341065851880446
Ni 5.654964440014747 3.303343617078711 6.7768239865557085 -1.5542650282281039 -0.07072590576065238 0.1886222985595203
Ni 4.860654485986021 9.116367015350246 10.269899273253175 -0.2381322323641899 -1.4514694956264163 1.3228724285805926
Ni 0.7024208778059988 4.918205151994609 7.667188632776636 0.1694549816024501 1.1637175433525702 0.2286960266519545
Ni 4.213253337120519 1.596354865253153 2.7515984132086873 -0.22415288736596237 -1.4330390568353706 -1.3724656661276877
Ni 6.618852715761163 8.869669878155129 3.542101808350173 0.3090291164850678 0.31726050325592453 1.3973184635053097
Ni 8.812608415883263 0.7480488180273713 11.680377025122567 -0.7907607749756058 0.2644140488788543 -2.007026781848853
P 6.964618224771866 7.684292303043503 0.592019593765016 -0.7113316850140008 -1.3835782311010818 1.6242838806194027
P 6.704269534244479 1.9424988148903763 4.4063669737040785 0.007327644009664799 -1.0623911390972414 -0.15523292446579717
P 1.9251459276255574 4.19938948782703 4.734564530410989 -0.2019033319391426 1.0293558059088272 -0.3600886541650444
P 4.78539095260446 1.2935469824820602 8.774826195967792 -0.42783439425145026 0.8284084101250507 -0.9378075640861849
P 1.228695181459391 6.070012274456159 0.30570341507692983 -0.9778854059436772 -0.727128028616309 0.6933506750555478
P 1.5076059232046237 9.108456683230061 10.901464989463612 -0.9453095288901848 0.5828760286420478 1.1061374309452563
P 0.5274705452435624 0.7553517990932888 7.206342098318959 0.32365946480373287 -0.7532974879228252 -0.9060289861230073
P 7.802818061217727 5.361100678392383 11.001299472791422 0.3304931998961147 -0.04210052871447588 -0.6056390333701763
Ni 8.522270613268963 3.2706961903469747 9.597157370825528 1.2067398125503668 -0.46003951822908506 -1.4424960884832125
Ni 8.964104659860642 6.676864894728922 1.992017309357558 0.2201764192167176 1.6480758408326779 -1.7809365682508618
Ni 6.987721563507952 4.099490392684936 4.690888790006909 0.05556102509475592 -1.074367594732827 -0.4523506342252597
Ni 6.336249870342564 0.7061286729199765 1.424149611771864 -0.9320961155237043 -0.20276825104259916 1.7101785237006932
Ni 2.244725191332914 4.16024395863017 9.445608514370802 -0.128903542542649 0.2849353087606577 -0.7345914268728897
Ni 3.515704190111526 1.626196293193132 7.081204705491655 -0.006022552044996079 -0.7060066732566616 0.632275405010782
Ni 4.010159944307852 5.422971105698809 3.49789902014672 -0.2920842611006131 0.5183701356491782 -0.2666498801879085
Ni 2.08792154832507 2.0158055333250537 5.195924267279264 -0.7193512128843675 0.7703127915338992 0.8285079118173925
Ni 6.5755351094134 0.14551780510428297 12.873853229641721 1.0262324297884973 1.2962746234874063 -2.973836389594343
Ni 6.6896303431795845 3.711893349054999 12.42496264990432 0.31617344083933285 -0.7208231694442038 0.26381549606290694
Ni 4.786812412518706 7.981285122529044 5.580092269622563 0.4860737375093177 -1.1376527279447182 -0.4354643999928823
Ni 8.872660482130556 1.6869960104342825 4.116440840649359 1.5717634421231832 -0.23158851770840116 2.730991582245832
Ni 5.482238599915513 3.65088133585263 2.6765942501101803 0.1841426655216119 -0.18476718647948823 -0.31574843748677234
Ni -0.03338953957008324 4.438877792599901 0.9912181501625869 -0.23896809800192392 -0.8974996084957576 0.09013130687045767
Ni 1.719283457057866 6.233258638374026 3.402859656464693 -0.35233574969250286 -0.3927745744338397 0.3436456781176727
Ni 2.1235780395506 3.460174950864105 2.496729727558494 -0.07833380001489734 -0.11402765387208104 1.3199354574394557
Ni 0.6671040601184187 6.8125220139475635 5.982753096239832 -1.7772488349866296 -1.1885752258261981 -0.2984613682715505
Ni 8.764361851131556 7.5814395249627164 11.205980470183636 -1.8413204686555578 0.9140533990893807 -0.4013705436329668
Ni 0.8439752096169237 8.663992012771107 4.543244333186767 -0.478682330141253 -0.6459894121627648 0.26539055385951066
Ni 2.940409825986857 6.548619673634563 5.562799379042436 0.5752881889924608 -2.1237736344243103 -0.6163690181931708
Ni 3.329012967867787 4.012319824956771 6.602619458935291 -0.8910011452556075 0.42327222880206455 -0.08726169863214649
Ni 8.45295136680152 1.84994700605828 0.13725118497961705 -0.9241316092609891 1.1912810547931354 0.9334899105474376
Ni 0.9411726078960324 6.5235318291740425 9.881112449214497 1.3599238249069354 -0.894359263094563 -1.5437967817069282
Ni 4.6235291275641055 5.9810418061872275 7.3793162323902255 0.22411869169391727 0.27586445680764105 -0.6850634953460911
P 4.035967748984678 8.809857798646604 1.6367197116881427 -1.3196865746534434 1.7283456815280234 -1.7307653467131094
P 7.123184847283742 3.85928212769576 1.0201503975729993 -0.8577405834302647 -0.5343428569283507 -0.8121289562387367
P 0.6706475566189315 1.9569164797348697 1.8277159268150267 -0.44330497908322364 -0.2996602736756581 -0.8898469770465063
P 3.6752861411335775 0.4376065878856766 4.796140512449465 -0.6529892405193658 0.535784988691516 0.24320399046014243
P 5.189168640582923 1.6607174625391017 12.324790339090397 -1.108432140516704 1.1598570319558992 0.2656214389233941
P 3.74879592527029 4.499206766622697 1.5532181719853841 0.7048926142568764 0.07195489307174704 -1.9151823489420303
P 1.0738022021025138 2.857429795927962 8.067472667654176 0.5670151503503912 -0.4569485380085872 0.22174273526257296
P 2.1009546742920513 3.184217892057565 11.341723430812683 -0.31598240787444937 -0.327670642845655 1.3231879029384825
