# total energy = -340893.5008167935 ev
CRYSTAL
PRIMVEC
9.03117469333237 0.00000000000000 0.00000000000000
0.00000000000000 9.03117469333237 0.00000000000000
0.00000000000000 0.00000000000000 13.21803704882682
PRIMCOORD
 96 1
Ni 6.373047169333579 1.990082580990658 11.248748138084473 -0.8753652384905634 0.21601483163986024 1.4332627428104026
Ni 4.628486105911286 0.20557482528158463 5.771378564964519 0.43799565105516824 0.5056254343890002 0.18016748292394777
Ni 2.9011294304448416 1.7075513091739616 4.733326304579566 -0.7664198842373962 -0.614056310899594 0.8351822385137745
Ni 3.314928827688455 4.3524392175866105 4.895485563341383 0.3301383876598572 0.3000109721468575 -0.7928441398671958
Ni 5.324446496805616 4.554340160967702 2.9925375628628674 -1.3041031183928895 -0.6596509688102575 -0.3562772508387541
Ni 7.0616381216074515 5.929453926490832 2.670915754128533 2.0320428442772167 1.1003840734012467 -1.2200709824416343
Ni 5.074996418207965 4.583411512584437 11.194619792040701 0.4115456843937558 -0.2963911160060831 0.8042410688502278
Ni 5.641350419834893 7.8552616365724175 12.283468798093097 0.18231306851204085 0.40692695467482176 0.6478961422671744
Ni 1.63261965202452 6.6194085861564815 0.44152239446569874 0.7594750774884469 0.023515309513120794 -0.44267583013965695
Ni 2.852731364798963 1.5382529067485753 0.4559045403028068 -0.5753478385858027 0.6465398853495962 -0.31595849661504943
Ni 0.5542856427684499 0.10414570132770036 4.8646739043445475 0.4436878163439391 0.37750530697959506 0.03971351653953806
Ni 8.506752522850158 2.469159309543921 1.4423526679949907 0.07502324758442563 -0.14934381267487182 0.516737999362394
Ni 6.944160600069554 0.4911080595951442 4.536707695327281 -0.241415531101152 0.8290995226548044 1.376650650743313
Ni 0.6404006036479329 7.5229595605432875 2.4866165703936103 0.04539591163629601 -0.7339679343562778 1.0187659462081229
Ni 7.66219318212614 3.8066762944580215 3.8489205176088266 0.10795367976385925 -0.0832806024972114 -0.17273468079498638
Ni 7.602162963363656 3.928208813472127 12.614144359544355 0.3462905719396875 -0.6843803532361374 -0.9366554527596127
Ni 7.835347896182577 8.88708238635919 7.0239853477147856 -1.0656014185044227 -0.14357117185715274 -0.67000917211613
Ni 6.777986984118039 0.774821512190539 0.4185597294701377 -0.08736685675144308 -0.15087670437963047 -0.7736773371307579
Ni 2.1328564230872615 6.290863478835819 9.332317496776936 -0.5267195360551381 0.9905624871907134 -1.2503675765426465
Ni 0.18203506821758325 4.77088966984191 1.2661409012755347 -0.6420749075997071 0.5597080751660167 0.7004075819023292
Ni 6.4586175503738295 1.8399844561474956 6.940157080289592 -0.44217189392004497 0.7733428366094746 0.1622448370072561
Ni 3.019464913586837 4.406075364604874 0.45226136439656545 0.7366447098574926 0.13503305247915454 0.163206429589577
Ni 6.2200590685608255 5.705354355500566 4.868004601603401 -0.6370324600797932 -0.3893627205388133 0.2053810060750979
Ni 5.260523841712963 2.7555649553412263 9.120789321080393 0.4769134111662883 0.15270218762414348 0.13518243357282525
P 0.18383317511627603 5.5319828932494115 12.393495600437515 0.3180140935924975 -0.7571374304942057 -0.9134543320528009
P 4.107315071708565 6.126234193771679 12.60947885465302 -0.510119979825244 -0.4976683843254526 -0.1219836754943641
P 2.3373493136302055 8.603738308812297 1.4149647273572428 0.6258021385816126 -0.5803877150025553 0.10648892229287468
P 6.446344183847845 7.637492919102913 5.711342024379689 -0.5790659108673383 1.4858909105290798 0.7475176480162545
P 4.7596277948912835 1.062210652921383 12.555429982947311 0.2896149736245141 -0.4790335428330847 0.8674650098068802
P 4.2341037344446155 6.283232136146741 8.251187435808985 -2.7826622711472466 -2.2785069935458693 -0.70201272160592
P 4.693637000774016 1.315020328537186 3.7303547395099423 0.9169250642102209 -1.2192438585546486 -0.3059265663003441
P 0.24241208409161924 5.502180016475498 3.6506103693202525 -0.8534663815349429 -0.2271965592882926 -0.9713445195013659
Ni 1.4898458099279164 1.1533803623252172 2.7962097574384974 -0.3053115584241645 0.2651807518415497 -1.125953180119603
Ni 1.6790850462674847 6.386946147319959 5.033956953772808 1.389315133584859 0.8698170549788246 -0.4092275777835404
Ni 6.092150540152058 5.520793267697024 9.062762216884105 0.2391730149238784 -0.566380859200502 0.3486798981074705
Ni 8.575317201779718 1.9150696432681966 10.513177014605178 1.1385276743505037 1.9754196964665334 -1.2449713452277398
Ni 2.563995675908425 5.095135937967306 6.98402781801827 -1.5064106277489862 0.29852924539500847 1.1086697104488068
Ni 0.6352636714330839 0.09145148205696937 9.2819434100892 0.7160946536202828 -0.6209949470009564 0.29890282668434326
Ni 1.458787599859587 0.858532374343593 11.664825197607597 0.4955006872501725 0.4047353463401417 -0.8617872426958126
Ni 4.154521022283487 6.7805066818816515 1.4857339160505945 -0.12339778223307135 0.5969600175389397 0.7553260883170798
Ni 5.696449617167512 7.711566614648256 8.069267966628587 0.35596203359118045 1.87583958547835 -0.8067370957992042
Ni 5.274305414427202 3.005222750958818 5.045430158213286 0.10570987803500505 -0.7154493067268001 -0.7174349696982611
Ni 0.6401061873501057 7.724869535099158 6.935094203707939 2.0955123255857715 -1.321171643839402 0.06828310064711467
Ni 4.933676595250936 4.565538817694868 6.907297150852657 0.8609544623818722 0.653491634077081 0.6181266243142258
Ni 8.183111343435023 7.297713030355964 9.005091844091629 -0.2822940144830687 -0.16485039295090317 0.6432560723920019
Ni 4.280840063930979 0.35889166081632967 10.550862300727053 2.511370264201636 -0.3288746904560852 0.07869066913368383
Ni 8.294881162511976 7.154325068374322 4.622691704172454 -0.3289261125193109 0.40050613875014246 0.07969288514595307
Ni 7.386787507210844 6.168436873518496 7.051016556948725 0.48157225009453836 -0.5692437825705938 -0.9253449128427998
Ni 2.129054298504893 5.456003619825492 2.6250093896044486 1.0413250624555614 -0.35640040668017975 0.22767735557945307
Ni 2.348647313279953 5.208973896068873 11.456918522997823 -0.46317626408585394 0.003572290732290622 0.15417260152208287
Ni 1.2178448879046693 3.331844218051346 3.912499084942363 -0.7257388615782662 0.4118832702388326 -0.6148834347865798
Ni 3.6699443082892205 2.9887408569853666 2.6107473583919143 -1.010532502554737 -0.4693301995023917 -0.4845195056483204
Ni 1.135724415630369 3.191147546154136 8.289229453334668 -0.06894695948335867 1.1447374027056414 0.9328818446497935
Ni 3.663848265312738 2.6238452711753104 7.178068026870872 -0.3527944344964763 -0.1259647716292992 -0.677913000344239
Ni 4.231340194961944 6.850706003446386 6.014828331038357 -0.2726246097141047 -0.2867818750510932 -0.33091640347646234
Ni 0.5880351429212115 7.343284338295711 11.26074966624958 2.3446452799358397 -1.1838577657458709 -0.2236114130401955
P 0.42059264691310977 5.761230233864263 7.875624226348825 0.4092023809725598 -0.7639320848185359 -0.04398617577296295
P 8.354884287750123 1.5105633248731758 8.231863431132277 0.5784205639738554 1.5869596902476475 -0.4983317289410643
P 1.7536644876005072 3.222982437253543 10.501942233178891 0.6221884530884253 -0.36382755238218634 -1.2970004459098372
P 4.035580450431235 6.135518241445491 3.7947136003444686 -0.6419723205835718 0.14850306194113133 -0.4289345692941645
P 7.03138368609454 3.768664079809113 10.17347389084386 -0.28796586805686536 0.7129671637348947 0.40293788812008674
P 6.354605510432873 7.6997538380360515 10.208092190010454 -0.29606098636017397 0.02268098653728352 0.06810286631550852
P 2.526913672261853 8.42437014650724 5.66708836484034 -1.1981045054728718 0.4037724682062401 0.7580329457252816
P 6.784832614601259 3.971594577115121 1.39458226899632 0.031034243597985258 0.7722346911469604 0.48782414454152123
Ni 5.102089942547885 3.0636996076591476 0.12264335351204243 0.4623622528249908 0.287047470007654 0.6641732821606433
Ni 1.3207370621729095 1.1771775078704478 7.216876791135375 0.6997444943970337 -1.1626266242812364 -1.4790808295857818
Ni 6.6406770027633195 0.6529331648901024 9.321188380095574 -0.1739292153237198 -0.33291620751531054 -0.7757136508344963
Ni 2.8071871503835557 1.4455478976321456 9.163549224311133 -0.504631445906847 0.7457656983221543 0.3559304090222967
Ni 6.19082515579805 2.2420613885267033 2.464370980675579 0.4804862161192112 -0.7806023463853653 0.6055960959473828
Ni 4.233923110949016 6.761974711233146 10.449889251099558 0.2966325425929278 0.7521129806964209 0.025133047622201875
Ni 7.992445181480218 7.06906174727659 0.07778641149739121 0.11830391264993173 0.9349608386660091 0.6527760960672951
Ni 7.7794629866440985 3.8592106381531286 8.005054507708017 0.2807284697681617 -0.41528586816247837 0.529828771108081
Ni 3.1317585408010298 8.23536572071195 12.519159881913458 0.30302199105903943 -0.06983887517000875 0.09935076858619664
Ni -0.009618201140671958 5.029813450783755 9.947140910330505 0.2403490375098506 -0.7309576867750444 0.5496306363253567
Ni 8.610313004052117 2.2382321704199946 5.939300616353438 -0.20464592768128625 0.4511008209785586 -0.7159025922141348
Ni 3.763398904912388 2.629273007218074 11.298764590250926 -0.9858146880930829 0.042277934832604606 0.007860119474367109
Ni 1.057776346104416 3.2543928631382917 12.566176177818 -0.013232439529873985 0.32601562374073534 0.1471984841970949
Ni 3.055399958036352 8.37934070905429 7.852716651519421 0.6053713815310864 -0.2818422716576307 0.13024797238568536
Ni 5.483864794021711 7.911453606053414 3.7006674617732127 -0.19009476933998873 -0.7176172609123964 -1.0807143628864613
Ni 3.0916781871275063 8.374093596507127 3.5130899615931597 -0.14845935318738948 -0.33931362640122203 0.07931724697408919
Ni 3.4869907695965137 4.2380142331243436 9.287600537971374 -0.4857212392659054 0.23201814904665205 -0.18888095153754567
Ni 7.120250445929481 5.982322423652799 11.256309037610269 0.9412682689412756 -0.1897420139862603 -0.11737780129123655
Ni 0.4102898827241158 -0.1822960691687245 0.46202045186380497 0.02994975228455487 0.9190243699414108 -0.5241432906875295
Ni 4.598042015727994 0.44036279162395014 1.6285809106629159 0.23494663554735667 -1.0001563015267356 0.2562153151181458
Ni 6.096675158716825 5.698869972008545 0.2515814358457265 -0.9020568888491367 -0.4339664752911171 0.5543951475935356
Ni 8.013054322328118 8.748110668844955 11.218954292485341 -1.6363780927797753 1.0650591728477077 0.9758575768803709
Ni 0.07989880327842706 4.650540234723982 5.705645159328482 -0.05718313407921119 0.49199987318576555 1.5993601207945294
Ni 8.058598536743526 9.224532232012905 2.4278100758138117 -0.15883606843602321 -1.1999194471944237 -0.666722016724426
P 8.468062970092753 1.7730905445522307 3.647821542548197 0.7328795863881055 0.8264947380421056 1.309880130085983
P 1.6584488118952447 3.1131543207542838 1.6100886771834417 0.7817788831919698 0.10135340083852222 0.3429460809474868
P 4.812929788442688 0.9077414394847135 7.988095767706183 -0.8501123774610456 -0.46578464824297844 0.5766994675176906
P 8.627056802094188 1.6412624862889549 12.66084366121412 -1.0599002543545875 -1.3279778681279581 -0.5085307809612531
P 6.567542549395092 7.825774850915804 1.6119924488270603 -1.2507344729637622 -0.01688623423237737 -0.32323009057579816
P 1.7910174264904781 3.0791609788824625 6.062373853785007 -0.15661566374593675 0.36691621860983903 0.6116160768892176
P 6.893495709553902 4.029764373872931 6.059597670657643 0.5696271340519415 -0.632585222941717 -0.24085528772230777
P 2.5381032978142404 8.36554107399049 10.20265903526282 -2.1981985863031044 -0.7136647040225516 0.21291408122734945
