# total energy = -340890.9813725856 ev
CRYSTAL
PRIMVEC
9.03678580831417 0.00000000000000 0.00000000000000

0.00000000000000 9.03678580831417 0.00000000000000

0.00000000000000 0.00000000000000 13.22624948277552

PRIMCOORD
 96 1
Ni 6.274448120027838 1.7476872335627998 11.25124002798082 0.8820963865668099 0.4183035719428796 1.1124646587148648
Ni 4.438543784989627 0.1745437073936967 5.8943175391896006 0.3676582389821862 0.3486153634181222 0.13092237274489063
Ni 2.471380138444518 1.3067824618986632 4.807755217731906 0.3278691320097063 0.26125082065952426 -0.9757411059071646
Ni 3.2328016233979264 4.168235452749052 4.792624023846388 1.0907558062828635 1.04224963115236 -0.8931444168508553
Ni 4.840653635875856 4.484812127496705 2.686965311527697 0.15725458288151628 0.7654834884660559 -0.5479432213206047
Ni 7.126562785723637 5.8420560004421525 2.6378829139704805 -0.06315606383319447 1.216609249145279 -0.9966583156758062
Ni 4.898010114370471 4.470859330459415 11.58205415851361 1.4462427000098381 0.9740637182047419 0.6333354708441803
Ni 5.874877605908111 8.092242736631636 12.342021624656592 -1.6889160147774915 -1.215467422231352 0.04926027968770871
Ni 1.971898922223568 6.363605047210423 0.33512015889306895 0.014464255054446056 1.0340745515407352 0.31398157539433663
Ni 2.6763344368938435 2.0456481298798708 0.28201819908055004 0.4337445890882981 -2.1953906845406643 0.1486473008284795
Ni 0.09857596886132197 0.03999952430450845 4.923722480568789 0.5963002724677537 0.3707903568532646 -0.19753219945464046
Ni 8.705750114132728 2.394901821523149 1.2622193608429684 0.06412511261468311 0.46863985830358645 0.9016948775240278
Ni 6.790349175767412 1.079272346477136 4.822554761584219 0.4344377585005808 -1.7166384203934244 0.09981433848617648
Ni 0.8518742871976186 7.226401193539693 2.459897094924255 -0.16500903001595452 0.601107721158726 -0.20625466692930283
Ni 7.544315312562942 3.8293108070990534 3.7109018047806446 1.3735470721173249 -0.34044825422629754 0.7682104004789156
Ni 7.193471146645983 3.486355755050977 12.695492784160818 0.7014918161054435 0.3846627439599827 -0.05912765940009172
Ni 7.857259199480939 8.925109048901641 7.034116468565939 -0.9969154259919345 0.6034003738476447 -0.05936240111871712
Ni 6.780444858699491 0.7774536463678243 0.4670978948588177 0.6687177069982161 -0.21027381539102494 -0.009962510529350583
Ni 1.6771009008825666 6.552636529351648 9.52090251917961 0.40692052691691855 -1.6679088163982052 -1.3822196601906582
Ni 8.859565242611827 4.949772822550265 1.1511283475406202 0.7700050304854933 -0.4751740598776784 0.08461757614108008
Ni 6.346091756628642 2.074764653231005 6.809414986123162 0.4777189377867192 0.6148181287662831 1.623438759010288
Ni 3.259297478911746 4.28974407254401 0.3729038633571993 1.335725373283861 0.8392106429468773 -0.31079700701876795
Ni 5.9042019753291015 5.699175382594608 4.673865297923482 -0.9023757056411362 -0.5127821000384395 1.2653578793038918
Ni 5.384189182120635 2.731811263974109 9.248758815774352 0.06639539670609856 -0.1672104085426475 -0.6068009148887614
P 0.25151272177563866 5.762595544257631 12.267994084002394 0.7774949111046352 -1.0157893800783022 -0.09662385657333682
P 4.18142012300644 6.324105257152135 12.686737042548492 -0.4048991256115156 -0.9877034204753635 -0.1726629470167865
P 2.575944785153387 8.283921996967115 1.5145508153981269 -1.082095045284072 0.5772548258005284 -1.5619397711645422
P 6.365168411127167 7.849858072036936 5.690315717947354 0.06926269095156458 0.25570366558904994 -0.13944172306981148
P 4.737182440230142 1.054755547019772 12.72150878635684 -0.655697126368832 -0.9541196709826472 -0.7892983314974665
P 3.8166412336234825 6.286286309223984 8.218302281677877 -0.07924011387925062 -1.4885789988842042 0.21474187846470758
P 4.8007562272491455 1.1338454949928098 3.930549916690226 -0.9110966304539018 0.2696295316415227 -0.7667399865809763
P 0.20921333552424515 5.492052255590262 3.5215811454987493 0.23798902191810625 -1.206512269920593 0.17269894246104453
Ni 1.269957560391564 0.9918595189242115 2.4553606285300065 0.9879957549048017 0.16563226542225024 0.8704197215598299
Ni 1.8943000438821058 6.42779333565335 4.84068797566131 0.0029115172198401467 -0.005032420217584882 -0.5917059682288519
Ni 6.100544217057871 5.561364401494422 8.901596236329537 -0.4614137728687924 0.5176309434903085 2.127695852296852
Ni 8.704774141282968 2.3756444313117067 10.205796888569163 0.004612044850714638 0.13277125302817136 0.6266398039915595
Ni 2.3143117671328897 5.022555094142455 6.950803630660565 0.17517131526093702 0.7492166329852323 0.6541524075895315
Ni 0.6702195331791524 0.30145361396921694 9.169837855692892 0.5965524976878758 -0.8531869026213114 0.5609992831736145
Ni 1.6347635601314603 1.1179407522560016 11.501004131733975 0.0522576717531358 0.18707835111116813 -1.3501212369942168
Ni 4.421807657973395 6.92446411153842 1.737347343426745 -0.5430974631925292 -0.6926695898281232 -1.1756839716858267
Ni 5.568078733229336 7.668010834484211 7.663500574768336 0.5520654710190944 1.1506558250726053 2.027783040559598
Ni 5.447898520924328 3.1492746136727447 4.637704600161357 -0.52664368851188 -0.10985578188257855 0.8284053248012572
Ni 0.4135178890856299 7.352916192582487 6.891590092715715 2.3902736192979157 0.6605367138493206 -0.8851665408517013
Ni 4.9704128409655315 4.6103150065471565 7.050225442658345 0.7604497826968902 0.31106080220311594 -0.8969085118789779
Ni 8.266788251382462 7.279085653855371 9.082505455532216 -0.4928815044597705 0.08125123077200845 0.9992299330577243
Ni 4.562953212976923 9.396178611051837 10.485558602273928 -0.7770508815886811 -1.3481769687836522 -0.8934172108962677
Ni 7.971719126472084 6.938407871790066 4.5452004475755245 0.9017547842276857 1.3359449454938348 0.47290557555847584
Ni 7.4191196842244524 6.192782688145714 7.021207420270751 -1.5045923435933248 0.014433144706194497 -0.2371899230555786
Ni 2.343084892629479 5.266277203012751 2.471020474375811 -0.32593077733641285 -0.028634633017557136 1.0094675516253324
Ni 2.44766761290964 5.201212346362171 11.471628252634803 -0.7546180065064617 -0.12753545855052872 -0.23640110860569608
Ni 1.1473464527478052 3.293510749367176 3.7928654505890824 -0.23541920430840105 0.439924749757081 -0.18980757711687313
Ni 3.491533833226086 2.6090826781169527 2.7576465304572118 -0.39107507524422974 -0.8551131731097467 0.10638556394579098
Ni 1.0980236766924074 3.3346913815556047 8.219783410845242 -0.32738422195348776 0.2583326185714648 0.1180516874298096
Ni 3.979466037391558 2.614965625572443 7.266554343200182 0.35336161985385595 -0.5430879501108324 -1.7781831738754408
Ni 4.079521328063116 6.746186404315832 6.158961614187317 -0.8446025033864099 -0.07556009392450212 -2.1122414654149946
Ni 0.7658693908483274 7.8059302570121485 11.549954592220761 1.6535132097981653 -1.7569468902044838 -0.9832186452311326
P 0.3077179137789644 5.601939569044576 8.100125524750567 -0.058450687937725135 -1.4704686624367385 0.008188963568695574
P 8.448084245010786 1.8015012920842166 7.913926171230771 0.29691510683035316 -0.267964485234274 0.200588469782461
P 1.8339072054104637 3.2563876339337616 10.38788269726294 0.22543792472597304 -0.11514479819565977 -0.21700779168074882
P 3.900412236561104 6.244915904536991 3.755672751906195 0.43240607278253274 -0.9733304395831429 1.2037881861212105
P 6.789834078985596 3.837299325610041 10.480347991670493 0.45162969689883514 0.7854367916595312 0.13776999179434338
P 6.353303111574082 7.495525706860654 10.16244110207576 0.5416231926398478 1.0618602062944358 -0.18206495705697676
P 2.0836929974491682 8.386335888692257 5.694376849416629 0.4725556484182248 0.3206214493083575 0.7332099731443309
P 6.674994606997323 3.9463100708567 1.6247254986359791 0.853266349708995 -0.6415591443055532 -0.3059142250051699
Ni 5.096891692865742 2.674653594763704 0.7491594705104682 -0.24001350854730275 1.0011052957035662 0.2584334058153872
Ni 1.5021577675633206 1.0975989477670496 7.08482548753942 -0.8641680842231634 0.04135130925327717 -0.8645120978261435
Ni 7.30587068650986 0.6102532309899973 9.37652450595054 -2.0992640793187203 -0.817705678995566 -1.0620494394871063
Ni 2.9094835065584213 1.8276266393865535 8.990913114618056 -0.795485948365417 -1.270290797829135 2.1488526888801247
Ni 6.559811737154505 1.8405853900027938 2.5524943264022406 -0.5016836761324328 0.4324968327241262 0.19056450988755566
Ni 4.325836994413789 6.670431030246136 10.350717108936989 -0.35223110579383854 0.8955761662207996 0.4520480153831763
Ni 8.23591859161602 7.1812895595952915 0.20965704169945953 -0.2202257843974143 1.249602416241848 0.857669106762381
Ni 7.624480638027844 3.845712573046387 8.33432286155007 0.3734267660348472 -0.22498155391484478 -0.5967358173432755
Ni 3.093870080877647 8.238855546950942 12.360340092839424 0.9587684826085682 0.7360638976533581 0.43351987467200176
Ni 0.002534818373678833 4.838665543033754 10.301766648450204 0.007562128617974073 -0.21097264123026246 -0.39757405270501206
Ni 8.73460457070013 2.7217171744076234 5.788005178136812 0.06986227220877646 -1.1288718964282944 0.5242088538181423
Ni 3.7497599830580737 2.575004959446212 11.25642443190588 -0.5560943896728294 -0.7826908534832778 0.5235599073802338
Ni 0.8548374492109138 3.3365258490417253 12.383472456735834 -0.1455853740737041 1.033332016947756 0.35253346752560577
Ni 2.9939864891333614 8.352185875736348 7.849594197896075 0.21981132256781497 0.0408093207068781 0.5494594008548149
Ni 5.714772874619455 7.921086016498029 3.550427468959071 0.1924324163342299 0.5544524831940322 0.8056040106360255
Ni 3.1346259841407185 8.306839285365152 3.526924596851178 0.058902687873479194 0.2820991248634432 1.7283289693574748
Ni 3.711227129063897 4.452351993456584 9.494820548448374 -0.7786375093495106 -0.17082717935962835 -1.274556000863392
Ni 7.173463703225931 5.998428539259045 11.552811120163433 0.04955132856556628 -0.7190066850607552 -1.3158301770218306
Ni 0.8168675869624776 9.069227706382675 0.30032311208491314 0.11373917609738475 -0.2834080734828538 0.9314713374555119
Ni 4.553907390545363 0.30234644839103325 1.7960584360896825 0.11140924241262748 0.9520239647958829 -0.6790512277137402
Ni 6.1132770480329635 5.663534300007124 0.3496847463185883 -0.5692039304715939 0.3052133422834034 0.688290229813505
Ni 7.903581762701893 8.866153059347699 11.516452516795665 -0.6657809929673952 0.36279294047008487 -0.537564706299758
Ni 0.04655390493348976 5.10419341566764 5.842642487830571 1.0892046597456597 -0.613658304130227 -0.655121199260704
Ni 8.1675191610621 8.800889393412909 2.59816443369956 -0.8640158749160152 0.33079710428977865 -0.12064490207828253
P 8.519330263043171 1.8106103720152977 3.6324435281242557 0.3058095811065056 -1.0341126038675224 -0.09615874401146021
P 1.72603509515519 3.4174954484291136 1.5917132169928911 -1.1420071482586718 -0.7831482527356706 -0.2673890723467782
P 4.943121748314873 0.7559153714593534 8.234265763521384 0.06431074626292796 0.6304689479296626 -0.44997724889707663
P 8.59888108708415 1.5469621507957614 12.535561559156564 -0.21802234898819225 0.4071089887786408 -1.0641595438515736
P 6.575969509889399 7.67398414979616 1.516310277563386 -0.6361690836382334 0.7515792196801379 -0.6006634345324559
P 2.21627167966037 2.9750002024912963 6.140325954828313 -1.8570427644868213 0.14416638223899042 0.5829711594590153
P 7.068781578303664 4.242978706826405 6.090105825958276 -1.6483347509210193 -0.798564844401057 -0.8355018266367223
P 2.531583204417596 8.243663116914568 10.132338665410657 0.3267645860916179 3.4872083006979815 1.392390430076073
