# total energy = -381161.9903112885 ev
CRYSTAL
PRIMVEC
9.34413729633821 0.00000000000000 0.00000000000000
0.00000000000000 9.34413729633821 0.00000000000000
0.00000000000000 0.00000000000000 13.67608945306892
PRIMCOORD
 96 1
Ni 0.35396245274001775 0.794488991206633 10.039480085226009 -0.5228646810854221 1.8527649630470735 -0.1555046900699451
Ni 4.137537169614504 0.5030360121588885 12.418777704889601 0.6430557834557377 -0.8091806722436903 -0.8696913280342377
Ni 2.1692133861369216 1.4362779634012937 5.913841739744087 0.4283175045354559 1.0894229464040528 -1.2988392988907889
Ni 3.2956117322075635 9.046657112846027 6.682711910372502 -0.41524164518810425 -1.445960649993045 -0.6427991873602414
Ni 7.4939325133993036 0.7614453193203023 4.636085192743332 -0.39730717219687056 1.4971543992580407 -1.2577831522804275
Ni 7.250330860237344 0.2865930933626836 6.994197784863819 -2.4763837208241224 0.34310240401969294 -1.6004194152969793
Ni 0.17330477564363475 0.5986835335218015 2.820666064879342 0.23909331072587856 -0.3879732963904544 0.39383952536324435
Ni 4.2590296396724945 6.138724283133153 6.901009640375175 0.4945388375575354 1.3372955459844582 -0.46848070701790284
Ni 6.417693495068339 3.1348084775369016 4.584101889449483 -0.3933235049587742 -0.7151574865179943 -1.1953912203067671
Ni 4.1676066026745415 5.167466644674633 13.138126752339558 -0.36540980926764166 -0.41562833910356156 0.04292662416019703
Ni 6.164663607612539 8.201797616402153 12.499138218021868 0.5900026123845 1.9052820591091832 0.33858548998594595
Ni 7.296061067010441 3.9801725573820312 11.282800683918449 -0.041944976973218084 1.1932003833030354 0.862407906998947
Ni 0.20029157788748042 3.103907416278497 10.435991066070091 0.6776749161915039 0.017493785909389225 -0.03943892272191272
Ni 5.574590696391802 3.7674719654784754 9.63980985164184 0.074270171468485 -1.0282787707945644 0.752109381151995
Ni 3.068063306515195 2.252376205973571 10.120551687188563 0.18653713389571747 0.02029140325918441 -0.5489963451754674
Ni 5.406059840372274 7.273354813953918 2.6839323728623 -1.3166881541467519 -3.0385636545693995 0.7742141834708344
Ni 3.3592266173140706 4.640335840692061 10.507489599614372 0.9352632003977763 -0.80764058145008 0.8439548425000819
Ni 8.38371862082909 8.20860949231911 5.37638472989618 -0.8140045759948948 -0.5615299588661039 1.068441459056379
Ni 8.167074803086088 2.0690068603022898 1.9530545291073498 -1.2073681901629851 1.8306933279590147 -0.02534079275763378
Ni 2.822985279697708 5.086443632224792 5.54982499552719 1.1425591641074 -0.47076076130133115 -0.38996924377456066
Ni 8.109645736713498 4.848775506096121 4.189519538494646 -2.5597954495825594 -0.10285878173945512 -0.2922549823505225
Ni 4.908652736378508 1.0686048583527012 5.408072567495062 0.9270187010007969 1.164557779865678 0.9651787570102862
Ni 0.3174446306946684 4.212066006807438 1.9554073828191327 -0.5926788736650824 -1.4675743716080791 1.7071960440336018
Ni 7.317954380142718 4.818033295167742 2.0574855393069424 0.5837802856238721 -0.712523905549889 -0.7691442251470947
P 6.016876735866872 1.80282042786559 11.443125518771623 -2.214768574846644 0.07397089506051131 2.6348559781628236
Ni 7.866343095937468 6.511069456711894 12.413444071455585 0.7641436866087098 -1.7262263211921751 -0.14122863976690517
P 0.7542830382635842 7.971548735099359 2.497390692659048 1.3342562449375022 0.5049597757805433 -1.0944592232763797
Ni 3.802652641510496 3.195405206372932 4.339915293307549 0.10198229267177274 -0.688520086436124 0.10457396465834895
P 7.962737213851499 8.079202538171048 0.24757104258517454 -2.3038660411359486 -0.9969583634147282 -0.9615709850543699
P 4.765584653848291 7.969960231799108 10.068884215727353 -1.2181477972769925 -2.1599583118749828 1.5132001398669939
P 8.998179729777203 3.5603965440852186 8.183128964969384 0.09535553138387448 -0.4094021556881917 0.48249630457070447
Ni 0.3453929446420187 6.404686456280405 8.15844362368349 -0.4598384579618726 0.6125115921202935 -0.22540809992930214
Ni 6.293472536988743 6.2472751233626305 0.4421683033481095 -0.7967969538673568 0.24052952895177285 0.36281248085411066
Ni 7.501146187209853 1.9886472815837297 10.162961922064136 1.7292062297561057 0.018691919982548454 -2.3743340652495237
Ni 7.494465129211742 5.249106370170454 9.07519317301447 1.3958971576777508 -0.794068242082284 -0.08793044256439696
Ni 4.719134948521551 8.719864607436238 1.001771852442628 1.1005331973846013 1.1796408994510459 0.5675378556230806
Ni 0.8724050780839251 8.806167057325146 7.190163027292382 -0.7052412558455466 -0.37114542619983826 0.8121806354122787
Ni 2.584653719837756 0.3548436048648038 0.5141508631921127 -0.5258402187739782 -0.15211597610337027 -0.08364827024927529
Ni 5.503435092677636 6.3153471618468995 11.519862375551908 -0.34475870867619335 -1.0855812040604593 -1.298767565112589
Ni 6.264038505248806 5.130613368108819 6.488497759229039 1.662256503208434 -0.5640118447476932 -0.018287999675910438
Ni 1.7322628489232823 1.4492943463262882 11.94305553977167 -0.43234153809318443 2.071529332407613 1.5056367256974392
Ni 6.296668231863364 0.02723629070335563 9.971536995833171 0.19804204921152346 0.5219550247869592 0.4375068843442078
Ni 5.077650799251052 5.290127131865161 4.404247808140286 1.1739723883113589 0.4270751474879225 0.34380920027873046
Ni 5.3317085417834855 6.0056263948462725 8.917904248292187 -0.5220861510481848 0.8083612616661886 0.9278861912074149
Ni 8.499417725909694 4.228876109378914 13.302732136380055 0.3304592613343857 0.08291242052451527 1.0391604507040748
Ni 8.061897196335376 7.554828254621263 10.359814857513426 -2.974119982273033 -1.4910074058200387 -2.301471829872159
Ni 6.871556920361118 1.0193332236337516 0.27301419338665905 -0.899554177031941 -0.7010544714577088 -0.10660693592797768
Ni 9.38422340828634 6.746850067154385 3.9675701197288076 0.17460207302102831 -1.0090572035607912 -0.2754973032762094
Ni 1.9068300174837634 2.370897240446386 7.997954332018054 -0.4946902755337351 -0.7656781209753653 1.3973714282304321
Ni 5.070222210288116 7.956130908949868 5.626753407117207 4.676876502478042 1.3341893962553086 0.3409958991996514
Ni 0.7572806374325277 8.085734089976196 9.647249653569247 1.4362254249831523 -2.3045101024778507 -0.8921329448672055
Ni 2.906512520879709 3.4926048297127594 1.4753355218996318 0.517803978733063 0.3099084337662275 0.6745854786329027
Ni 8.119784125423921 3.3928187900458404 6.1984959246667595 0.670265253990994 0.5862369746944808 0.3172162802815504
Ni 0.07704427888956629 8.23150262811684 11.882470023900112 0.7761823629407987 0.6441996672521938 1.7723061462693737
Ni 8.94690844972735 6.328129941345387 1.3053021286408073 -0.7942765014383483 0.4891693457155059 -0.10385277022160826
Ni 0.07563424860716739 0.08496063180705048 0.2111653501845488 0.89810844572435 2.977976379904645 1.0323136029855706
P 5.792290401622617 2.128220656853396 2.2869700701982048 1.5778063058831537 -0.6590138494468909 -0.48412278443053397
Ni 2.783665150947975 6.7554933939351605 10.9337457719625 1.0435706639566287 2.3923449000046477 0.035016111063868725
P 1.7501942479419936 5.454369028974013 1.2394325032616509 1.5417270436620931 1.7554751907549637 0.0489445482195028
Ni 1.1900879842736312 5.856886421120454 12.247470705749459 -0.5048235073129951 -1.3603362298540056 0.6826926811210694
P 2.0033549533166384 8.912176292274223 11.376536394838825 1.494725220991258 -1.8516678733281529 -0.8568869771807178
P 9.188893567177878 5.25179748164382 10.645754795695597 -1.2981489576919838 1.0610325681868178 0.44263366404781185
P 2.3631602949604598 3.8957202466310608 13.134188198568642 -1.4309078694249808 0.19093320608088407 -1.275995047302764
Ni 8.552866189894598 1.9621379647436652 12.492998185559546 -0.0433876229570156 -0.02074108920209331 -0.5102169104144244
Ni 3.464030458582369 7.077333506702993 4.735537646717198 -3.2295842781577666 -0.6978421351679982 -1.938458802971468
Ni 7.4074244924950685 8.147321297340618 2.3279852254106754 1.9035614768736504 0.574118851274708 0.14838196298223477
Ni 2.797260870370709 6.434176552842706 8.588283272594243 -0.029539661330329772 1.4192828835915428 -0.09216710635356384
Ni 5.92325782665975 3.5301869489692765 0.08570909718558033 0.9553985376950708 -0.07520399613666402 -0.12662168848700775
Ni 3.1090373475246005 5.246032149077616 3.2053884824081535 -1.1638070177425828 -1.0115637720327288 -0.7701680384259187
Ni 6.454285135796465 2.4614325844236102 7.749501202894388 -0.14371129697944282 0.38604368346790935 -0.09452069418740495
Ni -0.15569668376720983 1.2770258354826407 6.251463165593056 0.5220154457112494 0.6112095854794184 -0.7034201434764079
Ni 5.237005712677369 4.147161630786611 2.308250407939327 -1.5531861933416282 0.23904445976581412 0.0863885519985738
Ni 1.4580311144776665 4.716481213596427 9.147594350198775 -0.24110262784642347 -1.2598886286592046 1.2625620617263096
Ni 1.2844918009938184 8.808904889483813 4.703289160894699 -0.6522253657701477 -0.5478421769663663 0.2260084525174624
Ni 0.9725097528246 2.401901087212454 0.5751344393024393 -0.11560348299963316 -0.4213724406761904 -0.6175147017618398
Ni 8.879574598070844 5.83976796202599 6.154363565330973 -0.6167477416888282 0.1480754874854095 -0.14623406340129652
Ni 3.9602788895806573 2.7108930115223773 12.482549571498721 0.9098331903604461 0.8270907197548918 -0.6190707333950499
Ni 5.168746791451894 8.41698374876375 8.103492622459292 -0.4679086365645167 -0.03701874331619431 -1.4296613986123894
Ni 0.8531430739478274 4.431335527064383 4.689858832697932 1.0989118597310945 -0.5439317861683665 -1.5211438201941028
Ni 4.202348104264728 1.381082145786115 7.923228333533148 0.7201371991207727 1.4545651038326044 0.16671804228726128
Ni 3.9214446559580605 7.531178243721651 13.01253874700804 -1.0819081260842465 -0.5869494273804731 -0.46526220008060515
Ni 1.777264213005676 2.2489469076724418 3.439577786309276 0.42518487244374514 0.13832560718749726 -0.2747460269324817
Ni 3.394211066467825 9.244892980580243 4.149653712140592 0.2587655923438253 1.1549307982988755 -1.0089713287152042
Ni 5.586588568377225 0.027065292995152184 3.2550320137821034 0.5017091300537295 2.2371541416306955 0.5385404399494661
Ni 7.060476683446216 7.025352072236557 7.453878869890338 0.8486188236346545 1.4697693223768689 0.2947324973567375
Ni 3.8331799372864883 4.233034250370746 8.19479418567546 -0.8599692156504674 -1.5439986133050894 -1.2439372475362707
Ni 3.107990804173847 7.2193457017453975 2.114665117220022 -1.1715128710272726 1.3027514894610015 -0.7879554443163268
Ni 1.3794749542117442 4.248601582713202 6.874819893022574 -1.4381226420058653 -0.34032946926024615 1.0856616795894076
P 5.021324341051578 3.4729447653378926 6.221772170083961 -1.144818649565538 -1.2581495344809106 0.46842028609361264
Ni 1.368869358648306 7.532486422910092 13.937712970312582 1.3437207327845115 -0.3169607126273187 0.5563345307080935
P 2.048393693947273 7.149544997904973 6.491779420164616 0.06538443894308094 -1.0384338569506955 0.04771478957745976
Ni 2.5583219416018372 -0.06402696155086562 8.869559551969617 0.8943008990528017 0.42500515233277125 1.3037498488185286
P 6.769705826403873 6.889647169709854 4.423613532197753 0.6798079033741066 -0.2154471320618483 0.16760995797391134
P 9.195565281038931 2.559443238049073 4.322574443751049 -1.3403507878710141 -0.9532087291326037 -0.09544654843578401
P 8.130651356825046 9.024025612885985 8.616921183856643 1.8665352773582886 -0.8238855825540327 2.8866747068751706
Ni 3.8079227348125038 1.403489386456709 2.2477200224764244 -0.293291651145153 -0.17551867129802676 0.11768761922217152
