# total energy = -340871.62254484 ev
CRYSTAL
PRIMVEC
9.27808085917085 0.00000000000000 0.00000000000000
0.00000000000000 9.27808085917085 0.00000000000000
0.00000000000000 0.00000000000000 13.57940918018244
PRIMCOORD
 96 1
Ni 7.623075408006094 7.52158248073762 4.379264403779141 -1.6573212706903455 0.960553856643765 -0.21954675605251864
Ni 0.5392225795499115 4.247421945987958 12.05114158965702 1.0901832216088452 -0.12195770735243514 -0.6883956450431176
Ni 1.3328983841590947 4.181983641204655 3.1006140309964105 -0.19015287627143382 -1.5408384704095528 -1.8656225357360319
Ni 4.749922809033994 2.4274428692847203 3.309261370515463 1.1636244694181315 -0.15152925036196485 -0.23815948605769954
Ni 6.679438909170051 0.8475962997287978 11.3677033035907 -1.2551475144297932 -0.19161094887419902 0.37352832460971797
Ni 7.116380852380723 2.129969038579735 4.111695683520426 2.1088098140256264 3.1271828956707046 0.13167853418462486
Ni 0.8698210147830903 2.846376057414662 1.126872102502127 0.16447809721314896 0.8751814046145315 -0.23073953944454456
Ni 3.0464949849449416 4.484829480766798 12.801281855129 0.3759618737518751 0.07711689688866073 1.0212887126299768
Ni 2.6904393512622486 8.971802198227902 7.9731225564799875 -0.7795235114988898 0.7000627969684008 0.8689901882021551
Ni 1.9281522222396803 5.6197150617662075 4.624888607027581 0.24216449345203458 0.9656428411308983 1.0630457419621047
Ni 2.3878532979660823 0.9988410803560568 2.16740980635551 0.19239436400744286 0.3023923278948405 1.5890559106550441
Ni 7.164840269066274 1.4897628984042814 1.802286704182143 0.05111867305268616 -0.9449040659216501 -0.2072093175330883
Ni 8.369571243289661 7.505011828200688 0.6797910724536278 0.1666257396837711 -1.1249612485199787 1.1579022222223736
Ni 3.389412856033965 3.4366475660370552 1.726296437959729 -1.0136219401133382 0.46125230759026364 -0.18082877065703054
Ni 4.399508248555363 8.668529566943084 12.022611490804241 0.9664828205336904 0.7308700121572446 1.5263721584725776
Ni 1.6617599626426014 1.9642439570485628 9.733598516769394 -1.365249865105539 -2.528525692935 -1.375300821583638
Ni 8.059970960812128 4.01893064698067 7.940831123619105 -0.7433552891084488 0.06562123754423538 -1.010192345606499
Ni 8.885423264790704 9.13471602123797 10.683301952724083 -0.23197186918974888 -0.34746248076060154 0.08133787694854379
Ni 2.482805178180505 7.0734326157662455 6.479442452308017 0.06732716449174857 -0.37467066574427726 1.2524301154986304
Ni 3.899317627660332 2.5152784614275716 5.595368449603743 -0.5900319229605387 -0.04989277106538504 0.6566314652576434
Ni 9.18846394405233 8.867785632947085 2.800889337858357 -0.44977001798227695 0.8045449732438917 0.3868893192976563
Ni 7.979177432093426 0.10182322694950194 13.173914636005273 1.997867226836772 2.749864250780619 -0.9463366846031185
Ni 1.392621391090914 1.0054749082193861 4.541470309214424 -0.35744890254935213 1.0510322624409965 -0.06913027913875835
Ni 0.4889121857192777 7.938966229352631 8.661340909840275 0.1176649935143522 0.4523773736981371 -0.3220728370429034
P 4.930798996720155 5.817523747145482 12.535451847236141 1.268803157540015 -0.3737155009198596 0.02011991067832664
P 6.99261125280476 8.56503257419422 2.359815865210565 -0.4534904042566577 -0.49206235099258483 -0.20579701056659394
P 0.8372122715544787 9.392386884762981 6.45145512118951 0.6719331286117203 -0.9264864826464108 1.789972196090569
P 0.5766679863661504 2.1393399003167457 12.609024245568788 0.33611877361300824 -1.0111927618465553 0.7009796523557154
P 5.454398215795856 4.2930793822333335 2.3779443075352633 -0.038514354025114314 -0.9280345438598212 -0.21382373752581238
P 8.407741268226356 6.353481370016924 12.384951168699288 -0.22953446339284986 0.9778062159663096 4.594228905579139
P 6.70146507329249 8.203855439839415 9.561519805418909 -0.29339912325729467 1.9823912426883603 0.3891153804146976
P 2.2855902899806058 5.252265944704258 1.1361251326113555 -2.1519626952640167 -0.19245452782141695 1.1096904384038373
Ni 5.242542515891994 3.2101510544292298 0.29131132935278475 0.8683512690665756 0.5719465262137375 1.1400160859705721
Ni 6.726562282202008 1.4467961056279486 9.102114700474102 1.4991973978299986 2.674623230758432 1.2102439690488833
Ni 8.910390580567235 2.317274936348815 6.149137204432155 0.9919845643492207 0.7369270169846018 0.46383035273008505
Ni 4.420578770342245 1.262672589617081 9.877947827651163 -0.33142342501986793 1.1278198010146965 0.369213499284448
Ni 6.570671966454233 6.071594715270532 3.066651615760443 0.077413345083157 0.36855915352990076 0.15990976111617622
Ni 3.151643476098944 6.616598467046513 11.6273012245244 -0.2174507927554384 1.083528692406805 -0.6712191332638311
Ni 8.622463895136887 2.3092957867509645 10.917057634849765 -0.94159274216023 -0.00705587840551688 -0.24542696625339022
Ni 9.137703563296702 6.955276255151563 6.537222629093569 0.15478632384668178 0.11498024759333746 0.04006035835599552
Ni 1.8556161855466613 4.474762762960207 7.333206820237573 -0.36066792370728207 0.9452287962509206 -0.5412490971298807
Ni 2.605155231374524 8.002131404308638 3.890201913148834 0.08527732121226604 0.6339119121729405 1.6070322926278064
Ni 8.940841242172056 4.97445236748514 0.43919466125992596 -0.09518378169270059 1.1355115132319993 1.1934374390145057
Ni 5.548273838622662 9.424674606391493 7.824455226734453 -1.710991763630608 -3.6187245982731286 -0.47237952785167675
Ni 2.120960021998906 -0.2255083959890219 12.235889520514323 -1.098065195460083 0.24673874308627827 0.10807349317117518
Ni 5.972922324604087 0.31446199688366494 4.0944226802572645 -1.760392682661239 -2.1335654237037516 -0.1841794322968183
Ni 5.164040673162442 4.28060964146646 7.077099313348886 1.8274923045232139 -1.581574257566018 -0.6581640998520859
Ni 7.1807800121001195 6.123765364327175 9.638637358474044 0.36725714688902555 0.3220234718622067 -0.7555600587047568
Ni 6.355058643774639 1.7103214382183578 6.394082252156685 1.2894414026156569 0.9704245787902578 -1.6428107357789965
Ni 0.4167324273338836 4.0941016586571655 9.638950029801308 1.3249833042760084 0.28422079919213633 0.26392373950599707
Ni -0.03866083541777192 6.4661358286414625 10.670672628965251 3.1091718038052645 0.5334591687718168 -2.6863060664129996
Ni 5.580747121869728 6.980809533864685 7.942691378845115 -0.25569826627241127 0.2665300667805926 -0.33266449651582064
Ni 7.4329211393922 4.751611419762841 11.583507754737406 -0.8103109291933916 -1.7690002218245922 0.12287353429848516
Ni 2.291741657635693 6.507636684631213 9.170677862913866 0.5073174773794424 -0.5489845181009254 0.022424904662419445
Ni 3.758986653628366 6.706159782241923 0.7163680508950308 0.6617021949123314 0.4871392026593546 -1.7211859305547905
Ni 8.172746034488727 0.31429313581078017 7.713457833363609 0.5139475811014503 -0.4403998896212867 0.09335238491091664
P 4.839038776344872 1.5845663293238603 12.41281602914955 -0.21436495474126308 -0.7017949491681591 -0.3429692208759384
P 7.293165406377754 3.73887177417704 5.7663059570001165 -2.202850226142503 0.35450833186378944 0.09134075379752656
P -0.017467842962643497 5.808922966125473 8.492005727020123 -0.022363969517496966 1.280604263940001 -1.3708438142535486
P 9.116150581301577 2.134951368037928 8.636789252089308 -0.7706920292501889 -0.44425140215689296 -0.4553292572376094
P 9.238983094703837 2.2019391123361625 2.9679291234569893 -0.5168876375663808 -1.0708212721424657 0.21368489795510298
P 1.870516783516601 8.77836348896559 10.237081928585676 0.09789732396912172 -0.45684363699960673 -2.4570965904597357
P 3.9099503084035145 5.6021609326509365 7.945216872473645 -2.0155409899674512 1.0339028018495613 0.33336512212727104
P 1.6060358085906354 3.4222015940325745 5.219042064710138 0.6001373868256568 -0.21933258315918358 1.1401801223522623
Ni 8.265090773962456 0.24465371598339955 5.323101309163223 -0.29855418509567294 -0.589370635227456 -0.2814015845757863
Ni 7.814361602493172 2.907193877895954 13.551571497703918 0.23149390111206583 -0.227809253171627 -0.9747905690684374
Ni 8.998764301403895 4.571607371683887 4.859663022439131 -0.3554773806452781 0.6599124500017602 0.10948477169640498
Ni 3.806648155354132 -0.20494816865316487 5.861280104608765 1.3472416014535764 -0.3902191550018376 0.15239262680352464
Ni 6.865362372880899 6.026920755603496 6.061237593530902 -0.23872641430476307 -0.7466820394888366 -0.0014665572431974744
Ni 1.8622129010862796 2.0294874221323833 7.400275283839878 0.25925487327541796 -0.16566697531492758 -1.1451768042359054
Ni 1.2665601055258013 6.716579067123767 13.080772909379853 -0.2780293256694437 -0.08655258838026385 0.5603408236540092
Ni 3.8581971729886178 5.861882252060975 2.95508269260445 -0.35065810487976384 -0.20566279898157486 -0.9433156383886078
Ni 9.028751058962328 6.034009209432283 2.7570003038378075 -0.786644181704071 -0.4031713442871315 -0.8834768118541043
Ni 1.5993555903226675 7.434266461126722 2.0177914733148827 0.41829637285402804 -0.8660228780437149 -2.1078250815148536
Ni 5.339656188962579 3.5522895667203236 11.624952014433497 0.06640593822905981 0.4284933679916878 -1.9674927283099726
Ni 6.079546030625599 8.662044188374598 0.3195890644043304 -1.6070181515604196 -0.32325245917330137 1.9902462199564046
Ni 7.925531568169273 3.84218320530735 2.235822663884244 -0.7757920694809155 0.13331889800152522 0.638015649928669
Ni 2.798139314671377 2.0033325119971033 -0.24739538889754475 -0.792552576768706 -0.37283129854269337 0.6666603102485551
Ni 2.8662218725190836 2.703994627497667 11.23288722086218 1.9892267775529549 1.0545739570456678 0.9649992940096284
Ni 4.502977407061445 1.1138614496171666 1.075293395008672 1.1659801141345016 0.13089357638948426 -0.23324533658553379
Ni 6.152750089145414 5.6373619716907575 0.9384537628298119 0.22208186376954658 0.3023108239246277 -3.0876267306446374
Ni 3.4668291632949715 3.4629416473862515 8.955715861515397 0.45788082001486946 0.5745801071818427 -0.4187776833658208
Ni 4.814785872799778 5.606493796444187 10.031639238219064 -0.09698535367781361 -0.39657826445064603 0.10337145970981552
Ni 6.754136738719232 7.693876443565627 11.997109757566273 -0.18824691749797257 -1.244312114377186 -2.029090703627428
Ni 4.420272593671629 8.389871684359541 2.2754335747890164 0.5082649288943762 -0.09711493727714242 0.8670487482050682
Ni 0.8679394199709459 9.834116317732363 0.5708608355134821 -1.4910194900048965 -1.3951322544872682 -0.7939432864686455
Ni 4.252766120602333 8.29041065681424 9.8218506947459 0.1619995537656694 -1.7624151124079068 -1.1168794999531086
Ni 5.298071830244477 4.693669804369147 4.4892031681161315 -0.10495217393337408 -0.7578840788522432 1.953650680220558
P 3.911323464380819 6.511542756701789 4.974653701841271 0.5163415352549237 0.05303568756974091 0.28503326779110266
P 2.9095319542897427 8.757255854854996 0.6034037043675066 0.2687335021898146 0.027779484106113445 0.7391962726347528
P 3.553764781587833 0.8331326993705543 4.036180455041512 0.3950536002760035 -0.5343533984513119 -0.5206507041532388
P 0.30822155965167153 7.133406130883114 4.420342179278587 3.04998192370867 0.3955855615200735 0.10765183225272427
P 2.396880870708767 4.776346783516178 10.672723084850281 -0.34710638297276347 -0.26810692434940925 -0.2441684112559408
P 6.607700787436817 4.024655222913082 9.59830646848928 -0.968046051255752 -0.7047764003939861 0.8734191705077861
P 4.856286728789528 2.1300247070653016 7.7588397106054305 -2.0842082134268622 0.7198808601355924 0.9359100899531559
P 6.2525636837659695 8.38442545085496 5.942254555905557 -0.1271636770334068 -0.10628349115028793 0.8262252864308027
