# total energy = -381170.1960196055 ev
CRYSTAL
PRIMVEC
9.22114270402282 0.00000000000000 0.00000000000000

0.00000000000000 9.22114270402282 0.00000000000000

0.00000000000000 0.00000000000000 13.49607443472236

PRIMCOORD
 96 1
Ni 4.354315708646191 6.269408692594401 12.003516230277905 -0.36806447328166936 1.0810509202902736 -1.2910485992017766
Ni 4.488750745422949 1.4269164778779486 11.031677889514425 0.9108413199099862 0.22127685136974795 -0.5143065071027659
Ni 7.36954632190285 0.41851907337149535 10.878078552241535 -0.34061383326988437 -0.06097705390400466 0.4551438806996807
Ni 3.9908459339957028 2.384707330128793 4.489212724663124 0.09111835337407534 -0.24995570736167919 -0.6165579942755253
Ni 8.641455394045337 3.145479251330031 3.786215871911353 0.03412496670816704 -1.1467886288077154 0.3643194044169403
Ni 6.679777198093821 6.368932483796235 0.5862286029261482 0.7075411076233169 -0.054267760204629124 0.4089337006922054
Ni 6.482546180766291 1.6570854162814506 3.870161464942486 -0.8752711361148603 2.8048694033719053 -1.381681785409317
Ni 8.15771425752646 1.9650623552557926 5.980933547932368 0.1901428489691048 0.6065016384807878 -1.6517998266514842
Ni 4.9433530715834655 4.210050933944745 10.658645790072285 -0.027510546715442945 0.37767937066361407 0.22724566735867313
Ni 3.634965159637915 8.548238864326134 7.684948124833062 1.503381096894043 0.21781537518370875 2.0787929559485616
Ni 3.3493310489858232 2.4665357488376856 1.8314175703928677 0.6867524530127398 -0.04806420249707851 -1.0289436580720732
Ni 5.405240100333571 4.257143308786566 2.4019232032107745 -1.9009260961333325 -2.0780486215833696 -0.66181120968637
Ni 0.2922917755504266 8.47165727571025 9.485702630009266 -0.49423827559798106 1.4022423831694881 -0.13162042725317977
Ni 6.962211572292005 6.411405066236303 9.910801910681942 -0.5759700455508339 0.306370338705982 -0.30616542178402756
Ni 6.753961289654903 2.496605894590413 10.100461447887556 0.10438601701725894 -0.8207035852816252 -1.205424436173053
Ni 8.025833477227316 4.269250668913315 13.286830933601486 0.31623566153583604 -0.2397738817326709 -0.6927966023242907
Ni 2.808492597992586 1.1239742827186905 12.80431897538032 -0.13325770574628662 -0.4998252827674553 -1.2677019540560361
Ni 2.0985937200657405 3.140241642379541 7.553509959374807 0.027744774213436088 -0.44325381413031406 0.4373258786816533
Ni 4.745061622866309 6.248329160797181 9.187789645979581 -0.510161888806773 -1.139334229412199 0.4516998880151382
Ni 2.346255165826778 6.925529867353536 9.44503831361707 1.2157489580275125 0.04371698127197632 -0.9151458608226111
Ni 7.984052480476134 4.425244736898254 10.805240747488147 -0.33114111789275874 -1.4355834205237792 -0.47653674455316
Ni 5.434305141551786 0.3744281804194364 5.4571643538550685 -0.19150450520332182 -0.3014312495331518 0.5597463846031199
Ni 2.1575537053288305 6.7096905844237344 5.260041223895005 -1.1094870641437795 0.36665833696276207 -0.14424274400288062
Ni 3.0803687640071225 4.464923313155225 9.13051251922611 -0.26443873146920266 1.5387242522800273 -0.03987549603869906
P 6.614214874787508 7.973245301444489 6.424468658842218 -0.36114794866749417 0.9587473995626455 1.0547570195907512
Ni 7.434168088672279 3.79994984157836 2.0519024649234736 1.5790872294781062 -1.129046988553578 -1.14763375041683
P 5.849099795460071 3.2232688096158344 5.35742847637531 0.5854569019953466 -1.3030749342386911 -0.08370252052597843
Ni 8.937610828311001 8.690797727661664 12.277958640255331 -0.7670539182769692 1.134055754622079 0.48159873245709967
P 3.340727723016091 8.290756901782927 12.219021707848539 0.3869672237234433 -0.23505127944602103 -0.031017788537753034
P 1.4692968488928317 1.7994321933390547 6.119552217069756 -0.9926962457042645 -0.6435052122883305 -1.8089546507303427
P 7.048595235405021 5.799526933280782 2.7680717197628777 0.1138852147569458 0.8444430949904103 -0.17465272375330568
Ni 4.950407245610094 4.722266958560655 0.16204867016256477 -0.6457839810201782 -1.1928404288604553 -0.08435712339084181
Ni 7.365359923199464 9.232853369467339 0.7366761536862272 0.7314598232224435 -0.659705990417909 -0.31162773045017944
Ni 1.5375701880995754 7.733301951971409 7.360394337953269 -0.7808918526013261 -1.6965699317783232 -0.2257336015895209
Ni 1.8272800437448307 3.408586110809504 3.5250528292747734 -0.37261429743588087 0.03646081393019527 1.0053224191087073
Ni 8.061814375334382 7.241667517456722 7.9189834882945584 -0.3158481962894302 -0.864387399322821 1.0683797525805083
Ni 7.330255033631653 4.774993451481261 5.583798304061203 -0.23674306532614714 -0.36375479016272194 -0.5113132288023968
Ni 2.8014107605384018 9.106514495821797 5.58717232010871 -1.3201290615075005 2.0573242445518245 -0.7945850338177025
Ni 7.543318752663396 9.115246917786786 4.401150813611746 2.151877077528746 -0.7674616952383492 1.125913585130919
Ni 2.6842008179861443 3.108133624130232 10.943615978463049 -0.061901879711119205 -1.2579875549817496 0.8769762917314251
Ni 6.724472075880841 4.106764916595375 8.409093667950943 0.7932611727999563 0.3930386267285037 0.026646913163567012
Ni 0.6802787239290197 3.680194863691005 9.598623819176183 0.23585963427992926 -0.4259407767731632 -0.2952094369931561
Ni 0.8821590413143626 3.0819179159502252 1.3303535955387944 0.11952312976901353 1.527906592839233 0.5885080301168445
Ni 9.008069578294622 9.101286108013824 6.741127303497699 -1.031034993383463 0.8775691881204176 -0.32533171029983327
Ni 5.797682704777088 1.7271199937092216 1.374116215817196 0.10055095954188488 1.1677359204833435 1.324926482896144
Ni 0.7813562776452163 8.78554496703893 4.3560603488106855 -0.8171665186626443 -0.8630193153307009 0.4712433573647045
Ni 3.493918563675415 8.08971755259527 3.269086822561603 0.31640946810953896 0.9654433235255826 1.5780181647836438
Ni 3.066094435388533 6.461697177532033 0.4861976488857977 -0.842859295443058 1.5258121722040496 -1.3820705362073038
Ni 6.3268748527695 2.9907300375850867 12.270711744350068 -0.9343990526252682 -0.4382051959628131 1.0923087525922803
Ni 4.495878688589725 2.630395451390878 8.99219169299207 -0.09374859190807079 -0.20106386675698276 0.1400284488112169
Ni 0.1196627664621707 6.174209617233728 9.731047724769663 -0.5497681903444854 -0.5039148794557967 -1.9763807748282223
Ni 8.777716217040751 6.953663573177384 5.81864328383582 2.23619486304122 -1.165896810392076 -0.62785645000748
Ni 0.8567667811612548 1.092714609581081 0.34037634532723443 0.17037363676197756 -2.697852890710334 0.4275649426401475
Ni 8.777863755321047 1.0519018327943377 2.5874811762241756 -0.4209685203695524 -0.403600204294434 0.3577597489215516
Ni 4.63033216765152 8.171343106168756 10.266936266458986 0.46915073650173394 0.6531483918050494 0.8316235746282388
Ni 7.1246881034674265 0.142666750702995 8.690243536996304 1.4681428425170393 -1.4612959947985351 -0.4547255622153394
P 0.6187949119586247 7.966624521116229 0.55305738694446 0.23364848556122342 -0.14401365871121005 1.5561172509454941
Ni 3.9890846957746753 1.7395869783941915 6.849136390045028 -1.3215737643738272 -1.9369657633657091 0.002008802899912669
P 8.56030933988281 4.783928738581657 7.322753634192878 -0.5922572127466317 0.386602898405489 1.8884685870962703
Ni 2.566207078319816 0.23291315041699812 10.16814463397312 -0.6699497796331043 -0.05218902329872947 0.4138478501643711
P 5.095714009416126 0.5604038711889242 8.894156194192716 -1.2377547728746425 0.2594505342259919 0.21464700475805615
P 6.3194057273295385 5.361992941921952 11.915063342783744 0.7430920081447331 0.1956468095064695 0.8532900038580788
P 4.095044844454401 2.6974423786426653 13.02707227097047 1.7386141533335668 1.2003130830884166 0.012545697875494522
Ni 8.443809425304474 6.368821830086014 11.853264167739217 2.0008072833017025 -0.7994205075331329 1.7108290128004988
Ni 5.476528753143854 0.6613136001112847 12.9608331158033 0.06805272980386344 0.07795250541607865 -1.8774820061777795
Ni 4.918926265052041 8.065207755781179 0.5886556076370091 -0.4403757212515706 -0.5419134701867571 -0.758731514454203
Ni 4.364606503696803 7.5484733713312195 5.750002021042589 2.0906143740635224 -1.5795633977835766 -1.142185325707749
Ni 1.8665713320160264 0.9917799835739206 3.026778250032537 0.7811703030736934 0.5403127013585405 0.19764738487626607
Ni 6.9466278414357925 6.974328153561274 4.637318105223512 -1.629551042555613 -1.523153908645596 -2.2288551348466967
Ni 1.567455911001933 6.905732074366383 2.7133451610300163 1.2524429710144365 -0.023683973880501145 -0.45811324774064976
Ni 1.7008489586741038 5.277518055310258 11.009274201651554 0.9614619702803312 -1.3237602305021845 2.374832087931865
Ni 1.3079268548196263 7.466377539489291 11.452565874398916 2.1978448025081114 0.41090702236849236 0.590000555501971
Ni 4.669577350210124 3.842782048576648 6.9974584674546 0.28459695158463244 1.539069037213956 0.24159885075655163
Ni 4.6588808248886995 6.3880202488094655 2.2287547572851882 -0.1769734014666823 -0.6008333844514169 0.04468500161220046
Ni 6.082201057184445 8.188623527248366 2.604890693299045 0.35931629477539406 0.9583200822172399 0.5708566355836685
Ni 5.828020263662851 5.970413146433048 7.218348170141767 1.240000631486026 1.1525041911352538 -1.0115349756773224
Ni 3.5258882647869463 5.985904665864075 7.212814562516434 0.063615005747484 0.5285398770933285 0.542355185709866
Ni 8.866571146348717 2.1036100215957876 8.208784633250747 -0.4299748376332208 -0.39557579132806064 0.49391071705523315
Ni 2.4416478851803385 4.764232378162207 1.7378626247432378 0.6277317515041576 -0.14163410273543994 1.1481304875475904
Ni 2.7026615453081186 8.976238194320867 1.2281390749500707 -0.22408783845598182 -0.9153165820725203 -0.46508170863868287
Ni 8.65709445175666 7.588447024148782 2.5936482763405277 -1.8514063921366501 1.1837479796408839 -0.34622192348528114
Ni 6.30952066254974 1.7660239939946418 7.419440079841781 -0.24015209100769608 1.809401508459774 -0.543333233352419
Ni 5.1255628477484105 5.116240272662238 4.384982462319863 1.1129017462522834 0.46416999545769094 2.5544017893708135
Ni 2.8957430485023385 4.332470822019938 5.497220996955297 -0.3200072127631263 -0.0829396742180249 0.1675798760669243
Ni 0.3793614916668172 4.1042475446878335 5.6059050711349805 1.4459951027754065 -1.1450773025435632 0.21906184599630016
Ni 1.6455405458483274 0.6528716441356265 7.8891438711047925 0.7366909897143957 1.1919145746120763 1.1522313970898412
Ni 1.440434672810024 5.323374797054604 7.3099998719755845 -1.5513841071358832 0.7046136495638768 1.0882608077751517
Ni 8.603473508011762 1.9708255693298358 12.2219236013991 -0.304218839580618 0.5931722683617332 -2.4044995330893104
P 8.302799713912048 2.12925401893965 0.7451642153744779 -3.093212966483163 0.5064913819337212 1.0805035324272358
Ni 9.2056233356103 5.441276325295748 3.744229243682008 -0.5454695629691315 0.2545492402696326 -0.17894260937791115
P 0.6549353358312597 1.3384949422683508 10.478608515084693 -0.025029432164802058 0.5061977619527025 -0.649394838299888
Ni -0.0447898555549589 5.62579138709031 1.2266000662637382 0.12998263453944064 1.2044960108215126 0.8162339795460459
P 4.419970243377689 0.8208301445382779 2.976518412735622 0.42683474934234233 -0.1245673770611403 -0.3448178440489029
P 1.3053725983420104 4.954068039189925 13.288262054920352 0.6170860988648533 -0.43232328326073927 -1.15144052575743
P 3.208634856439025 5.605716959827603 3.815150895020056 -1.3813531984253047 0.3385379245774621 -2.0149097841413552
Ni 6.759374100313244 7.674839908404317 12.004406992645189 -2.6566463345650377 1.439612082067198 0.7675290581411749
