# total energy = -381174.3366103071 ev
CRYSTAL
PRIMVEC
9.22134607879156 0.00000000000000 0.00000000000000
0.00000000000000 9.22134607879156 0.00000000000000
0.00000000000000 0.00000000000000 13.49637209425808
PRIMCOORD
 96 1
Ni 5.695573733705111 2.6131543221513254 0.29627816652843075 0.37061346495576813 -0.008056037535257092 0.20713295576919807
Ni 3.210061286369736 2.0355384142914588 0.7593179250763731 0.316763509014848 -0.28733157690697614 -0.7959178936965131
Ni 7.8448297899724615 2.2286518474944366 12.296544426998183 -0.2356937981260263 -0.15198716383498986 0.2042756888260611
Ni 6.866195976318923 1.5644474983311623 10.107190268689967 -0.2515107105536249 0.24942451744855748 -1.0225678364527162
Ni 1.1943211024806646 2.677371777448123 1.9580136342188412 -0.18470625133456575 -0.031547950009610186 1.9692606188436728
Ni 4.0325039372120814 4.493709569990561 10.319123547458027 0.145907019079181 1.4387255656971865 -1.5151726902123324
Ni 1.9437583550483475 2.2670956400177493 11.143832805209039 1.173992700026333 1.4393750263557277 -0.6437314693665237
Ni 6.762741692721167 0.0483401413206308 0.6382379602531288 2.6298374419023096 1.356688091578457 0.37793108166310396
Ni 1.5293879398822214 9.131576445933856 13.265449720356187 0.6311520900396163 0.8289514271127142 0.9873696912850285
Ni 6.316843494720498 7.2013734698755 8.032325579038908 1.4273916287416064 0.1839385199306058 0.09319477628712981
Ni 3.9010628677404333 3.428413544263601 12.393867437473189 -0.19709228370374443 -0.41548512865747794 0.7726501814178242
Ni 2.412912788295788 6.950884820294481 10.090454447377766 0.4121627491524643 -0.10004882309448576 0.25865709179041907
Ni 4.819582725179179 5.581588672687921 7.46991843755196 0.3603552775628697 -1.679863931877552 -1.1226477698954538
Ni 2.4882604085183804 0.024409825662859447 1.9732104128416332 -1.1842372605724767 -0.6459333621138489 0.2318705677251942
Ni 7.880202874193961 1.4100176126540411 5.6809874082041825 -0.09864937164379786 -1.1451498076527116 0.34706215999838935
Ni 5.338025254141924 1.223276129710984 2.479364575789371 -0.40486801526326405 0.14391287146728765 -0.6018116892042861
Ni 3.528760234174536 7.142956241371018 1.2571562779743335 -1.7477659950361641 -0.4818707551715637 -2.370333942951195
Ni 7.571822612844807 5.005955354272168 7.589024112142717 -1.6183754855547676 0.1330695009948805 -0.20432505400675777
Ni 8.193258358092724 5.329412516742843 4.1348433600480075 0.15302023308519452 -1.5860459201841266 0.8508608255912958
Ni 6.028860851280092 7.1224479673072505 1.14702205115185 -0.6531841301389912 -0.6653251363768993 -0.19135563833028335
Ni 6.414423780755925 6.797155756932488 3.406349629087172 -0.19893936421481223 -0.31607213937477824 1.3052966244803583
Ni 8.897040725368269 3.6569185043805805 6.241505095844158 0.10927496967844405 -0.8185006640930355 -1.9073330281009409
Ni 7.960797440433767 3.7347558880911302 10.059845110629894 -0.6489369248268629 0.8536340174610589 -1.4482309340844606
Ni 5.868012908611791 0.49410647406989977 11.823132498186336 -1.0821456960163494 0.6184259007221994 1.0555851719190013
P 9.16931941614204 4.796520138203692 0.21704835953387502 0.4791456429309168 -0.1438308532764426 1.1660647034285079
Ni 9.137810076000001 1.810104162476293 10.244205641970764 0.8698934167427147 -1.4833989973451613 -0.19929829021612774
P 6.23798254157601 5.388825650642508 5.554891031020016 -0.5915535018113877 -0.6454289116736046 0.03668912789091745
Ni 6.693932006991026 7.50254263845583 12.396080560573596 -1.2376030777881266 -0.09990355576587312 0.09437645530005682
P 4.709110997083884 4.844203719671203 0.712120308556327 -0.009278339978132408 -1.354896289785357 1.2806310034128783
P 3.4849680608252407 0.8837581484737346 12.00797899447467 0.6670246355665093 0.20838302612621534 1.1243051029932185
P 1.0337036934686568 7.145796416016539 12.759808264260041 0.9667075349499867 -0.29920904507085244 -1.1731573486092313
Ni 0.47478037659559924 5.9188409691511294 6.702392592176955 0.11494785169350526 0.41138447622554314 -1.0289423725204925
Ni 2.906540674495225 9.082094701947266 4.530772926979996 -0.9085013589228998 0.4506691327577787 0.7588227886164287
Ni 6.975773233827804 5.09827947294413 12.79569497746776 2.2249262321059358 0.5664765042381018 2.657968910031203
Ni 8.13766286154126 8.193138480591452 2.6300376850035523 -0.7445485380856016 0.8643424050174985 -0.07746116760195693
Ni 4.392772713919518 5.747406920985885 2.719937511745943 -0.01178439422943777 -0.23542511784567197 1.2301808171821265
Ni 4.655064686702705 9.094598847464564 0.36048916688285226 -2.148868115499093 0.7403033896560025 0.010520697025665752
Ni 1.5638573321710538 7.842579781487049 8.082640010592026 0.0010230419478756574 0.26109681158016323 -1.0583174832484998
Ni 7.516577527450907 1.4854574463391508 2.946662752036346 -0.02236705484129051 -0.21076669586704347 -0.5139100429952955
Ni 3.2721762747211476 3.230827758128551 8.331405190558604 -0.3887538833102208 -0.18957720627362187 -0.4367687206266026
Ni 1.9654008547010735 2.9375981686709305 4.566228081183135 -0.24197088938398972 -0.44261360944315387 -1.3858968519319295
Ni 8.517508556341044 7.37229112265065 0.5119497790669278 -0.3762110136482037 0.8778314406428688 -1.7726578731818374
Ni 8.408484579607265 6.346471680227191 11.257432413952909 2.5884923032966194 1.8868549627522473 0.8262201442244803
Ni 4.702029003162583 1.2976094018458904 8.124640476364618 -0.29193205179346493 -0.8642503595243246 -0.48457427014565574
Ni 1.592674039207598 9.168646257865667 11.048481318562645 -0.4616940231133726 -0.5875387242250398 -0.7005222531033225
Ni 5.200627194991682 9.090790431462613 6.102829880238056 0.16461539412196166 0.1833818760961874 -0.07957924238622424
Ni 4.52010106296291 2.179474407934152 10.30825895730428 -0.5241412338050006 -0.597682497527261 0.9724868606359252
Ni 8.011939026745663 3.226493725390255 1.1471926460575064 1.2879560763193818 -1.2459771607844348 -0.6528241756964112
Ni 2.3881165882249826 4.563238520728335 0.7438740143740358 0.09371388201539343 -0.1378738643620593 0.2308308136067702
Ni 0.7250772221745825 8.786190922076655 5.7997694135415045 0.11076235285724796 0.30758518494968967 2.1796542476420138
Ni 8.451170191406357 8.971696744621985 11.81882705162142 0.5012100789301239 0.863303679340339 0.9736315157633296
Ni 4.807069358315631 5.86430592741861 12.42663641351321 1.1686630602833035 0.703904025091362 -0.8035579267402742
Ni 6.53800826322113 5.750025783321366 10.41017050967413 -1.552007856762811 0.5276181366100074 -1.8115056992869705
Ni 0.002607796719979091 0.8490831201634892 7.72544470859028 -0.4211222723385973 0.378357113456929 0.12389066270908985
Ni 5.708677266728769 3.5899715305932816 8.804250928710598 1.0143482767564014 0.0680640426577731 0.4079538532774394
Ni 9.137441222149935 0.6347799554087435 1.1721225556489614 -0.5194358579095312 0.5452273650513385 0.18607587798858277
P 3.292573892629895 1.6726876606335477 2.9709969626599415 -1.831353587250833 -1.4123617309916774 1.1892216011609453
Ni 2.676228330512913 6.991366530339418 5.8458051404338365 -3.888179809120316 -0.4412056733520337 1.6499961977838424
P 2.404152509356679 7.0803156362832596 3.4258112803513723 0.5760404937774531 -0.09789552419690882 0.12854795897544313
Ni 0.6321085313996277 3.3596223012259627 8.332916569209257 0.4837713146283862 0.21984448979859558 1.2433667197447813
P 7.72462954158163 2.5786757085162413 8.029572085048152 -0.513386823501974 -0.013636359836512 -0.19546194718917304
P 1.8198880108493407 4.362167065710145 10.049560543155378 -0.05700289974760505 0.3623504536160276 -0.26891373652142075
P 8.911730329947217 3.0129365675472712 3.7573094567535237 0.5584775451930253 0.6714839568894435 0.19693313241806082
Ni 9.142042673929529 8.586170700531158 9.555215236217562 -0.8686729140720522 -0.6480498942362194 0.27180571335723513
Ni 0.9483785766017314 2.504028910608777 13.17174424401572 -0.5916545461656262 0.031322721372681536 0.4634595996542276
Ni 1.987845611477697 1.0251462841470846 8.896255066667624 0.35861489783299527 0.4641332286824845 -0.1904182141176785
Ni 7.5664189039413134 7.239328531047473 5.566916588666851 -0.15482360484252045 0.5261351243065777 1.2072015826781337
Ni 0.2172088109586545 4.307751901478898 11.657869374932725 0.9891092996839547 -0.65946816337549 -0.07563928390186973
Ni 6.80575927298532 8.315957591317765 10.23734957103263 -0.6358199278289308 -0.5024161834230831 -1.3160343226128368
Ni 3.688317188367599 4.621167017881477 5.022445887774073 0.6390284074638994 0.21048875961530847 0.4156409375090519
Ni 2.696755047269184 5.471319814210163 11.907539168966592 -3.519492357542668 -0.11882301837819535 1.1401688094983524
Ni 0.2852291494496509 7.351828955318141 4.173901294231683 1.514979343254604 -1.2464967807333307 -0.8178262637338302
Ni 3.6831347917741466 9.12918811725467 10.049318021748961 1.7085618140328769 -0.987116437623642 0.15551368893100959
Ni 4.451079286268979 8.252035219101023 2.9578113596546443 1.657339782633107 0.5342605816271896 0.5293898837984495
Ni 4.020101226503552 7.7358980267012 8.074366618735008 -0.5091211062470844 0.6595728072741545 -0.9553836252967352
Ni 4.049406664891436 3.5213093864031673 2.838557221389235 -0.13576633110075326 0.43956608086608173 -0.4436302236331263
Ni 6.335590491650192 3.9024091842931807 2.415458801995881 -1.3463815674461264 0.4568179259679939 0.24397686407042496
Ni 0.08497286144011079 5.676208906576554 9.014348237439945 0.6541176976968541 0.8506962749889737 1.5902165066220484
Ni 1.4701500115613384 4.88539547337752 3.3903026423399742 0.28286814181898384 0.3169817956732412 0.27699008577165196
Ni 6.072948107709442 3.8327511347078835 11.389494080027296 -1.3489737536533348 -3.3221115960642265 -0.4702995053941965
Ni 3.3567636838879373 7.718552674401763 12.359681140514283 -0.3203823367143579 0.6402620227606844 -0.5434219364114835
Ni 6.986654422404803 0.30933559282082956 7.873351413928952 -0.774515259651021 0.3704797675913813 0.18861175703655905
Ni 7.813080694827879 5.635137030371509 1.8634985236774775 0.8016357700168968 -0.24804126394778572 -0.5475966366144633
Ni 1.6094568893856813 2.050661422144237 6.575540986734775 0.9134108804093753 -0.9609595767226159 0.30892832924114544
Ni 0.20487249394313814 0.7238812135657379 3.905431941594486 1.7445284619354728 0.334386878523566 -0.6637292526446892
Ni 2.6041358455171686 5.5188005260601365 8.16151295148664 -0.921376158003039 0.7854177654961377 0.44798335839549946
Ni 1.0257733356921999 6.485741672666527 1.7846255827828625 -0.012985099405758283 0.5746541549528877 -0.7599764426048976
Ni 6.749592052966251 3.067453166587287 4.585810532083232 -0.4741721009757254 1.720149518870476 -0.07834254176564573
P 8.506037201603936 7.739024063080524 7.6072980540097 0.2035213271585398 0.0448364395884002 -0.1683092980337811
Ni 4.332188469045888 1.8510377184875633 4.926257102888027 -0.05209903468808446 0.24043722634828268 -0.2121880016946023
P 6.595973645759279 8.89878355980984 4.275475345328719 -0.350206619164642 0.5354162924981876 -0.38530474841935575
Ni 5.478899760829055 3.0300237221516606 6.5783073906102825 0.3994501866818024 0.6615278741179962 -0.1264108580277823
P 2.1299834426013096 4.276537644416914 6.528924315028586 -0.5398051655945025 -0.6353537868257897 -0.7472697936715066
P 2.871250582389991 0.253778825923623 6.980121098585478 0.5128977996806973 -0.609311340015441 -0.5864840577082803
P 4.874956909420603 7.008011060323726 9.942710037733123 -0.5482221860136043 0.717616489581448 -0.044743365653961656
Ni 4.505826418965287 7.013267227687192 5.0240384142717405 4.370018939722996 -0.6849300550920203 -0.9696182808388786
