# total energy = -381167.41284484207 ev
CRYSTAL
PRIMVEC
9.17260572172089 0.00000000000000 0.00000000000000
0.00000000000000 9.17260572172089 0.00000000000000
0.00000000000000 0.00000000000000 13.42503565493386
PRIMCOORD
 96 1
Ni 3.1095775933373546 5.194877808581625 8.316487109019954 0.9339095145833595 0.24098975641764303 -0.43702943048715703
Ni 0.7994192008848523 5.367579631633525 8.05122176849601 -1.2861802153658817 0.47112431528833704 -1.0810460351942672
Ni 8.489953010139638 0.9059048995247408 10.299043131552892 0.9536450453390737 -0.0947981162185077 -0.8269765627745307
Ni 4.196623113301278 7.1341501386024895 9.636074698117467 -0.6492354299038883 0.2607916216349186 0.523706203150111
Ni 8.004639606918213 3.8045033855741854 2.3180743513060067 -0.876503980080697 -0.1297203820169895 -1.7124660341832896
Ni 2.784115192363935 9.153169103933172 11.719612855776846 -1.0446602974763814 0.8332829646085327 -0.44126917960011747
Ni 1.3138657175646993 6.152562068162025 13.124650606505273 -1.2122877389517897 0.7285912434253968 0.9851636847726453
Ni 2.3471597672139777 1.0446497356986866 6.744831724703739 -1.836790184885372 0.7436908180709967 0.34476025133809013
Ni 8.168801733918418 3.539002309079748 7.233355539974676 0.7041796473502517 1.375085363138722 -1.30400413092118
Ni 3.3741797544579293 0.7912702578426115 0.31886638010255575 -0.72931758006846 1.5360446485653352 0.41631893741268294
Ni 5.310168291582439 4.4183341694404055 6.082910802857038 -0.20029947778713247 1.2807441319519748 -0.8710740673143773
Ni 3.0762902066868687 4.008043509513089 2.790044364789086 0.8417506357599116 3.084581258950094 0.8203690847603421
Ni 3.4910387530600757 2.9586240187694166 7.729370622447996 -0.16422150111765266 0.5922178748682639 0.12855644361587537
Ni 5.873879957052888 6.564650558837068 12.531626961762218 -0.8288120733213725 -0.3489814885082893 -0.8279119301046064
Ni 8.63236688865588 8.332514403231691 3.9947808387062724 0.6856396795645353 -0.7074187231128397 0.021307760338840725
Ni 5.124377159974395 1.5413004797578091 12.145643707352615 1.2984466914380606 -0.14788471163084208 0.3270312094894432
Ni 1.067764702455155 0.23769340458217145 2.2948887554844495 -1.0703489604917373 -0.529994607261984 -1.7387733046192506
Ni 3.222501544027388 2.6151741377128883 11.725171454925427 -0.8378767546268021 -0.13518808999978008 -0.5273756815818982
Ni 7.626021955010771 3.258907616668826 9.859359773421438 0.05279194699005102 0.1374105515723956 0.4677898515984653
Ni 7.950897309209424 1.335448859143259 7.900566303618383 -0.9108058386863604 -1.1735340152223597 0.5206923560244516
Ni 5.880575959327579 5.43796103636463 9.892493060293546 -0.018544595771406772 -0.7667685258260666 0.7072467163113497
Ni 0.7059026496643966 2.536830911099 10.996957358777525 0.7369488713614728 0.22823399941387146 1.9417973804263977
Ni 0.1009326030548226 3.600605530006908 13.249275133224891 0.618551113446154 1.351939264039562 0.22285499449014523
Ni 6.533803085344209 2.2965269828902843 1.2989217081045252 0.5126550875422718 1.0979016732990254 -1.3539218416872296
P 0.482977140509969 0.010620043059777495 7.355859360220446 1.1395746275577792 0.2294817557780435 0.1703263284638099
Ni 6.186977685332768 8.289375637892139 8.329952494416183 0.24250516462090496 -0.11648897092838004 -0.8496148689993368
P 8.272158656700913 5.440905442844322 0.5113076509560122 0.19686654084618355 -0.29378093207674566 0.47507841484007857
Ni 7.67554485402592 2.2917847456628664 12.182911087683909 -0.7362140500779772 1.494445227856994 -0.33810443658446926
P 2.249535723091321 6.550625644483639 10.70755338868361 -1.729404461809841 1.6693800016270925 0.1888686102423715
P 5.854599139544119 3.6201982161147717 12.133936710498935 0.30195086948204775 0.5415105783213835 -0.46604921475827477
P 5.042630896588028 1.6270918623265593 7.934263705750621 2.001064650728147 -1.4622609298149656 0.6846112383000209
Ni 0.7115804926891006 8.27106711660408 11.10859989642951 0.395266487617758 -0.7933516756312337 1.148259556926287
Ni 0.4322122706619533 2.7791252947784115 8.737751874593082 1.3641833715142377 -0.27806146445895985 -0.08897868132325322
Ni 1.275551742905267 5.519624746298296 4.350503666397783 0.567804479020906 -0.4208906159437654 -1.9658827035103754
Ni 8.936649742708394 8.042513296496569 9.117908689763116 -1.2788803392703587 -0.7703570145082732 -1.382279566894316
Ni 6.504303984912144 2.3731365869974375 6.155298256488794 1.329701021466652 0.2933682700193593 0.4225487203724787
Ni 0.6242838854994233 7.224298508952717 5.85567875525334 0.09882240688655239 -0.4078715779762782 1.1649123349916195
Ni 1.981750667738804 7.507273399602341 8.008060988902404 -0.7039063390842071 -0.5980740765387248 0.018449464954439193
Ni 3.32959171739317 8.860260281141779 2.465333200235252 0.9215857029106838 0.11234949483870973 0.5382133956273505
Ni 3.8028247987025843 0.970938675041948 9.954342107057641 1.888326405091451 0.7325168037320481 -1.0064681026773763
Ni 3.2628793550043618 2.0497471949474155 3.6559053361900022 0.9331718650863864 -2.849209105829545 0.5811395055669153
Ni 6.1892341463732805 3.884222503066434 8.060243943615717 -0.6952301514664478 0.25861004060256754 -0.32739990568277166
Ni 2.229025776397883 6.425153568982951 2.0987628488587418 1.1273603448797747 -0.45428564646444347 0.21547515708630632
Ni 6.809228921374559 6.947964584942648 1.0449616042977816 0.48238497580382084 0.8926106558345724 1.8132561063191739
Ni 8.951812060187935 1.7068660154539432 5.647227618139272 2.002864165830731 0.2357213089298521 1.3258898752506778
Ni 5.3018670832829935 9.047335577569626 3.8527843137564664 -1.3135570647169377 -1.230201900228049 0.17304552716718585
Ni 7.123170529393167 0.10976215345155935 2.2898548293908183 0.044678316743981115 -0.7477711587879573 -0.18533462894718405
Ni 5.167167366291429 3.1948002743430486 9.856755670618993 -1.6576789111400807 -0.866650998546017 1.7988345315772052
Ni 5.987088258524449 4.608720776582176 0.8847583739849144 1.408274191185865 1.1599128248944992 -1.7457615630116257
Ni 0.5003693184730404 5.145474153442601 10.302601185364335 -0.7580637989632171 0.3930885061298327 -0.11114493300764729
Ni 2.7202738556079744 5.829145158294437 6.170307391450542 0.3307150860989337 -0.01560479641679248 -0.6522312793074186
Ni 1.7390526894017402 0.43013284091445675 9.3267212275479 -1.4365434704442033 0.20483233266047948 -0.853992429241742
Ni 6.043105362485463 2.0680924066588986 3.6089049037851826 -0.2035958891502171 0.7898313211828011 0.4679353760373941
Ni 1.7809806707683344 7.713326817545719 3.8419092722538988 0.0934662847809616 0.3712179313089865 0.881992513999094
Ni 8.288284097795307 7.100752680681734 12.44341034220521 0.4399538032228036 0.9579215612272407 0.3984919365335911
Ni 7.378480840781876 5.984712553607812 7.037323193928697 0.6856648763755159 -0.3144952818059616 0.22997155093026844
P 0.984459096073311 0.7411006901146335 12.662373285629958 -0.8055070800468451 0.7342543552484452 0.7697710600978162
Ni 8.830852906768271 6.734362112379997 2.344441006838336 0.31409521815406555 0.833289392366436 -0.25813104408362
P 7.728507480236971 6.204295565188408 9.301669923695282 0.9999745245332327 -0.31531469238346344 -0.5790677106395511
Ni 6.5203927355831155 7.646229205710969 10.56812152433107 1.4082713629723875 0.7529452467897291 -0.06508233432162985
P 3.8138227531236186 4.008630556287857 4.711945613840348 0.15832313335534667 0.2738834218218702 0.9988972323086538
P 0.16303940004346265 4.88939334316201 5.9268710183420925 -1.2821890919286174 1.6687238561003326 1.3647608412842624
P 1.4997485752313005 0.7233113383180084 4.172877071261935 0.4726116984671409 1.1729151506914381 3.017393191139371
Ni 8.609251921899412 1.706590837278271 3.4181752411844073 -0.34437972807021977 0.011387158791019097 -1.285882738730121
Ni 4.115748247471205 4.856959008856108 12.861681169227023 0.15867177494401705 -0.5352892800020201 0.04279446945770694
Ni 3.4241337659482975 4.898015592666407 10.475112218214436 2.8870824838365503 -1.1833790263372392 -0.24280572658045926
Ni 0.7717426972363235 4.791769299039353 2.0907349842137966 0.6162486905652226 -1.5301447381411326 -1.5172267445278835
Ni 2.1635884062230235 8.054456029320743 0.6068522653311722 -0.9872069404549192 1.0241840318999007 -0.7587310002335708
Ni 3.837708218771969 8.720790809105228 7.924892971608396 0.9213815573196776 3.049367944273755 -0.15425796214703755
Ni 5.2492163256710365 8.853261582873847 0.32934057872922695 2.3397550417230737 -3.1678217522379892 -1.8602116491331058
Ni 8.641126727248114 1.727660312928909 0.9071954851686436 1.0160542037039146 0.23171604442520097 0.39053977156604996
Ni 7.048927457596796 6.273053418683046 3.8569725255901974 -0.436589514736261 0.02263933466607069 0.10240163959737848
Ni 8.752757340512488 8.751133789276022 0.6859439765828887 0.3962890153450014 -2.3300861511747417 -0.993321023772457
Ni 7.473664971746905 0.10268640529444038 12.167821233790628 -1.2183213467403793 -1.1510299205825725 0.7846109533241261
Ni 4.236982579066541 6.305643687288495 4.305824820535052 -0.021161721679279683 -0.0039227320931738896 -0.7641516570285098
Ni 4.530891215896209 1.6105444813628018 5.70984257749232 -1.2987901908204083 -0.47030156227672554 -0.15234840382915055
Ni 1.8567647403484706 2.1926930846032913 1.3059204063724559 -0.6982661100792942 1.0773801563069059 0.0927728582583628
Ni 7.752915784419098 5.116241058580353 11.733132359547625 -1.2303029445822877 -2.578129729115373 -0.5376441533874418
Ni 7.896412030426318 8.40547331020826 6.498119814044204 -0.06296348820641415 -0.3136735572356146 0.6646090841464812
Ni 1.2171589340276168 3.1743270180730336 3.713727608983425 -1.544546258278443 -0.953237782598326 1.4864221004422014
Ni 4.275654285354347 2.9604493673347094 1.0154643383868882 0.8207292963132381 -1.421421012980468 -0.24398714848307007
Ni 3.3048256815826673 8.64131017936523 5.4934846541306035 0.6096227006082727 -1.2794673221220803 -1.1662876180725912
Ni 7.2044306446691815 0.5446207209028942 4.852788224973502 -1.9472596890925493 -0.004949373585475347 0.5310672715008724
Ni 4.357171233594321 6.91785091991825 1.397385045662982 0.7980351971498321 -0.768163092180748 -0.008940239912423311
Ni 5.709213336730616 4.2459442149876 3.0161087396673487 -0.7615939236036626 0.9481791371284961 1.9364129761860331
Ni 3.567932707948757 7.081545244019813 12.43303337320061 -0.33598327647640847 -0.9855642626451737 -0.3008519799909141
Ni 1.9249080292507743 4.4837440217976985 11.941610097218675 -1.192037987563818 -1.3830105315230696 1.3891187013033366
Ni 8.05724450150089 4.080140191539217 4.478981604837397 -0.963023144119864 -0.34438846982096816 1.3365967201452205
P 5.112370218909229 0.9708744668009577 1.8355916142516626 -1.9697211034198594 0.22427989986212984 2.795626030396766
Ni 6.286537149290986 1.0333032222551344 10.06201107185292 -0.6706131242487161 -0.5191011002779319 -0.8488782479436284
P 4.819415533088558 8.563985112001328 11.51407585554315 1.5763559465898722 0.36152487239093867 -0.8221865975850551
Ni 1.4041241591851954 3.4152638560857955 6.6493669119995245 1.1790402897525694 -0.4962640477787582 -0.4735113274632749
P 2.320614245867462 3.143681341909001 9.577286549927432 1.2976761318206234 0.0002077451354319003 0.9025597966274844
P 4.408592862021608 6.89590087410546 7.1900195636092255 0.17815713736213834 -1.2256595322730053 -0.4227436099921042
P 2.615596077582252 4.174241955013269 0.8808811134896924 -2.4486245484329827 2.184643473326489 -3.96292357779111
Ni 5.922935053169393 7.534534384205605 5.724085799865115 -1.0850392155140602 -0.2569848462943187 -0.21698568019356176
