# total energy = -340860.41911224293 ev
CRYSTAL
PRIMVEC
9.36303189129819 0.00000000000000 0.00000000000000

0.00000000000000 9.36303189129819 0.00000000000000

0.00000000000000 0.00000000000000 13.70374360268494

PRIMCOORD
 96 1
Ni 8.290786815929211 0.6361534100826105 9.007703866244466 -0.7470563921091199 -1.938112732485959 0.800308566565041
Ni 1.4810911950428776 4.464302954690009 6.26474844047172 0.7004019254753744 0.2928460789673021 0.0990131827411198
Ni 6.5877543136366175 7.168589995177123 2.1829927511615255 -0.19246481223406206 1.0208331131497967 0.08077069159116411
Ni 0.1690982280286587 4.458872396210223 3.3997346587434927 -3.6949122984793012 0.7169850266450362 -1.4051546717202767
Ni 1.6028386983405516 5.94370880399778 1.5911967045237148 0.43599558990600396 -1.9183540618017931 -0.4518803794570605
Ni 4.032255212463764 5.548279879382641 1.0574018313595714 -0.22463856875312926 0.2667020735820826 -1.2917659369837753
Ni 6.711402512402216 2.0401203753774864 1.0148571508831967 -0.120139937417406 -0.7446914914213691 1.4986145287433352
Ni 9.348247634389512 6.970870851353623 2.8792521442803136 -2.8185558997200615 0.2862128899215006 -0.45136693015575163
Ni 7.740867865596036 5.455735672461607 1.2008715685763873 0.7154814455163161 -1.1445437986375966 -0.2922716945210709
Ni 8.29871730391607 4.736851449152209 7.83351225695799 0.21267779684682728 -0.29402878642149366 0.04636418908683628
Ni 3.476512456312612 5.274448649555389 4.847480352114115 -1.5932254686517013 -1.1742696078368033 0.43185379982348854
Ni 1.0938736493704482 4.6524905320783 12.530894781600393 0.32255646154754125 -0.48588630408885997 0.05187380605115583
Ni 3.046590122318973 2.2035989116827532 5.904765145575416 -1.7965794169944416 -1.1704268370519455 1.1943859189707042
Ni 3.7551001063256084 1.3617593539655222 11.174649317098226 -0.27787428814881826 0.3106869638034649 -0.4065826839615255
Ni 4.539310202934081 1.4065333723281674 13.541874700989661 0.2043818753866222 -0.20878797487411785 -0.06919507093842277
Ni 6.984231897820267 2.933250621633105 10.786381239250913 1.2269792795256933 0.5209702922761866 2.847694726067547
Ni 3.3058618376012836 6.2199650590772135 12.636592175680743 -0.11934392387867189 1.084772335005919 2.0711562653389106
Ni 4.90475869952806 6.492579094762446 8.813699973463688 -1.4133747456372239 -0.22858752609854824 -0.29973123612290964
Ni 0.9139480112969206 7.869497197312058 0.3631002482030648 -1.3024982357996149 -0.655567028548871 -0.764030043848981
Ni 9.14931129642399 8.292790504747614 5.076867142300255 -0.9028261629149936 1.6052772576099128 -0.04198431485158576
Ni 3.9386904350698044 3.970983531960805 7.15495742078649 -0.3846771421376859 0.9051000465508346 0.24046113760768262
Ni 6.615702963743789 2.69533598202733 6.117117771895566 -2.7065301067693577 -0.0016743023786293745 2.289951487937385
Ni 8.365307186516475 3.9508904655855988 5.447978400564189 1.2543481584569491 0.3941992226955082 0.7631067607037632
Ni 8.783656813129054 7.0784427244126835 9.666538284708858 1.4604398174458268 -0.4749586014327626 -0.03762295255909649
P 4.173974062722443 2.925797648271192 4.445864336044766 1.4475485633054554 2.4553220150578166 -2.379719240820837
P 5.9790167971482475 1.1237698101048537 10.069058769656047 -0.2241459453874269 -1.266855804005657 -0.9181458239911994
P 5.381833261977215 7.260188535880126 13.025969772803665 0.2292909799234761 -0.10948091504166306 0.1311923385768257
P 1.5541415696278542 0.42554418029510865 4.931648390731674 -0.5751917726239126 -0.2752412214013453 0.7913125337140179
P 7.862559190702539 5.811081457676813 4.15305611324022 -1.7452509419237945 0.5606498702539957 -0.5740517454821984
P 7.958745617017775 7.3826569926311505 7.713111157642029 2.1905665236791436 -0.6457042768221782 0.058304392167847975
P 4.974859719076601 8.768778955500814 7.990556517767898 -0.06478897145092713 -0.6561252150451861 -0.8980338837326728
P 5.762374965932254 3.9495515520293756 0.89369951859281 -0.4414440146150849 0.6906114217475138 1.041008816766723
Ni 6.3386227618605275 7.628371037777721 4.572898207131554 0.24875705906788773 0.33971857514912457 -0.07962038003680481
Ni 6.713584098825992 8.156296226267765 9.4377956711148 -1.0139579832965182 0.7160051792302701 -0.01536594093310902
Ni 5.67496170047143 5.243288479519654 5.093023990080803 1.785701593739673 -0.49873693479928305 0.31526892674719253
Ni 9.236518575183856 0.15464077053100905 2.743503163136655 -0.2532397774295897 1.228918148419619 1.213644252979684
Ni 6.229487262480562 2.8732054983040283 8.801846375126777 0.6537831971755708 1.1436485405168368 -2.7008942486398193
Ni 3.9055453022793896 2.719089993860461 1.7623969332053249 0.2464872891971045 0.6482584107025997 -0.46657192003096426
Ni 9.141071828385694 2.552306307308014 9.261154584618358 0.36191953672619603 2.7314145287158635 1.2959828032786003
Ni 9.59785670079055 2.05854682208131 11.830167349677202 -1.2701118490491095 1.7568299050106455 0.39123808318465525
Ni 4.2530916819538005 3.753077691443481 12.818166643665116 -0.04382213939127291 0.3276487884687841 -0.21028975623062496
Ni 7.161343008516169 9.232707821216144 7.0947709156763015 -0.9202235324558347 0.7230055218075032 -1.3551405445856792
Ni 0.30747073069996556 0.9475856395632609 6.9585828083383285 2.650719170447325 -3.7053149818698636 -0.9462430964480478
Ni 2.2825948114999086 2.3704481394582313 12.741384164580065 0.29660451756846984 -0.014617749913174823 1.4605321200493169
Ni 4.677517916244621 1.6286525771832558 7.713563392080949 -1.1474301190464562 -1.6004836928760113 -0.6558583345370447
Ni 6.84378641989478 3.4600428832678833 3.812573204802276 -1.1671828761933511 -0.10906876720490893 -1.517683115339012
Ni 2.7946590240162346 9.274373313000705 13.012965457850951 -0.17304192762276005 -0.7940235048872777 -1.5685552195985308
Ni 8.119555689242457 0.4257286320227841 11.512076131936512 -2.1554853637052944 0.30260932900165305 -0.39469827381911377
Ni 1.8471857408353136 8.132710749008146 3.4647861952090198 1.5553060678981085 1.5247600767904514 -1.89656164851705
Ni 6.852297415857064 5.470716523440325 9.552166977911828 0.08378633848903634 -0.07921774528174744 0.2050755590195371
Ni 4.816502761199684 4.7913255685235745 2.918335311877418 1.10417336524035 -1.2728217917811047 1.1913890411259096
Ni 4.093367721425075 7.222867490879393 5.734619194281432 2.1210901740548764 -0.011510057522128565 0.0630557908099043
Ni 3.956049496141395 3.0681625477283276 9.514372163498896 -0.946233583366351 1.3248560346695248 0.6460822289868874
Ni 1.8800593457017394 7.325458230988031 5.496187715316892 -0.033637228438471105 -0.8792828283774147 1.2013942319677373
Ni 7.440380084058526 7.394913201338115 11.589009355834536 -0.22427372921454278 -0.9179141675963675 1.4283822747896495
Ni 1.768011943412786 2.902979939624232 7.999396156148528 0.3054840794462868 -0.3535431397370427 -0.3107389000873229
P 2.693585095069192 6.450024114951023 7.502442940753799 0.4282010335622497 -0.8594521668047327 -0.3875302953157649
P 1.584899129293536 5.881444642117482 3.9431697095124414 0.9289891944636065 0.9512703744593101 -0.016163754244056035
P 6.407562765458218 1.7375259116710935 12.49414113633048 1.155913473927119 -0.30698946034721963 1.1392884637759284
P 8.558129464676307 2.457973761301395 2.9839898275948387 0.2586321520897546 -1.089251453823195 -0.49898067537897284
P 2.341956433503081 7.747590522472737 11.390839850178487 3.1203347624006197 -0.7294309657178728 -1.2309968853255187
P 5.87608898789259 4.8150889433885675 7.327761536826008 0.7665001026560283 -2.2457999902311516 1.099868310107093
P 2.3420687898854213 0.9311123213057874 8.400203206265028 1.1721561610382263 -1.1486701621011444 -1.5317051406497169
P 8.784452670837299 2.6158344784896426 7.171977540104686 -2.363489923446168 3.7539391706354706 -0.4841682929564888
Ni 8.722928188474073 4.543139682965516 10.777076258186757 -0.09453226415163075 0.7217983888732795 0.7946909632679475
Ni 6.3630134598602535 0.4324166456815958 2.8542706389701142 -0.31856328122774813 -0.7835526872629408 0.5173632916512186
Ni -0.1487738947664684 0.8467045890725697 0.27648377675367225 -0.011165272588200126 1.0756420905698765 -1.6834660474065135
Ni 0.09112477129080065 3.1008395289256576 1.0395905358490614 1.4552641867821583 0.10111840200958068 1.5150582761216553
Ni 1.1613623830295754 4.7565606312210855 9.316572497601383 0.7622351567320873 0.6465838512136542 0.15931609339623531
Ni 0.8418929269988426 7.713921059898066 7.481777793131842 -3.192840385769514 -0.16936370744022444 -1.019616467133876
Ni 3.001984638529838 7.77180332286709 1.2816436355377072 1.7809720494744876 0.2412394105346039 0.35656110062776014
Ni 0.5430502301594328 8.41151374875396 11.712082664443825 -2.3882640450670545 0.23183071562619428 0.6308718397950361
Ni 4.243747376155825 8.499807139209782 10.063892248674762 -0.1421544940152842 -0.10523576661206392 0.08703467022300496
Ni 7.82447974012101 3.3994172519633814 13.341799818349756 -0.07700531101146094 0.7940448450435164 -2.7642467447545362
Ni 9.227164906354018 6.070474892373325 5.830161444004583 -0.7564478606263487 0.7473435843322354 0.5387474137539495
Ni 6.6406928957826645 9.02951130375355 0.14123197260186976 -1.1540741067255351 0.13943889485633404 -0.3625337732714272
Ni 5.4207553854262995 9.2301517135179 11.843610790824231 0.8989756788206517 -1.043731615014525 0.2572105891518796
Ni 2.249599487219281 8.06215094089838 9.005620591655239 0.9094608946226918 0.11699599247178562 2.364859807210501
Ni 3.4842744097259604 5.909131127332526 10.519664977335365 -0.49002912261263987 -0.7087137877751795 -1.8434010053336705
Ni 6.079585122374758 6.760240086592839 6.866425294633183 1.4117302680552657 2.71521940701324 -0.5688450044702784
Ni 6.243634803623589 5.15041656648346 12.892194518776455 0.7742774326086019 1.877487662604734 -0.441520119268659
Ni 8.059969354474603 1.5436081587834427 4.943173346650239 0.5543581237080131 -2.248055876144864 -0.798453001413541
Ni 2.7878989150120876 1.4214299560201307 3.481860620112015 0.37355737807544054 -0.38628356739285735 -0.19294817962838381
Ni 3.1072625687827835 9.070137499001461 6.545661867599162 -0.7191023300983551 1.5575334145667306 1.1838245985150901
Ni 1.3638566731025425 0.8441522265870706 10.225829629935593 0.14461092597557676 -0.49384875346904633 0.16066926499002007
Ni 0.9003051375712388 2.6583800952692034 4.626616729831681 -0.18916377288528713 -1.944713011411296 0.8688284658133101
Ni 1.9112101527056125 0.5080165738425131 1.3604185678029268 0.3748917806161479 1.0005509658619929 0.7782047926874662
Ni 2.270170068219434 3.9666578112407 3.251596513840434 3.0553069354660094 -1.089151695020537 -1.6883112913139569
P 8.791980548454104 5.994990129504307 12.972306491991523 -0.7531229100181739 0.2949584973246146 -0.46014056258332364
P 5.429640902663052 4.685813562474087 10.924267800568598 -1.3495548229677856 -0.36968606804549237 -0.19451783810834886
P 8.361608788931104 8.572576622838909 1.0804030554310216 -0.33249377526591123 -2.695912993375144 2.0659096722279906
P 4.14062294323107 0.41330201613593703 1.7269597302151662 -0.08487340090562802 0.4779806760885381 0.6883156837348017
P 2.1014856861990623 3.908831726462846 0.6887736491453597 1.355192995090169 0.3914874801913 0.5871913681879499
P 4.525986608594883 7.87352330101259 3.054358629854625 0.6563504436821148 -0.7668687988493568 -0.17195100855142645
P 1.880415140912484 3.0681438216646044 10.68680914061449 0.1081359709779944 0.3387749802889327 -0.5899334497094615
P 5.931031258857041 0.3658108459270267 5.238530186727537 0.8505072989066191 0.760463152433329 -0.31404585297336884
