# total energy = -340895.96565074724 ev
CRYSTAL
PRIMVEC
9.04237296413510 0.00000000000000 0.00000000000000
0.00000000000000 9.04237296413510 0.00000000000000
0.00000000000000 0.00000000000000 13.23442685008499
PRIMCOORD
 96 1
Ni 6.198419891864209 1.8813741484742954 11.284770811254862 1.1827596475856854 -0.06289818218611748 0.7661144371818355
Ni 4.56888486542641 0.2430580739086148 5.9542215747582645 -0.39804045081846934 -0.4730477575632949 0.2625026907887544
Ni 2.5494427282129206 1.5685532649565543 4.972200910677269 0.5491169299137317 -0.8458469173164722 -1.3227065924266899
Ni 3.3054122129573553 4.207859093050941 4.82949328050628 0.7882899448376102 0.6194872521071783 -1.1321809061968695
Ni 5.288585393275638 4.572022568752921 2.803911372230252 -0.7020021800829587 0.5549805877833603 -0.2568861159329254
Ni 7.212151252762906 6.269655703985982 2.7089944902473824 0.6844243191001954 -1.0348548813501854 -0.6385280707887132
Ni 5.056576194567784 4.688786727413553 11.614241415623052 0.013332712553164136 -0.41305235084626923 -0.7147908472071948
Ni 5.431120314128077 7.840623282453137 12.357711628585824 0.6043269994269721 0.4969824140020215 0.22079862618174875
Ni 1.8864197924402704 6.467991106763208 0.46672297108994243 0.13416247694874314 0.6541084417254736 -0.1816227273132356
Ni 2.764967681490717 1.530647638602851 0.407437558727008 0.18289388071617535 0.6592269938989614 -0.18354796936040646
Ni 0.5581621565328231 0.041697997463613565 4.779666189986373 0.33603572698089873 0.2685368127979762 -0.4013072944951992
Ni 8.654138427053242 2.342173461209202 1.658723805509782 -0.11780383308506163 0.35791272955964815 -1.2821386983066563
Ni 6.671381195879108 0.6584221765434607 4.7419739636283635 0.8874622788644135 0.6846526330609177 0.04333414401126085
Ni 0.5652676529996027 7.2773829294126235 2.6328170214456708 0.4300905372754787 -0.1694182148272437 -0.157827938886483
Ni 7.5097628654011315 3.750785237867973 3.6369263935554903 0.9388210929523637 0.066176338716757 0.47365839456410036
Ni 7.699083022597574 3.675869180057755 12.698471635268564 0.17994765360365783 0.3379889940525276 -0.04549001401199908
Ni 8.036218846302603 8.98635520001008 6.701702080012991 -0.00859108410312069 -0.05430478409015163 0.7607755414674253
Ni 6.71034477983858 0.7470184400098134 0.45684417891641643 0.3487683440562187 -0.6207352655816664 -0.6336879690875926
Ni 2.0514883060583182 6.4637411915947345 9.25504659204548 -1.1405866137620613 -0.03893010140629424 -1.18334380222393
Ni 0.10455876399168504 4.87896591001639 1.293247377291925 -0.3761598486952941 -0.6254547825445228 0.4217447364139446
Ni 6.341569694060172 2.0757218648913156 6.948735180960033 1.1795797071958072 0.04591553158519189 -0.4230020058598134
Ni 3.593095300372211 4.536449874555529 0.5663418868762294 -0.20806549488579648 -0.6402573947749941 -0.5412352131728098
Ni 6.1841962396088705 5.725133062432149 4.84918666400717 -0.6601561905814501 -0.1415698251564078 -0.14781117808042932
Ni 5.313867867341705 2.842695917210287 9.138041002033786 0.8128555499921162 0.06503322625124928 0.1352197145686639
P 0.230054237730356 5.597056895525218 12.423831266234572 -0.04937726488154722 -0.07975819116624973 -0.2740099200974055
P 3.8491752952044824 6.3669425918532285 12.523538797273309 -0.35411829551422236 -0.7855527484121052 0.6945578079897716
P 2.17422947307291 8.425303101162694 1.5493409356832448 1.16919193620358 0.0767199185605582 -0.12643502639749837
P 6.398292498000244 7.7872009445481565 5.73303428769643 -0.3618765993034026 -0.5450921250250548 0.19435534438855562
P 4.670023804063379 0.9043819478511459 12.575855252997215 0.10660436482481639 0.25141789372950246 0.5198531479526078
P 4.128738331935744 6.0577386574150385 8.162054313254751 0.08394651821598445 0.9271189740240872 1.1516796383514294
P 4.5511889420547025 1.0922643677884671 3.920010530215696 -0.04784051652204664 -0.4961360068413262 -1.1751376122640536
P 0.1894232402452102 5.261394978570107 3.5991952849948756 -0.15747158398832878 1.727535269811586 -0.250831167988097
Ni 1.7379802022154622 1.276249525092571 2.613362356584031 -0.6187586014712698 -0.838600005946072 -0.1073723533390925
Ni 1.7836713114629008 6.279484763109664 4.721765164883637 0.5670843130254297 0.6358574659350855 0.24982715220361493
Ni 6.073246326593617 5.48589900793789 9.300202392829144 0.09933302797438377 0.38399271447615163 -0.08435558072894504
Ni 8.607172343255261 2.2926031740739434 10.378952934619134 -0.17166073100451726 0.626862461525327 -0.4261827175806402
Ni 2.5846898969931535 5.229140835153203 6.900946241246454 -1.8495929930769952 -0.6366827900498584 0.9679642901752232
Ni 0.49894094501605063 9.02300393655864 9.005815290295338 1.324084703721139 0.11305037756047627 1.006693588424621
Ni 1.257477559369697 0.9291037948098828 11.345384548167264 0.5939346004490546 0.5545077619119999 0.19744349639557607
Ni 4.079746756653214 6.8329141417718935 1.7996971085971252 -0.2614840197162529 0.47644264217745685 -0.8143177363599394
Ni 5.7896142221478595 7.793196037647514 7.870725341167707 -0.9420557978395776 0.370671057666581 0.7797734227261667
Ni 5.320993257028422 2.9662961096312723 4.675392260734703 0.7148409837188399 0.35873573968157574 1.0395522868258549
Ni 0.8152178233793035 7.30783764066245 6.8276406300139065 -0.29604041753488375 -0.3796696616207655 0.6920298993615952
Ni 5.0911813548863964 4.600551254617886 6.939908016731387 0.901685364442331 -0.5014551050613945 -0.1282491967881017
Ni 8.128252115631799 7.332252046949424 9.08829258015636 -0.6573886551386421 -1.2249326814093096 -0.05291098906641856
Ni 4.493353926272667 0.19066023683041694 10.25204865921398 0.6372836568586508 1.1022373245599018 -0.13086195182060043
Ni 8.286954798869836 7.203280685145305 4.77380311552842 -0.2918950279079425 -0.7676972082879231 -0.17142341818273057
Ni 7.360003088762286 6.132763223697642 6.97200211015152 0.3192639068391986 -0.30117079678291364 0.47376586667624215
Ni 2.4459527726742434 5.184317793684857 2.5835189097286486 -1.1208873355609212 -0.4404309999695382 0.4072378010470213
Ni 2.234976132863984 5.353328781799616 11.391029541313937 -0.2424190326650019 -0.8444690631323392 0.2550524051582962
Ni 1.0521795296143337 3.244982036210743 3.7444953634186326 -0.11097524019900241 0.916641471531531 0.19441525109221355
Ni 3.7462459667731354 2.7871667064664667 2.6979835930119567 -0.4140098296635321 -0.3433659420937248 -0.25408412770775596
Ni 1.3538330828489584 3.352676695054399 8.431388617989041 -1.5667770446521856 1.414365134574951 -0.8527608708274862
Ni 3.819850880542016 2.6218902182763446 6.6983536894025955 0.4144528307382217 -0.40247971753674555 1.1337891312242538
Ni 4.092406078431646 6.781318363152086 6.028400679193523 0.42237491379877584 1.264074641716094 -0.6755424432295334
Ni 0.8030142371848955 7.48918242513848 11.355773330161007 0.18413778042560547 -0.6350131156569192 0.1164743156403607
P 0.2597557193343659 5.64054166583413 8.25302781650364 0.0007592467635277248 -0.3411992734597092 -1.2379854008282098
P 8.592704546937053 1.6310631874239094 8.03881581574172 -1.2801525211145632 1.3239201531188167 0.22172833708486978
P 2.012271535663277 3.2310748669998657 10.509272514192658 -0.5967666705812109 -0.37011261405994966 -0.05940508143119447
P 3.9777397502371534 6.140476367609787 3.876548365838531 0.10702911106706083 -0.08068327408368041 0.16129198617568352
P 6.937018978654095 3.877134311589418 10.661574101797157 -1.1451312957099502 0.47455982333244723 -1.6334655471186705
P 6.337997956844115 7.76594232633309 10.221900484398645 -0.8358090734644962 -0.15806936547332778 -0.20028790782290667
P 2.379437079101285 8.523033065292186 5.9540099832371105 0.13046163105838823 -0.24686601269276195 -0.6230122345413012
P 6.861415700518762 3.9849103517873647 1.4768165854518804 0.489055445845461 -0.10725691080715076 0.4298910196701629
Ni 5.352325078430041 2.8281648242831867 0.37466257464264885 -0.5139419246744955 0.29229046357414823 -0.03358940591967118
Ni 1.3845771500251494 1.149674392053654 7.123456427434135 0.8061634826839212 0.251514824318683 -1.0665902647802534
Ni 6.928437766962858 0.7500829001174638 9.228947591724701 -0.7816145896999636 -0.3182663188126196 -1.1559571826808608
Ni 2.8821477892954985 1.7852265995671082 8.891324384131204 1.195060833550542 -1.004806398704237 1.6470797954679954
Ni 6.217915247402993 1.8710748859702715 2.654098245592484 0.32315167192937894 0.3426899990726227 -0.6537191767068549
Ni 4.0308908169611675 6.931774402488745 10.342691211622087 1.3102218296961177 -0.7445117713103953 0.18637952527193064
Ni 8.160244030240436 7.170583465466156 0.32751473915342055 -0.17935244322182015 -0.23043357816835153 0.3858238541476194
Ni 7.881241620616504 3.8143802450591933 8.070922568483633 0.003267615007678243 -0.16887185540547045 0.5253067148680114
Ni 2.938753042390485 8.51993153145647 12.449082091996194 0.4315303550457988 -0.995422386386176 -0.02556602139456242
Ni -0.15314343250276533 4.865981062820799 10.252379610054756 0.5364550181753471 -0.16744386470969227 0.52463205739849
Ni 8.761507560479739 2.434053010202518 5.755334587246407 -0.5524591069130873 -0.36306470607423275 0.3780897187281553
Ni 3.9106182176933695 2.568675854943438 11.399844046220805 -1.1576042313659805 0.19236119677666227 -0.06402329692949618
Ni 1.159575790158927 3.0853118190939264 12.505487508654534 -0.2948818784504083 0.9304693785535588 0.6367362689956131
Ni 3.0603277433269214 8.484919464366408 8.073846871814451 0.9687011683412479 -0.42565744120478954 -0.4056056647602369
Ni 5.451872559472006 7.895212086436273 3.554065707092037 -0.15184935270554492 0.13142759451608332 0.7568720926479611
Ni 2.8054322993182033 8.292108951308197 3.694217962738322 1.0358966923511386 0.09771349009308977 0.17707470293123698
Ni 3.5800109870769323 4.312298497723001 9.439917901874074 -0.037894461052928284 0.6624935804653751 -0.2047210038935958
Ni 7.2027471851560705 6.220700298194247 11.542868159436255 0.1915790671949991 -0.7054860248665011 -0.38298381359566297
Ni 0.4690658498562222 9.052952274937327 0.4028865325476619 0.2965960329280376 0.051142327201769984 0.3764146450185776
Ni 4.5293516119869075 0.26448759296768964 1.6517620827689146 -0.48901405108456425 0.04644029374041034 -0.006109712442163672
Ni 5.788456798442404 5.696061834205251 0.4203600135509769 1.0382397386620184 0.19966467241661098 0.5686745403306851
Ni 7.996821228453585 8.856732787371639 11.17164259065645 -0.46492898511090247 0.479138186731749 1.1294588792800162
Ni 0.09780682429743161 4.889527401328682 5.813128912351296 0.2748455286248234 -0.4594612771281119 0.5256124190338883
Ni 7.728127123706376 8.843359118149998 2.567835818519712 0.7538340771525855 0.1733347762728305 0.24240206338413736
P 8.521857556841331 1.5900560272344901 3.6612910667926215 -0.4526689367966269 -0.19074397288821343 0.28235160719388147
P 1.892595732993605 3.3007463486447333 1.526286502250181 -0.09783150372819281 -0.4590671270134868 -0.32962802368234195
P 4.826149411082234 1.0092282592946553 8.026652920224459 -0.23342248559334638 -0.27879577152182305 0.9646642792677128
P 8.475470184896079 1.560686400708529 12.603686771927098 -0.2823472363185073 0.16625035862222334 -0.7394071030939783
P 6.309071406580398 7.700629268329083 1.3587783564779758 -1.1736993371556301 0.3734288229173762 -0.039864697405421666
P 1.8818986060908305 3.280120696518589 6.053942669356049 -1.8750237744452742 0.17101435566977 0.9293496631268189
P 7.048511434031281 3.9959691735980942 6.001481535668959 -0.5434278499487544 0.26272200588841205 -0.4946128853285804
P 2.4015004684865513 8.561463149262424 10.176069218374371 -0.41807808619563486 -0.4747128039705438 -0.08133119208032445
