# total energy = -340896.113287471 ev
CRYSTAL
PRIMVEC
9.00513040515209 0.00000000000000 0.00000000000000

0.00000000000000 9.00513040515209 0.00000000000000

0.00000000000000 0.00000000000000 13.17991860047706

PRIMCOORD
 96 1
Ni 6.303555165196032 1.829248131313509 11.311190138528524 0.71796435983917 1.3839579830380035 0.6016183422465574
Ni 4.736023134783232 0.40997926712785404 5.867910376299019 -0.5363413754156182 -0.784276709913159 -0.4407408179004732
Ni 2.798830506979451 1.6537201321820836 4.696650904237243 0.09911654108820349 -0.7398557605956225 0.6449375738594828
Ni 3.2362366993563603 4.0933359928783135 4.672900773675515 0.3184077294864904 1.0777581084716148 0.21774055608171533
Ni 5.091455626355023 4.488445088399061 2.7016588478255685 0.2689170789555304 0.583724235574956 -0.09740804303752901
Ni 7.291589052775595 6.100147282763207 2.608108151551368 -0.6297097011661349 -0.8261669223890417 -0.4542249684298371
Ni 4.973785589178216 4.751593005011953 11.497791746347199 0.12087064493584343 -0.5984641128882918 -0.1570409242088134
Ni 5.430705898840053 7.846890410585945 12.292607056389135 1.6210226933696275 -0.13501685452923845 0.1802477013425799
Ni 1.9355897146165562 6.432913861457213 0.5321194509683616 -0.9091212518950859 0.16297965829075156 -1.4554621617255772
Ni 2.785178729497241 1.712469602032967 0.3461283909816726 0.6257304048034127 -2.0677860633150966 -0.7511873835583579
Ni 0.7457274444527036 0.06938542920724111 4.479182411408162 -0.8601263100536218 -0.210010020206677 0.22483757213781277
Ni 8.35008808468121 2.317434253256502 1.2655810074866862 0.8792044097309956 0.056645773518502446 0.4920988606574751
Ni 7.191343942662163 0.5982026989073135 5.047302572151182 -0.29972995057132895 0.8860180902187191 -1.469889907115133
Ni 0.5138606488424187 7.282746014855061 2.2025089797845605 0.3926735300796011 1.0400839909596087 0.9927666939308837
Ni 7.663446901951312 3.7429733896458917 3.6316474667409953 -0.13971117468111421 0.838332354106982 0.6258702728153867
Ni 7.574332132845803 3.8023081929640203 12.485573490279332 -0.4296346806849827 -0.42272689782155587 -0.173297752387308
Ni 7.808546565916254 8.627959389277883 7.185204244847275 0.4775888399667582 -0.36875507159079074 0.17247988447170293
Ni 6.84820345390252 0.5395099613771015 0.24534387356534806 -0.049650830257908035 0.16246800876165568 0.4727369111910955
Ni 2.02686571498574 6.352308940452422 9.168781398134643 -0.3135246903625762 -0.07613113593662373 -0.7306509541679029
Ni 0.02165463674899128 4.813647357670206 1.3230922719260894 0.3510820797910598 -0.2747905070171719 0.024649423117564
Ni 6.374749725073575 1.8767501934630197 6.972467047459588 0.33990960811400817 0.7553471713630023 0.33250020302381444
Ni 3.349116007232023 4.331143472924623 0.42636680318466547 0.9594212857012187 -0.3396008186243378 -0.34683076071387364
Ni 5.965403518603371 5.763346405710343 4.747314667622905 0.7621392545841712 -1.5199701116009758 0.5082888401537762
Ni 5.195906132302356 2.5824462318343135 9.134012590180278 0.1459846663946518 1.092642738892931 0.6498401533674228
P 0.03870855244543561 5.599786224701514 12.26200312118248 1.8845150017651608 -0.3975185168767283 0.5270740911810794
P 3.901580749008799 6.219852479379975 12.750332424696689 -0.20894095551221437 0.18160164426731304 -1.6618983485380667
P 2.288662862058836 8.54273483644699 1.3659927125100269 0.42056922804860475 -0.2718946735266156 0.3842012309425319
P 6.426268075321414 7.7828459241390595 5.705441617078346 -0.9908296248091709 -1.4240756769944958 1.348078495532575
P 4.748927486453422 0.9919060935936459 12.651271489213146 -0.16091737644508414 -0.43374098954387236 -0.6464504109595834
P 4.084943211471044 6.151566576578128 8.079223671943973 -1.0531493087839991 -0.0032663294560976003 0.8566221535551054
P 4.830531976917662 1.1496669707116143 3.794380076278441 -0.7827985827057358 -0.448294461878015 0.7220848097654468
P 0.18787133118608576 5.642290439553779 3.546214895400972 0.8791612151978858 -1.3302198700845995 -0.13759541388969204
Ni 1.5382113262689505 1.2552431179421102 2.565694888514784 -0.5606272445461764 0.3893328957421424 -1.1095816807401147
Ni 1.8607120564605024 6.327986083605819 4.841063476762943 0.9022427796076976 0.9796921201351128 -0.7586420400641902
Ni 6.074446640986012 5.679949894323306 9.149631088112434 -0.545784523106389 -0.436489498823287 1.0445813646093298
Ni 8.62259233163976 2.153504861906796 10.083586466909729 -0.12871070980555252 0.7123724675736893 0.9111961321462437
Ni 2.346259675235759 5.110933723118889 6.87841476542961 -0.045815772782534 -0.3588984905116851 0.7365467508270476
Ni 0.559499549540037 8.996134140175089 9.074136578533205 0.15756517214339957 0.09308319040993002 0.5925683162291472
Ni 1.4320318353106787 1.0457567725802006 11.306867676001174 0.8548342084167472 0.4032816446127506 0.02836415296498986
Ni 4.034001189560185 6.811489537810851 1.6490581762437324 0.5289085732866569 1.3338196716207156 0.9928736518223933
Ni 5.617283192807013 7.780990867304405 8.071263136789439 -1.0375108309157939 0.9049709771721383 -0.694936531485429
Ni 5.286299629905539 3.03341415039078 5.0135882649508865 0.25795158108296223 -0.5854766994896885 -0.7471589791252552
Ni 0.8756813798244207 7.302692378392723 6.993528246124095 -0.45403085014116 -0.36334392787754843 0.0809162160300929
Ni 5.031490463918323 4.475882931678953 7.126355718563473 0.8845934419570507 0.17632805457319956 -0.24495876836772007
Ni 8.404551112525805 7.0119617477771845 9.21916870402116 -0.5416219070882672 -0.47026890926657716 0.3446388952688774
Ni 4.4949017667992885 0.4583746381996838 10.532902844575537 -0.7512999978768222 -0.9269014586966425 -0.8422072636813559
Ni 8.20141338400094 7.277432987998528 4.590117511659544 0.16132026831045765 0.09500534713330734 0.5339463928208804
Ni 7.082345845930849 6.012446319109352 7.092403675924174 0.9566596637956815 0.22319823676217687 -0.9311208960946287
Ni 2.3978500665257214 5.18021019024992 2.5985924304000148 -0.6744270986781675 -0.23958927652569062 -0.006902640657104241
Ni 2.3282674249656696 5.320086878660982 11.355211717830493 -0.30479553801969445 -0.6305548227752495 0.35661715067667615
Ni 1.077589908068072 3.424038691039403 3.728137437533794 -0.4233964130847547 0.05042036143408091 -0.1749499432787503
Ni 3.695372271063462 2.6641137582104113 2.6433911524438796 -0.5260775315957649 0.01707932407978994 -0.6773774395557431
Ni 1.0936280450705893 3.2151376791447386 8.25914347310579 -0.18794532709715375 0.5153249210649512 -1.0246260045333258
Ni 3.581367321904636 2.7766778865267883 6.984632077934996 -0.774353537262176 -1.3073895024536453 0.04660612989431328
Ni 4.235725112633397 6.878001429950431 5.996744073465731 -0.6480239260942904 0.6126154646880094 -0.09316058061508471
Ni 0.9978584846990161 7.460606342725201 11.315579239019835 -1.0312741059774626 -0.7261785202188462 0.6678265626425143
P 0.16158445542861893 5.384662667793521 8.016145435974554 0.7896922245017755 0.09016730231471567 -0.26740064231100397
P 8.268186424918214 1.512447648579898 8.090611559677484 0.641437016905392 0.7811247945477385 -1.4268756083371361
P 1.8942471615685175 3.2666650345228434 10.346499349622697 -0.07313965740846759 -0.23442907248098982 0.4000718794262013
P 3.971550611170259 6.156510393093784 3.8366609639001257 -0.6686611427286677 -0.4861716965397627 -0.008511637015436955
P 6.662580703743682 3.931612858443609 10.317819810753738 0.3709834467006772 -0.5431105758186517 0.9913165917479186
P 6.498291107183364 7.627471406541399 10.149367142471766 -0.8518404158957458 0.18639495189089833 0.8371486182115261
P 2.2830526659035475 8.411827257780176 5.738087915829174 1.374193190341756 -0.21666532073966557 0.29287821775681816
P 6.828941480265022 3.9461561438220842 1.4780885740526073 0.43683222687468637 0.7513287942322286 0.41203059444997425
Ni 5.319420499021349 2.815958264744071 0.36859889253270095 -0.12600925171398944 0.7029622300033829 0.2608019060475637
Ni 1.3139925877929934 0.9375421221819686 7.026886850678911 -0.41881650702355616 1.10001460587697 -1.1017752973218187
Ni 6.6802397641939555 0.6300934672288828 9.324028042882537 0.17824249798709305 -0.4970765163777245 -0.6148394689225217
Ni 2.6532445659801818 1.5812918694581943 9.160530897785565 0.6316521696044863 -0.1880034340285988 0.06625784268696977
Ni 6.339404588782232 2.018130738628389 2.6455262688297845 0.3259965975773418 0.4290451267300998 -0.20477371150840215
Ni 4.108302519379259 6.858298204929933 10.457817167910354 0.38288174080015996 0.20402243516467441 -0.7818069082164277
Ni 8.09384710298181 7.180042504179199 0.2693029231492322 -0.2361583964672707 -0.08943890878912339 -0.12507542704581037
Ni 7.582878001467582 3.7292855916426206 8.351270458285045 -0.3600791410833476 -0.036038638791112125 -1.1598814574359315
Ni 3.152669090494282 8.319128446829074 12.393327637380576 -1.1829797340162915 0.6542791629753828 0.5185082038889393
Ni 0.10616238121076771 4.590455204044494 10.151845354320779 -0.29885808948933695 0.8783022096317002 0.853728119836762
Ni 8.582717614824967 2.4827594397973303 5.871443088902099 -0.04079903629423296 0.29254320301490266 0.13687396234263524
Ni 3.751186068447855 2.7517516859524096 11.449355852189177 -0.48675610828832294 -0.506958551378127 -0.2922238720022709
Ni 1.0004069365640986 3.402678522050087 12.494272446115623 0.47439475850949264 0.4444465488868346 -0.46243424371350683
Ni 3.011783827493505 8.493593840589192 7.942772535085834 0.7414894395443037 -1.282665517344404 -0.6365732610551875
Ni 5.554301311731434 7.733092579423221 3.6138020000942306 -0.3706738858800584 1.7423445669102764 -0.6246016905156082
Ni 2.9951603570237424 8.481824135332431 3.539045010683732 0.7648746512374633 -0.7624760690982998 -0.024268385629061428
Ni 3.565392220813976 4.269062104875575 9.318769046807594 -0.001570686921229553 0.6582556311246277 -0.3621769041526408
Ni 7.077104860116438 5.9791543525185 11.57548710976327 -0.010656965493213905 0.6807656393016857 -2.094586728447709
Ni 0.513433805667843 9.020168832853203 0.18237009710700777 0.6673293112911217 0.274930632139462 0.7382079405795544
Ni 4.729854620551495 0.46380833380177194 1.706140796482507 -0.5761312537190466 -1.2161297384056993 -0.5101775725360569
Ni 5.886203397919969 5.725173658515693 0.4241695513999298 0.27610871160796324 -0.9892535385713027 0.7316441713191078
Ni 8.042184670649727 8.849728732321678 11.370131417654058 -0.5474575399334377 -0.6306206430161785 -0.7592390502182408
Ni 0.010032615628582021 5.075741674042057 5.7206647897918526 -0.35432398376712526 -1.0267173398447156 0.3811367330845952
Ni 7.719260699335704 9.003788500900603 2.5044744109190993 0.6113013738622762 -0.9268623779285907 -0.06252074424204071
P 8.518069784650304 1.6568449123841464 3.5895772991675194 0.1886364396269074 1.108980042600374 0.14905636334144007
P 1.840432503103024 3.197091398093057 1.3569380540282576 -1.824994992022657 1.2483515745538825 2.5375672343119784
P 4.588546116428248 0.9802444499000694 7.966101225551147 0.307410092824406 -0.35352179958080404 0.550975066168393
P 8.577377572577637 1.7296423854489134 12.325517205456737 -1.0986310952658822 -0.49852430456784463 0.04667786367251316
P 6.307850612332586 7.612612941603636 1.4475107537237204 -0.9374136710818759 1.1965872974973972 -0.3699768598130338
P 1.6851660470685466 3.076764847487983 5.910547867079209 -0.0627068921109178 0.684873233712156 0.6721979522373326
P 6.920388578109247 4.096406742298784 5.955952634389929 0.33665690550466537 -0.47894766798749777 0.1379674525171301
P 2.4181386250134653 8.371538304973178 10.057424762462949 1.0600712327148132 0.8434601622518506 0.6876178863368287
