# total energy = -340892.02631421626 ev
CRYSTAL
PRIMVEC
9.08890761526336 0.00000000000000 0.00000000000000
0.00000000000000 9.08890761526336 0.00000000000000
0.00000000000000 0.00000000000000 13.30253501580138
PRIMCOORD
 96 1
Ni 6.2849249918986425 1.9306021054472868 11.487018450613594 0.3132069020118412 0.25754354701126614 0.522406510502081
Ni 4.589289322733612 0.45060076634556334 6.032047954527965 1.0109945297928202 -1.7919930831753397 0.035131039375178204
Ni 3.0052745263823857 1.5329805808272876 4.795297590880372 -2.331908806205777 0.6853404031565615 0.10440324340843955
Ni 3.49388510382699 4.488102515711704 4.54316129946966 -0.9735890925611683 -0.8766749584409224 1.4018945129117661
Ni 4.971668749502562 4.677042724493833 2.7420252277907076 0.6863364485212438 -0.4280141143624242 -2.5386823217530283
Ni 7.4482506164348985 6.314736608446909 2.7309967474493457 -1.1593474393093326 -0.42230909355784685 -1.3532764947937468
Ni 5.159591000646456 4.3536048627601005 11.478677560215317 0.49179109960906914 0.7794589768095415 0.8226252277843703
Ni 5.750824432495477 7.8829003501456425 12.421680796207903 -0.45221770819182117 0.05802619880579683 -0.09361977963969037
Ni 1.7562132375474075 6.396900332104329 0.33349201119278454 1.2207824066863622 0.53811646503817 1.0503542625373652
Ni 2.6638860723673043 1.8209262588351096 0.17579673966918632 0.9250818889894002 -2.002884991766338 1.8410535881474164
Ni 0.8621992128948082 0.03152669339054109 4.730341895762842 -1.2347319268879187 0.23935916279275551 0.4805587212283595
Ni 8.348888636862004 2.3261240924384294 1.5748204575401819 0.5391161099472779 0.6385517249377971 -0.49521066681357945
Ni 7.0420946076872095 0.7695641589248097 5.014257552192157 -0.8057191960576512 -0.344878007862877 -1.1881219403388636
Ni 0.6264847595265982 7.442506426904867 2.4080251466695546 0.8368125750283459 0.33319414376704554 0.16410220193096897
Ni 7.980597016693608 3.9535111553043913 3.5889041782301017 -1.1270736668772912 -0.30052622122037925 0.34620135465999086
Ni 7.719263659799605 3.9097480657678347 12.717941915673046 -0.858596760782973 -0.4836345319402057 -0.8524183998864028
Ni 8.376546182336508 8.924052880278909 6.829282383397757 -1.04192618637467 -0.10959841445613384 -0.14452068025461565
Ni 6.65188963157434 0.6875504022408797 0.5009078692707644 1.5217703980345083 0.016094591569017443 -0.518927550814545
Ni 1.804629847715889 6.85151839555792 9.39535454231055 -0.588053459077929 -0.8268104695103116 -0.9141431305897094
Ni 8.900758010396833 4.898257643752454 1.2955283283480934 1.4147780537426538 -0.08505003569280836 0.4155126394613038
Ni 6.693616805834431 1.8625352772979045 7.091833653894646 -0.7673028010629819 -0.29845442629301505 0.03752807885244505
Ni 3.268616531830403 4.402757674434805 0.5342687041916226 0.7173550083899453 -0.8537427751247814 -0.35551003365542644
Ni 5.822608623805908 5.4310857561078265 4.678567843169686 1.2881157418256977 0.7430189888149527 1.4233089740318003
Ni 5.606129025346569 2.7601194248103087 9.086788859893261 -0.9438504278461551 -0.3815198274556268 0.5210803354914897
P 0.22689639532701206 5.507687068384898 12.434863347623027 -0.36499637587930683 -0.5088387991199753 -0.6592614466813227
P 4.139770136378672 6.110599746351151 12.806603299290941 -0.2231478431402157 -0.3167200573714223 -1.9475875047456137
P 2.4036161176489563 8.729204881632034 1.1514936847732895 -0.6671930428235735 -0.7179193655338474 0.48181393379169923
P 6.198416770463761 7.859196479426776 5.73635852734358 0.9917392811076339 -0.6613170436587708 0.8331222706609523
P 4.666372347107349 1.111055317594463 12.872809628078302 0.5322224681512382 -0.3465397118360161 -1.3538143695750877
P 3.953838355973824 6.102674219024905 8.239829927068005 -0.0713761377501416 1.045407202944735 -0.4413355140616786
P 4.760224405789486 0.954235307861596 3.8299592736360437 1.0453249276435739 0.6786257101405474 -0.6368995340463548
P 0.22418426533371846 5.670523934872324 3.721330469166049 0.7132777529967781 0.2608916375478926 -0.6794371502982491
Ni 1.4988244665015593 0.9768848653122917 2.6641387439953657 0.0022731123048928595 1.2844138674940784 -1.074163706252137
Ni 1.8311967242922869 6.9209122042 4.686150718683778 -0.15374682683857394 -1.8514025354819084 0.20730110591594622
Ni 5.825108073364071 5.385595774149266 9.2512608208371 1.1755911548617044 1.5611987792334596 0.39769540877422477
Ni 8.36412164580557 2.259393333689229 10.259606939406044 1.1430738989602893 -0.46403321276951054 -0.5501679968860654
Ni 2.5917565025724723 5.269221402721213 6.802024749852558 -1.2480636109998184 -0.1443011080446418 0.7470291384156102
Ni 0.5958878613716936 9.179887448144955 9.409282384139381 -1.0195233931994376 -0.69235103014644 -0.3139268108970013
Ni 1.187220362312292 1.2142325953554174 11.55660403520359 0.635034712923474 -0.37353063860256314 -0.3571609389952881
Ni 4.096406958771421 6.829868617930489 1.5427084385076566 0.012893053912584248 1.0765610028397201 -0.49456223459630316
Ni 5.6853115873491635 7.6594677374608695 7.945018488346597 -0.9222642170349471 0.48173525803496386 -0.03319139915030413
Ni 5.21087061667247 2.7091306538237903 5.206558838961953 0.4641250011523684 0.8196975126146141 -0.7887293463678738
Ni 1.0216568235795982 7.50156614773738 7.149034693146635 0.13856574822276138 -0.3521380318594 -0.3165308241787516
Ni 5.260386984646543 4.43413258307036 7.162683505515699 -0.8096763809331863 0.5539799144329878 -0.22541915567289564
Ni 8.087518924338063 7.341937665591886 8.973344752238122 0.273586973627374 -0.6020351180690018 0.3803206649412031
Ni 4.610321054652116 0.3508854534453513 10.632117630428619 -0.11281280762837347 -0.44253364813483786 -0.8500725253620456
Ni 8.023223992794636 7.247231249606233 4.750601070545184 0.7404486569846152 0.7943598051807738 0.9976417626349979
Ni 7.124976355035883 6.051376425183923 7.040260466156893 0.864973096622962 0.04638964300813301 -0.8833248596572721
Ni 2.131794161518154 5.294125009227997 2.4949569111932006 -0.5307759655126988 -0.052443562511696774 0.9382811612884937
Ni 2.444461667883076 5.164962544969635 11.472265335985195 -0.8833953078838914 -0.5179942403669983 0.47726693785096513
Ni 1.1489378839887245 3.182453688879923 3.958009255618336 1.237467580651527 0.34676108381820275 -0.004416898120773038
Ni 3.6003616550047193 2.7658545254328564 2.7548215006377523 -0.4801391171924376 -0.5282154038743742 -0.5471402658033352
Ni 1.0610935931536627 3.3511983452320973 8.234987357160408 -0.19102113780900007 0.1654484315462183 -1.1128508384096898
Ni 3.7698334239556313 2.684190691687069 7.0950665782867866 -0.12930694862865472 -0.2680665580297771 1.2265002830067457
Ni 4.0988791416071315 6.823706338656184 5.861881793045257 0.8363898856686305 0.983281380148268 0.16302336704449344
Ni 1.0727819281783797 7.417802776362736 11.68720800018895 -1.111679443809408 1.1335888422879896 -0.7426562061588953
P 0.2287523502352914 5.688438171523738 7.986562975566255 -0.47425411916657034 -0.43656714613875786 -0.34869892427086396
P 8.646041378151347 1.474438927721376 8.12741013928634 0.2013528587523113 1.1965297047865844 -0.28232332505910734
P 1.8548460615662479 3.444023357368516 10.199172975761917 0.47058926872047346 -0.9149738540211209 1.458450812040256
P 3.8736105696105447 6.356400160354609 3.620178199992581 -0.25803951281107823 -0.1104219387986937 0.8657045754723478
P 7.05009284627333 3.8850807708556405 10.314333069150077 -0.7375906187105298 1.3894799412974974 1.0266975423503737
P 6.098302454524992 7.660794717953567 10.179006507835911 0.9536543013104545 -0.5093903007480711 0.5972695783595584
P 2.560463394104276 8.550944139143873 5.948109167238875 -0.2092947393072073 0.20790711493106126 -0.9512860581885939
P 6.867405805840351 4.282511428418471 1.6001221581947753 -0.13355029728604095 -1.7443556838030345 1.1093261130858831
Ni 5.363818751817056 2.765645480560719 0.7764081062604332 -0.5806425113258388 1.1678829875841692 -0.5686488292990723
Ni 1.8064021846753135 1.1885927873424107 7.026518946931489 -1.2402507998236187 0.23377549805739095 0.24134996797053915
Ni 6.8339313595759394 0.3966562826451743 9.147022867572735 -0.2357159096132134 0.8147561094489386 0.3153805126243924
Ni 2.6046173066626546 1.4806648293480722 9.37740940337369 0.9772434014843041 0.672680548300706 -0.41335651235024934
Ni 6.221175394804267 2.303956247084398 2.9127894393858775 0.39811269881730144 -0.41354728820481684 0.22047441007311064
Ni 3.88849820006971 6.743796664054853 10.435652715140298 1.776688591607785 0.9890578776207288 0.3966286580726072
Ni 8.444349432168849 7.23525206954202 0.270343190883118 -1.0621049753153902 -0.49781827963975545 -0.21422997182529557
Ni 7.677618285706873 3.8520153254280194 8.097213153060741 0.8880903993667156 0.2945941720066604 0.45158984479983516
Ni 3.355415598304779 8.320949335255488 12.444268549087706 -0.6585914171974916 -0.19593914393590772 1.2269936777033965
Ni 0.18753415479431818 4.975358845941158 10.065895054194698 -0.37224251591875895 -0.49880275504021193 0.6376250993584696
Ni 8.782674924361746 2.3829297642148535 5.928101755193844 0.6367018162132518 0.1610186779096388 0.01047930226476905
Ni 3.6615300023735724 2.5777686739542456 11.46866067527695 -0.5007861040188278 0.27486558322948146 -0.542803328990878
Ni 1.0429066892777228 3.229107050996465 12.866610993174058 -1.0749178108093422 1.7692403628598563 -0.7960384784347775
Ni 3.2185548294072763 8.411547565058271 7.998374919732757 0.3757538715061271 -0.5011200903194789 1.0640261035975032
Ni 5.589114590536095 7.93889710915597 3.597724054052796 0.3680225643001404 -0.3225325502881413 -0.14250364982458683
Ni 3.1346733022353375 8.414955905364856 3.3944606359662735 -0.025845243197878072 0.3317586968720996 -0.3096595509802151
Ni 3.7130822856241124 4.331782395890469 9.410040399023565 -0.9824722539834111 -1.0578333445232297 -0.15062087961508253
Ni 7.306981727407546 6.065155208930013 11.316346945874761 0.17407422554201632 -0.17618330146521916 -0.040480733722865765
Ni 0.2610243340395392 0.23762857728438827 0.5260968674725534 0.7755701832780966 0.20447752042422204 0.04690026409596439
Ni 4.6763792342474835 0.3233142525919462 1.741501023002688 -0.6494873980136944 0.002902518358775646 -0.6927685772998327
Ni 6.187728215262309 5.81465582975721 0.34626010842662774 -0.2990290678495624 0.028861404316382552 -0.39507519754255827
Ni 7.812997562684447 8.689304577776273 11.416474895174758 0.6807144743487761 0.5807538400927224 -0.07631831224676533
Ni -0.09562621342305788 4.868873205855945 5.719704013269482 0.44177260159909726 0.4078967747872588 1.0992332476262552
Ni 7.952666803994576 9.085617299718544 2.7548351339989785 -0.5272890354053629 -0.9994942424627045 -0.7788100303716329
P 8.643023860866585 1.7090690744267176 3.6993016840965267 -0.5438996473788503 0.36338583685907744 0.905104417426209
P 1.6747311819513049 3.213992197850194 1.6382873896117967 0.08091441625788 0.01633370416301703 0.7865516219902647
P 4.753244124841599 0.9235420672873585 8.068533105494259 0.9317734420769629 0.6063990514646524 2.238880123182867
P 8.38241761657132 1.710477855086773 12.533302577912455 -0.8183379132629262 -0.2952307771493948 0.09565403646089977
P 6.49069785734156 7.753019862196027 1.3115248055203343 0.044183893606065845 0.742591671469547 0.8500506709851747
P 2.0205095782812688 3.3480626721500384 6.104626516352518 -1.1636558368766992 -0.9934611488947471 -1.3412653292654835
P 6.9168131069246135 3.942549932878413 5.971334961424071 0.9890547922969354 -0.40948057433461094 -1.0160074096263794
P 2.3995624649109906 8.66444641580691 10.460568137226813 0.8140374861153592 0.14542905100149792 -0.13255193792851364
