# total energy = -381165.3521847022 ev
CRYSTAL
PRIMVEC
9.27310350969809 0.00000000000000 0.00000000000000

0.00000000000000 9.27310350969809 0.00000000000000

0.00000000000000 0.00000000000000 13.57212432611587

PRIMCOORD
 96 1
Ni 0.44236320142927915 1.2446359500132662 9.258834962576223 1.819488460382131 1.1830748648332592 0.30742577655368997
Ni 7.296244739364759 7.68770880306473 12.322851034790487 -0.09812152416478587 -0.43507307809173457 0.31977272815481705
Ni 2.679110874610585 6.4581601924246685 10.875234267931516 0.2963594914371993 1.2577530703734403 1.0601339676319486
Ni 2.605000231543188 0.7689303776864478 0.6613401217899054 -0.2533287375989701 -0.7324836365012676 1.2154023733213712
Ni 7.403729281881551 1.6141042122422824 9.525785356516037 -0.7833480274513025 1.9717355627467266 -0.5322705477803543
Ni 4.0177297284637 0.9777838509704129 2.973109984111372 -0.4320738862540946 -1.5441960740278762 0.18838781395121104
Ni 8.807334044970942 3.1661435428466658 10.91135022408199 0.737663123819678 0.4665323250422804 -0.18962991388842823
Ni 4.981548285582824 5.5104861084762575 7.987384906520203 -2.252668435216211 0.7023382232661388 0.1690502899648637
Ni 5.377111061024008 2.944358726750203 3.3537532633524654 -0.17870941032118254 1.2170882456642265 -0.10783129525338203
Ni 3.0678115534714556 7.794312400750265 4.575013574095925 -0.07406705431874341 1.1360681570664175 1.2764899846613111
Ni 1.888560256144403 5.737584412870721 5.989338044816185 0.8099409474484826 -0.06696361050474274 -0.19292478258961615
Ni 9.066647110878936 4.864289891990827 5.209130645979304 0.5866123557560284 1.2968407804035214 0.4201853623466248
Ni 3.612550744706587 2.209975296104244 5.069880160157749 0.12173839225277744 -0.3258407887257679 1.7434521981521587
Ni 6.683097863706682 3.13169396339279 7.1539619487029835 2.1798540223576457 -0.8518103339887587 0.5427457362800652
Ni 3.5660183114092647 5.225894562462942 12.914242282357922 -0.4907883693761676 1.1824472585515893 -0.9124585437984349
Ni 1.1500224751363077 1.9693660799293502 1.9506807764032232 -1.6218367046304907 -0.4078281263328525 1.4651400511349735
Ni 2.7889229661025916 4.011220009815887 7.2245228477555905 0.7693103184113137 -1.630162965107999 -0.7383084707131607
Ni 7.46504304213701 4.968519575183714 9.131840737633318 -0.1891840846002613 -0.5733400641271545 1.3089655886915135
Ni 8.350374051342914 8.346330978222621 2.504165431536861 -0.13517343471176074 0.9864677482960493 1.74163905620282
Ni 7.737180810167403 5.18197714434893 12.024915492859504 0.3033333516518712 -0.19720926889758295 0.09591577476271868
Ni 1.111529822562138 8.245958906080292 8.656585838135964 -1.0789102197981872 -0.11826971697788666 0.5581317318178324
Ni 4.638619645533348 9.003543641650502 0.4177579486371081 -0.42932023476835746 -1.1735373576564692 0.4813020271522872
Ni 2.4040149865678675 8.104655355146733 12.8999107009189 0.42855738846040387 -0.5694109042760773 -0.7087595534114504
Ni 7.376930012804377 6.759016761954026 1.2829468497590926 0.5357762469407676 -0.6738030919409235 -1.3031610661945945
P 8.966339950461013 9.135898647719191 12.848811264154273 0.0005864686310893126 -0.33094622827313325 1.6720125541539332
Ni 4.11783288060491 1.713391331276644 12.684792318919175 0.29785355948422254 0.02560484505229784 -0.2637959556788812
P 8.214754912846834 4.641883777960741 0.8644043965669916 -0.2895375834193594 0.06240684437199575 0.6491732092073853
Ni 4.380799549286747 7.697093183793484 2.785936099469457 -0.7214780294193833 -0.8736369429455471 -2.266050770060388
P 6.468907719365999 8.767700800667882 1.4286421425040516 0.2601179926066617 -2.7598221333242794 -0.022740636130625352
P 2.3108110234209196 8.402665081905608 2.201791782277044 0.583798026235685 0.7224349940160139 0.46408412061210397
P 6.81542505046491 2.556668816169405 11.280728537207183 -2.044371026825266 0.2576145094585176 1.1304258711789759
Ni 6.941993639957764 4.616021092335745 4.804395843879214 -0.25094275386529685 -1.7011115284024187 -1.4065343256766227
Ni 6.460561926227778 7.729317218410502 6.422356739861703 1.0929924089228662 -0.07786277391574976 1.8078264506631705
Ni 4.369384358894359 3.59512658325468 11.136674583779408 0.8072009228095001 0.12187080406558366 -0.10745128620614398
Ni 5.375979742398606 3.5317356478181527 8.87532814897837 -1.208575837317841 -1.1974316477755635 1.8172518577421284
Ni 6.287599999989904 1.47755776339751 1.5990131636276825 -2.351913531462478 2.0739176301341313 1.5245307343884649
Ni 2.851164036706742 4.734243888690379 9.372922882086044 2.27240962239888 -1.681275724623414 0.7880243498810493
Ni 8.32820206090571 1.2909365557234154 0.8666178863693174 1.0671325104369687 -3.123155005458234 1.9152103739664887
Ni 2.5037564876730882 9.277369114515512 10.44324766930409 0.11244076900093539 -2.337057954506885 -0.8003065096825119
Ni 5.543915646546574 8.630115764232574 4.360180803683599 1.290787632230906 0.6546388603076467 -0.36742169749134784
Ni 5.163152744270499 6.461795248991538 0.9265592273087135 -0.5305376242496476 0.7594923038796275 -1.7346114599320772
Ni 4.787286040635514 -0.05231606794210881 6.356396227448952 -2.2557630149811345 1.383770806727862 -1.313867139758189
Ni 0.6431092003346374 5.419146039130179 9.957691279143127 -0.752716932829007 -1.7712797618873883 0.48640643825838814
Ni 9.180418817559854 3.8750723044210527 7.854093316999338 0.27942697734791877 -1.023112653212593 -0.12938536727507396
Ni 6.349516511972014 6.430860175759201 3.7504390116259154 -0.9442738885368189 0.6380562733586173 -1.3457130806241921
Ni 0.7634694470430057 1.8173891868823568 13.250736315897829 0.4964784777824095 -0.998251628304855 -2.8889316212301472
Ni 3.403859550733643 5.299346815182768 1.8081188653264915 -0.8616041801507289 -0.3578319969203837 -0.23892233236565302
Ni 8.388523599088069 7.057796156302317 9.763012671849255 -0.8498886914860138 0.702662696485093 0.5288656358638634
Ni 8.063186036353265 3.1243589385346424 2.8282539072319786 0.0852590663798209 -0.3774502853719435 0.07135505470421905
Ni 4.795650379980708 0.9675370716173757 10.536651004176006 -0.5520119920733396 1.2980628257360807 -0.34501710454390255
Ni 0.6536861021718088 4.0329561643892085 13.285453888042476 -2.2331499055673087 2.8152391766420033 0.1595140683396543
Ni 8.952189194539987 9.037409015584704 10.839947327232771 1.364295985832702 0.6828148085212306 -1.3979517262139343
Ni 4.010227787742788 7.564089060480713 8.916206771079723 0.034793710640417495 0.5193286429077056 2.072977120597733
Ni 9.230011375007857 6.2211396672992105 7.712427187719441 -0.016833783727887137 0.4278271951625987 -1.050827345519042
Ni 0.7490905727762007 0.5255559220517573 6.9915852700954195 -0.909223581800905 0.08585324832039407 -0.9222536755119858
Ni 1.6033659584044389 6.625604622087831 3.3242063737121192 0.866828404664146 -0.08399485495541663 -0.25183338400036626
P 2.066863489990738 6.433642106805275 8.721582875096425 -0.053891607812132994 0.7719526411301673 -1.8537522666610076
Ni 5.31240334489234 6.05801650386095 10.323025591837679 -0.730278915540465 -1.1873963750267487 0.509544052717116
P 2.48843732071271 0.3068284481749288 5.8848190407945085 1.051319454664112 -0.4574722717225412 -1.3806168344799126
Ni 6.353735774058558 7.2153925500623775 8.727812546018932 0.6180600327423486 0.6186873819137022 -0.45352871369376085
P 5.755620599152764 6.040332695511409 12.340006276241274 -0.7087356421520503 -0.01903593358552851 1.5241617810848203
P 8.387420099773127 1.730370383761179 7.629270632200562 -0.1284245460237014 1.7534753867161155 -1.884980885657986
P 2.1753031621666814 1.5874625859243856 11.549361999429873 -0.0007463912477212953 2.5682883175449187 0.7993336042462815
Ni 1.0050653214289065 0.01024399742199117 4.027161402020237 2.4696083497735017 -1.0732386233347067 0.413885645380842
Ni 5.045820165850608 4.299409519982125 5.952828909077865 -1.6345865480969912 -1.9419030527663268 -0.11271819103203813
Ni 3.1354681165119627 7.428136090259102 6.90038058806025 -1.10767263664286 0.7460158666597475 0.26764129756690036
Ni 0.6247874024651976 7.781821530353395 0.8216961911476719 -0.7204752991864817 0.19061978860552334 0.5177206749906375
Ni 4.409907821132163 8.187306526525576 11.635803088203815 1.045972845640218 -0.7983594132584702 -0.02257145754261274
Ni 6.1671238394879495 2.000699896611624 5.339681106109439 -0.8737184469157597 -0.47522702460280086 -0.8960299659287665
Ni 9.08455347371216 2.598935621862748 5.548148818288349 -0.5543087585273163 -1.349050115417225 -0.2051920299927434
Ni 6.908656832922318 5.385883416922627 6.976193772927844 1.9357843414630982 1.5735390459663674 -1.1086306296807553
Ni 3.6957212098806966 5.083033130143583 4.117945085157102 -0.2940717238442871 0.2072332287924883 0.34005487544262075
Ni 4.830600707022878 6.517767701638537 5.7612716284176875 -0.5616042637474651 -0.3175386966179757 -1.356560307751341
Ni 2.9049944024482635 2.4130377162606322 9.378527545833535 0.03127798417767516 -0.669019554509351 0.2256076175346179
Ni 5.392068576948398 3.886366944468111 13.490039879101765 -2.4275846970435486 0.8865562221103764 -0.49360269889651126
Ni 2.6818928056566587 3.089779535631949 3.143847292822736 1.1155435547505046 0.43015532907514303 0.33138151603833893
Ni 7.819433238096309 9.018621707920222 8.211352611177485 1.2118341963541386 -1.2338749782042622 -0.7539726596129789
Ni 2.9474188509008834 0.34929091635184545 8.062656542144163 0.9742102710849351 1.0867471993441025 -0.1620481476154177
Ni 0.8379927432155703 7.635037575259072 5.80330475190316 0.09760344687778676 1.4160996007675548 0.476556799157818
Ni 6.28122010479091 4.668080295311266 1.8563139660790167 0.6142753688889356 -0.47711678542634606 1.6896762899822835
Ni 2.608672380524005 3.1556278434925082 13.80013616894548 1.2271314888328415 0.7946390269840896 0.8706840309648102
Ni 8.116923671059917 7.103447644768382 5.091542129903174 -0.03313277799822681 -0.7649386717061795 -0.7160956820615473
Ni 7.509377749907935 0.1244849231393465 5.374045373011236 2.185373409513978 1.373847119856247 -0.49536004790725013
Ni 7.183873271310366 2.7853713674671043 13.4224241177166 2.357112816275231 1.949211413502282 -1.320459448263726
Ni 8.828281985747875 6.027294712008811 2.974398945496053 -2.1354862948755478 -0.9955514557648724 0.054308126524261306
Ni 6.30851084835289 0.7283577680001638 12.741673535707893 0.7396025069342359 -0.604804453284023 -1.1022365532289533
Ni 0.4304778646901046 7.009946942309853 11.7436474271359 0.28399737032742056 -0.4354587435659275 1.4673496571917826
Ni 1.1059103218490696 4.410325110789073 2.24017408491972 -0.8945693222228399 0.6013252364861708 -1.1584190139577921
P 1.6764751062952494 3.860133334703638 5.155194566858032 1.236505988069206 -1.9336734657676826 -0.7973255726773172
Ni 1.9106302424432524 3.8133690738191435 11.412053301478476 0.7463215708256243 -0.4332193127124475 -0.661565669334467
P 8.671158520265646 0.9837742758229577 3.3999259002344955 -2.0167265256351206 3.1111559241148288 -0.18563776200989965
Ni 5.533585409262154 9.441966701408194 8.37740700262796 -0.008053723542411937 0.9018260037852533 1.10310944275221
P 4.207781984427951 2.3777442843894474 1.4062754168936211 0.6029607152070648 0.664480528988417 -0.07706727459764792
P 1.6877790194457944 6.028815500980666 0.21255715081663748 0.9368863378234961 -1.0532794066039601 -0.4016649349449341
P 4.517049258819938 2.0940151370004148 7.336357403118092 -0.17392535866897788 0.29118668898700817 0.06096985481515305
Ni 6.7375031618643915 9.079314170242057 10.479471193455012 -1.1340719525719953 -2.354676696029913 0.5052114867800331
