# total energy = -340887.0878296843 ev
CRYSTAL
PRIMVEC
9.14011450103425 0.00000000000000 0.00000000000000

0.00000000000000 9.14011450103425 0.00000000000000

0.00000000000000 0.00000000000000 13.37748146919783

PRIMCOORD
 96 1
Ni 6.293974159871065 2.275175550490735 11.437332225466424 1.0542194019197264 -0.867594593406209 1.1167486308021992
Ni 4.9259641012282005 0.42937149695560484 5.659437257570811 -0.18273961452649817 0.8804814766712064 0.6359945057335822
Ni 2.557367441709072 1.7411735082370545 5.0426413172727225 0.7015188126886369 -0.829534553309694 0.37294057042704803
Ni 3.6070821573517615 4.597550651614737 4.894940725016072 -0.7104868205152023 1.5767727224123167 -0.2602087525482551
Ni 3.4889370389385905 2.9316459852570316 2.874285369472912 1.5970834089452106 -0.5297490669100813 0.44536006184003946
Ni 5.154914826211298 4.724680502458678 2.182120960048785 0.20326010307735318 -0.4936206966186402 0.36523960223836455
Ni 5.087926927955834 4.913149660874243 11.296707909759013 -0.053559421283694855 0.26055533725439645 0.37876309064609603
Ni 5.737679378656397 8.07358184905562 12.19962050638813 -0.5961226092393088 1.1982155771294396 -0.5726636068854202
Ni 1.8427841597455812 6.531882196941807 0.403328569066494 0.7331266694019051 0.05151359449825967 -1.1351682709599675
Ni 2.9062913079803696 1.6161915842712729 0.5907914008893539 -0.33237447607922754 -0.47476602580598226 -0.8266058096986733
Ni 8.275496115717026 9.022024097421662 7.079135577016578 -1.4980026061909493 -0.19620756710594597 0.205807037868923
Ni -0.2406756637035374 2.292660589290394 1.1255520726361719 0.46756513718216897 0.4562340284400659 0.5179196783753209
Ni 7.232819288143201 0.7879902825446221 4.7267461683074625 0.9959852008681814 0.7249510755696482 -0.19829376021101333
Ni 1.1480075056330368 7.566259800662997 2.46294183411085 -0.9340223860121398 -0.29250463646748337 0.012590692180817027
Ni 8.102994737114846 3.9204692589324805 3.560122077715123 -0.17750639115201688 0.2150061878696878 0.3299311567450576
Ni 7.62339465562205 4.473884904118977 12.53593101482172 0.2621447932287033 -0.9422563438861578 0.20028842204353894
Ni 8.378358962894948 7.356512455982087 9.265992944334565 0.9974725840469852 -0.15611584129138273 -1.0722569761477274
Ni 6.922777468423787 0.9527015416648621 0.2262918657113661 0.8900395526732865 0.0024417766722732138 -0.9365009294596194
Ni 1.6641314841689272 6.872104674327963 9.289282869773881 0.17536003423297541 -0.8450259640770736 -1.5670554951245528
Ni 9.3627675613272 4.822214662955889 1.246465731693575 0.6691403963579314 -0.5458927665494792 -0.04404351137345963
Ni 6.656425395417582 1.9976999582899746 6.777487124327862 -0.4389706133739279 0.3482829197793679 0.15192082937342866
Ni 3.4087782358685375 4.527071229667967 -0.022014879483982872 0.06271229142755651 -0.21376305949120605 0.2620674030235487
Ni 6.274523996480749 5.586035741058306 4.390288504032431 -0.08140215452757595 0.42156964428866106 0.5011900243254659
Ni 5.159877908317004 3.118917788689451 9.4533844832653 -0.6630646224774968 -0.3024247237946727 -1.066105611834351
P 0.5254441531642291 5.231691786962546 12.368324167467435 0.6960778441787238 1.3672470980412261 0.10651900419986172
P 3.96502731651133 6.427282728032607 12.479892059576247 0.8216620925401525 0.6672323807019411 0.521480913364018
P 2.761255973075512 8.429406501680154 1.4374502495851795 0.20507710168143392 1.4089215949618767 -0.6075048829343215
P 6.92977879603515 7.99983940627692 5.714003740390449 -0.7400195398669965 -0.17118944779505357 -0.9423041664049578
P 4.712551570682857 1.1209710473113474 12.575287433309674 0.3129047973903901 -0.9236053044438739 0.28575214823499817
P 4.356324753025816 6.507843696135166 7.830307650835226 -0.20838328323653146 0.0966732217540335 -0.5761726484799432
P 4.740163856210181 1.2952638883310559 3.5801480683110736 1.4264225799601176 0.5176813371122697 0.08736402853796567
P 0.33855257848981596 5.674256125007241 3.5854730989460353 -0.09231391634407328 -0.1652450572861606 -1.1841434153070896
Ni 0.9076261536123793 9.042095788589489 4.5452134426912 -0.5040886860294996 0.5848483218770701 1.1623348040724304
Ni 1.863550499605919 6.761353908444287 4.642655288033221 1.593961061266145 0.14459061426060257 0.9071584717417601
Ni 6.074620554981873 5.591044523735888 9.050441627025437 0.5817138900131466 0.609887267123569 -0.023915887385649134
Ni 8.858032165302745 2.29671880007296 10.430328350287368 -0.41888592680891085 0.5422685395333307 0.18612138651453752
Ni 2.4715783281839276 5.605970330510505 6.9883961775458525 -0.008012843002147491 0.048759943012522476 -0.040248048886769396
Ni 0.644413709894038 0.2766868003301853 9.591614089006422 0.11279892367130251 -0.6502479303288027 -0.43957610816841075
Ni 2.070555809974284 1.1321494071921543 11.510868101660245 -0.4698284792950489 0.10568828076845024 -0.9432302777636531
Ni 4.361242134559646 6.9047897233334945 1.588000729504002 -0.12625196385241486 1.1574875032824583 -0.8491379293629182
Ni 5.8158821972501675 8.426701027825109 7.891483350359533 0.11626014274702559 -1.053467097134734 -0.3085724885636234
Ni 5.255629746511061 3.1759978029622538 4.748792124180321 1.9152186014966048 -1.6732330568245957 0.03779547358121878
Ni 0.6189667174621869 7.276198270967657 6.785406119422491 1.0137170709303058 0.6878176610524607 -0.22124111303580607
Ni 5.261972985887414 4.7859466891153 6.997171601357433 0.6173599213515304 -0.4938222711064849 -1.5800177117121756
Ni 0.7642872239355492 7.315628724382047 11.486868903345417 1.8964652321485016 0.16071888728103287 -1.3113893676416575
Ni 4.429683311000759 0.6621683820677641 10.374784789241028 0.29774223071733885 -1.1537789440826194 0.43983373270517157
Ni 8.31754064184271 7.495414774141221 3.824996194226866 -0.7332526534568081 -0.4760225239209028 1.899604806218748
Ni 7.476074292123406 6.241482483014586 6.977707727795554 -0.779813789045799 -0.28004147100346605 -0.32387775146212605
Ni 2.5207887039797274 5.304748721163109 2.6027627337646853 -0.11782003103497773 0.764256300927174 -0.29597896816932895
Ni 2.675704502524121 5.557299221462839 10.982015599845523 -1.4874407715147027 -0.8423224491029816 1.4256448212538286
Ni 1.48284645565223 3.55005698376521 3.9566842201096946 -1.669071983468371 0.22591357881081092 -0.8245589544719735
Ni 1.7167054220547815 0.9329588946145411 2.5685430595555667 -0.7012282780314116 0.9712277914178434 -0.036904072115200956
Ni 1.2547914618778977 3.759036558838607 8.44373271695176 0.03583449320010603 -0.8251477370959079 -1.5956255934527614
Ni 3.8248179619965508 2.8958898578214503 7.006214830520205 -0.6155385518720754 0.7412688388930653 -0.7161404192565537
Ni 4.681657984094855 7.183846555321155 5.7114490784225955 -0.16261816118627478 -0.2741595583013923 0.33355898330563194
Ni 0.8284901293409054 9.001394859276951 0.22294201379287412 0.24749464741569638 -0.13198192435765657 0.1949893784281287
P 0.13821589556955932 5.653837109493158 8.119997177875499 0.07101515486629704 0.06542943324840343 -0.6524968742639795
P 8.461707665881928 1.6806750911879458 8.265758237861743 0.7904116191663032 0.6480367816100968 -0.39021812656057314
P 2.311461804560075 3.370042431146658 10.289905117096211 -0.8228262880515829 -0.37659693623271273 0.7119639192813608
P 4.258936834358608 6.456439692889331 3.644039295816237 -0.06386928785013517 -0.9522034277965408 0.8208218560270444
P 6.889397770725744 3.9997780313656452 10.407881143393439 1.623306861418114 0.9061166607408072 -0.08217579946880686
P 6.601018022075431 8.04569536009704 10.056896181330547 -2.965933589807498 1.700352281638891 -1.1203044664742576
P 2.7596290327167354 8.7029884051571 6.015103786216656 -1.392738300333795 0.11346663916228847 -1.667606711776754
P 7.210215785293459 3.938712927225277 1.3175292069489177 -1.1913216782230838 -0.40077147659638723 -0.0665252374157435
Ni 5.033214203306194 2.7806969963514527 0.558069791426322 1.2596451451898305 1.0520871860680718 0.34585914082922375
Ni 1.2389699238945158 0.7498458432228144 7.185072244658863 1.0237993948669724 0.5535420555646209 -0.19791786492883334
Ni 6.5085566250564275 1.177913959868523 9.241913313013237 2.25217169808545 -0.6430730098469183 0.9789794103388043
Ni 2.7993611099055062 1.6873108142243038 8.93465922817824 -0.14173900374442042 0.24986417608913744 0.2989930724053045
Ni 6.633721351309712 2.160805299314501 2.5830173446800515 -0.11188258250462023 -0.3151563124287282 -0.10920889232719902
Ni 4.419583484616219 6.94978650640235 9.869732231247752 -0.4615698388306825 1.9972866717429536 1.7066411999713962
Ni 8.396812853818373 7.05306979884153 -0.3769456289226276 -1.3920032219399832 -0.423746854445638 2.735207934320025
Ni 7.376575007035538 3.8869158990613104 8.199031746877408 1.7290691899576092 -0.5583237932239804 -0.07739586158166026
Ni 3.2342020513032 8.520506021657258 12.52497475972023 0.26142976943954976 -0.6485157781290444 0.44551561358129727
Ni 0.05953413498253028 4.91573631324241 10.152116978879407 -0.7853257200029636 -0.18604965273633764 1.44527827921404
Ni 8.87865226333308 2.478278032020912 5.978704194729064 0.9549354820157231 0.31662441233382244 -0.4267499029380199
Ni 3.969889857358909 2.8597407054677375 11.576912740112194 -1.3775513081807116 0.16991598039926864 0.3323302531048535
Ni 1.1854819745711462 3.09732883853535 12.428589511599975 0.00616113450538939 0.8423304195227816 0.22011548407179513
Ni 3.2590814426323544 8.5154149779503 8.099850537769795 0.9184602699078246 -0.13327107548272532 -0.4736421966141843
Ni 6.110230440587452 8.45019112176924 3.2841317541003243 -0.7003841848635615 -1.0916019563332426 -0.19203749488865637
Ni 3.4256417468906872 8.79492881565672 3.7982549615994943 -0.07966563145244344 -1.6408479556256708 -0.25569492383830156
Ni 3.623104777851397 4.726709607849962 8.999018429539412 -0.6372093519772897 -0.047531212811743946 -0.7023053131456743
Ni 7.126117592927717 6.322930042211535 11.046428727881509 0.5655583632992067 -1.0531817046838312 1.1986158978916517
Ni 8.356322147136465 0.0769871833818765 2.3054220169809767 -0.16747934593331804 0.3228122863120892 -0.6403787508442068
Ni 5.091445871990266 0.4541859934726957 1.3693591395246352 -2.3710366254451745 -1.1227009917308923 1.0525787809925098
Ni 6.046030277216409 6.128483248994624 0.04242475488368966 -0.3195593265924303 -1.4290728730987712 0.09040358669523785
Ni 8.057714610500362 8.840336903872458 11.397025235083456 0.022729837497347954 0.39121288637367463 -0.25065607586281347
Ni 0.259414726195467 5.046293706977033 5.768382850865395 -0.2531593019006414 -0.4941631993856715 0.05785213512177779
Ni 7.424889651622573 5.935407472933985 2.110485313633558 -0.2587026003163738 1.2565477372114295 0.3891955988333297
P 8.907790947961054 1.873714306791084 3.5764298697832633 0.21084408607219815 -1.1459347654478522 0.2465903904338721
P 2.1025827707448044 3.4671835667257374 1.4419453578348775 -1.5235539722974925 -0.05285673878971542 -1.3342493029589666
P 4.889933770361365 1.3863908286512872 7.957514278639919 -1.0239467190781142 -1.2593438118993279 0.09823336715230178
P 8.761302334870548 1.3059669622643548 12.527315543011706 1.1810994862744433 1.616438930653687 -0.5911506099460142
P 6.647742286761191 7.984218950809791 0.9818347422242106 0.6876371696105383 -0.11304677801605047 1.3119377839459598
P 1.974401806747721 3.6343471185328293 6.034287058267218 -0.3393336810058801 -0.5285622456908317 1.1163007446315032
P 7.257790080616107 4.122548047652641 5.910518941490456 -0.999711243569517 -0.1252309787870682 -0.6562797383451795
P 2.605051418404223 8.500937036780066 10.149053212540856 -0.37528978738551494 1.4049261006492384 1.6981023092624496
