# total energy = -340872.32816119416 ev
CRYSTAL
PRIMVEC
9.22246250141606 0.00000000000000 0.00000000000000
0.00000000000000 9.22246250141606 0.00000000000000
0.00000000000000 0.00000000000000 13.49800609161759
PRIMCOORD
 96 1
Ni 5.481656356268481 7.731033352852481 10.874857310009158 -0.6392950308617248 0.4764315864338633 0.4235864176083737
Ni 7.380109440391666 3.0681840882220923 2.591144848486852 0.8350523978041297 0.9623613421661491 -0.10443872463206531
Ni 7.787115146016241 1.2110937474535304 4.185407925539459 -0.3768861853383574 -0.7959361485289582 0.4228356554852782
Ni 5.764804393386348 3.9573862344924784 5.441774740357058 0.8926841893849853 -0.0024924274045505465 -0.865735171599967
Ni 1.3419973771470683 3.1684322532755487 11.622849724980924 -2.812285493330318 -0.7362888691799706 -2.16037225948395
Ni 6.4261656088705665 2.35578576644479 0.24455295469540062 -1.8477032322534503 3.007388257407859 2.2643026770210293
Ni 6.554367057114181 7.8127628136347935 1.9059592461781079 -0.26492029909131154 -0.1931754651478415 0.3163868424017196
Ni 0.0007387192291427641 7.624025122943074 3.459767992411305 0.04264097459897818 -0.30256202070348537 -0.01767196335846634
Ni 6.277222842944777 5.795837978980172 3.6183832767830975 -0.5576985009351556 0.25336499015354425 -0.3670182914053421
Ni 2.7940556192203507 7.2358424628450955 9.641976417650174 0.20915692817776238 0.3734079969817698 1.2839053032887762
Ni 3.3154198571966145 5.885756986272831 13.606934293679807 -0.7965791814295959 -0.4014571898095021 -1.5036222663705718
Ni 4.1197845728941624 4.594151143058797 3.1136120929525726 0.9013089549395187 0.21408804693079256 1.0754240610217993
Ni 8.623657032631131 6.159202993065377 11.935571431912676 -1.8581431966398514 1.1501328626896 -0.2934526022030495
Ni 1.9427209030980326 8.726210813256193 0.020895332802356562 1.6044922998147721 0.6544501413356084 -0.16397518943480144
Ni 0.17183568405938482 0.01441194181499872 8.813306824842977 0.5024148978715024 0.011150617300180795 1.4540477978765538
Ni 3.7184599040380264 2.3875202591723834 10.567831395785504 0.8642981820431245 1.7953835969141274 0.07297253570298401
Ni 2.5763501744869663 1.8707211400279007 12.770949443787018 0.8335524162198356 -1.3983546180793078 0.8623518569500309
Ni 6.392143945495938 5.43636484397984 7.29182557566239 1.2247390773412647 -0.5858461670139653 -0.408810801961096
Ni 1.6792259331125403 0.3380853227118811 7.088747878361507 2.7532791899994393 0.6137894303914526 1.1818839298489514
Ni 3.9681119581315922 0.1613746450878912 2.3073899733505376 0.9996765336768396 -1.4271666572149937 -2.8696491188514512
Ni 8.607111935289282 1.6499999501268547 6.556332363827418 -1.0234142436134117 3.3688601650736754 1.7736073815793003
Ni 6.822869824121202 -0.017310561711622575 6.151433068589063 -0.5806844203073677 -0.8042698652056343 -1.021773622686195
Ni 8.680993080665845 7.451030175374286 7.365969561214117 -1.007833358456019 -0.8027382590524562 1.9566596422502112
Ni 5.159949204331064 7.21466768943546 6.147424064233154 -0.1924630124618492 0.4215465043602094 0.49029626023109757
P 2.256496737469122 4.865300756742024 8.26099569241838 -0.8481462548736103 0.8959392059871731 1.0958882424134222
P 3.102694542097901 7.497907951176191 11.998755443283212 1.27779507662598 0.1656690321974566 -0.10249034265644284
P 7.418622442899783 3.4863213058263844 7.661926676201601 -0.4055509002629015 0.019774868634082073 0.09797368573301192
P 8.75638670985738 1.1651843301916993 1.5930752239101156 -1.1228004934232338 1.1384173740248844 -0.641760461683082
P 1.2758169877796717 1.5386663854051137 5.30907641950258 1.657201714393346 -0.2875830307961499 -0.0011284571774883793
P 2.337838854835404 7.999951130662392 2.7334271521493827 -0.24059174964827595 2.8737577417031863 -0.5301938677569836
P -0.08781905263003922 7.084695528432851 9.603979873030097 0.4525491233893109 1.141336090333576 -0.17452236882302846
P 6.142003100901192 0.9625576112966222 10.856013975065533 0.83806418804726 -0.3775189338263499 -0.39325768471784533
Ni 4.738196781510493 6.27239027270669 1.6679616176758991 1.517397208667477 -0.18268253603631765 1.5425539104387627
Ni 7.790278450580485 8.533747247800758 11.134909534823127 0.7586919194655192 0.3413566249731798 -0.14199791383276192
Ni 1.5645999493545453 3.1974276747040737 7.043259005379937 -0.03642276160340824 -2.211772211222481 0.6626820423270974
Ni 2.285621273369657 3.325177222295654 3.2486861200920325 -0.8844576877101349 0.10373141415239553 0.7243684635933009
Ni 0.9179845288200941 0.9992814561211726 3.1531340328348247 -0.010017275026685974 -1.2594379142750312 1.417190005618256
Ni 3.973276537011991 3.307331757771419 0.7246872527739662 -0.19854649965176774 0.7280639101670171 0.3584632027464794
Ni 8.310628217705242 1.8208921762943382 10.442677971327553 -0.10395715700995645 0.06329284652137486 -0.7009053474743542
Ni 0.4861547214591448 3.2054788842801245 0.9179882178050086 0.617207454934066 -0.35212106257853554 0.646497462147435
Ni 5.4390578029674765 3.730439882548094 9.115526913969175 2.478456801303067 -0.8274565877347426 1.5952679530030267
Ni 8.978980059602572 8.58819666513982 0.40391064728125037 -2.2685349699348225 0.033772211354438614 -0.6428326117013381
Ni 6.738530406511832 6.898079004067011 13.122100228820079 -0.5250521756550441 0.13845210546303252 -0.012567038031733195
Ni 4.207499411700366 4.382163624942997 7.533898610248971 -1.6441826764258587 0.7701870645893123 -2.6111902591147675
Ni 4.7118297618336 7.802590437732864 3.98071076386108 -0.2876899886876594 -0.11131256893376312 -1.561115475491034
Ni 2.349459157316301 1.7953367332986503 1.646257474931023 0.8147671651925322 -0.9730031381507114 -1.3048325403597465
Ni 5.864388541155181 2.0882882478269886 6.9721252315185005 0.6064247624962652 1.1588874689537783 0.8165193719969487
Ni 9.074082090700202 4.827331879508805 6.620016232653879 -1.5410343884704427 -1.0485593754204716 0.6382192812990428
Ni 3.578850269946102 4.966757064355001 10.151647495693478 0.23957384990672287 -0.4078183561408396 -0.38282517653061165
Ni 2.5378925067525677 0.4778738725721624 10.34769306550096 -2.204675966497332 -0.841107602859274 -0.45653561884088467
Ni 9.208923711790044 3.658827462893993 8.921169054760107 0.4480918589489057 -0.6445069140799674 0.18647697008174335
Ni 0.9723518662448071 5.3349730936028665 10.481039725454172 1.744054864733164 0.41942714402436154 -2.2134974214437038
Ni 7.801714303815654 6.548418568939436 5.384745800316482 -3.3182474851231305 0.7912778238213405 -1.2234370707003897
Ni 3.73086411581327 2.0562863036930885 8.139621633005406 -1.8394901003150386 1.1633604171234673 -0.4025108278849971
Ni 5.419847414024849 4.673639545505507 12.974660724246979 -0.033212482196226675 1.310582041249014 -0.7956744102271395
Ni 8.403249406447824 2.1711889613196766 12.829287973472267 1.317828181288466 -0.9412659549484305 -0.42738856496328326
P 7.922048991728946 4.6012155491702 4.2992905788371685 -1.4638920376604854 -0.344612155796 1.6995364706058151
P 5.949779319465204 4.437821184841581 1.6359449176023406 -0.6573596016729195 -0.5831909887793053 -0.1907300889311425
P 8.208009879844173 6.602591312409905 1.3188858866572835 0.5846074095108577 -0.6636055825826314 -0.6873353220994033
P 5.905225604159478 5.639812362018409 10.818935065442952 -1.0602216422497481 -1.0710153904311426 0.9547933000109041
P 8.618630790685028 4.0992830392314366 11.274789387060043 -1.4258613081400089 -1.2017636994920142 0.18633401674597588
P 3.1326214322173547 4.083623298269084 12.042272553827944 1.607947091132592 0.2166848611236913 1.384332592768603
P 1.9852272317761723 4.705244923761091 1.5347366942248675 1.1636882327765312 -0.47346016251036527 0.12182375287773212
P 4.491588139971448 1.161679794522857 0.3964044852263278 -0.40045060292185874 0.010697588923162223 0.7078378129281294
Ni 2.103191746881854 5.049159764884222 5.850090035626305 1.3037989568889092 0.7983275315792703 -0.9715401804519398
Ni 7.853839660658537 4.525655915657508 0.032091402018078356 -0.45767127510722466 0.30294562929514923 0.5113227418840935
Ni 9.231408074844351 9.004102046870798 5.791332806153253 0.008516522111443398 -3.125978076729326 -3.2091612344167246
Ni 4.777816479492982 0.3703362733275146 9.084562496842498 0.9627506071847677 -0.942780591820744 0.9768117132635241
Ni 6.4709037734220205 9.511678703728855 13.235293964184992 0.18032483443741845 -2.7886889369573007 -1.149927431547013
Ni 3.469619426625666 2.9033971320882235 5.511519611398158 0.013204414505415969 -0.14290319925585065 -0.1451500863084984
Ni 6.379149496134364 3.0905946715781094 11.556020996514793 0.49542612525849516 -0.016410580147539478 -1.5525943253939003
Ni 2.366880388575361 6.196553965325404 3.5710185549724685 -0.3558977560121484 -2.0575561580569723 0.8391772186057807
Ni 4.293471205134433 0.5328157693973197 6.3168508411433235 -0.632481093263685 -1.4480913231828028 0.27148792500650015
Ni 4.9659270427492235 6.465370296050164 8.842556786230608 0.07695980248550617 0.2981435799208156 -0.14411958816145504
Ni 2.890965252926121 7.7372400699712465 5.437388537293633 -1.054544903579945 0.2387567533220662 0.25159761384047635
Ni 4.883524342220002 2.3200026127734548 2.844799451212727 -0.12969569942664116 0.7100872710839383 0.1802926956479024
Ni 1.191800356350326 6.72872692910136 1.2221468685038126 -0.15459657643337893 0.31168943692605033 0.7674727509819428
Ni 0.1835113213140008 3.0490290340531847 4.397474756830922 -0.48302878003540684 0.6331182126270516 0.6097204025284015
Ni 6.589845869530064 0.8682404117395667 2.198838825500612 0.2747270007690882 -0.5964671370629212 -0.6475503288919816
Ni 7.602859571995726 5.601124132726849 9.498992284607645 -0.1113249102289373 -0.7576220834401082 -0.3217488780445814
Ni 0.1499572367772952 4.818127862146951 2.8570957601792193 0.6670086947269093 1.1582207819040569 -1.74326682161423
Ni 7.168951943881644 0.5777448389181038 8.372030449362041 -0.5061535389783283 -0.6529951540566367 1.241276669984972
Ni 1.257427397980537 5.197586072921971 12.847698774934658 -0.4370188889641958 -0.6999735796887042 0.97887476644014
Ni 4.259274314976364 0.38383795811484306 11.865799815730943 0.485088490777913 -0.5390909131362974 0.18925658970940953
Ni 3.226994888794357 0.8635590898829767 4.135910048201979 -1.2821394696376047 0.665900292154079 2.190461879780479
Ni 4.353518657081357 8.019465860860471 0.3522288908743448 0.5089236455242977 1.0942175395792186 -1.433849211441492
Ni 1.0865075044261945 7.70200104157481 11.341334985933983 -0.5241744010357812 1.2517829688329345 0.4849877035339906
Ni 1.847766431396985 6.918386866021722 7.473198207972169 -0.7120194551096447 -0.13620264730722348 -0.006210499686086077
P 0.543943592392122 6.544019454428811 5.558775508153808 3.5557554536397604 1.8764144841452135 -0.5069966037049138
P 5.3940152971605695 1.7519819380901593 4.843502544881826 0.3267800127105856 -0.06886699817504269 -0.09493952689237843
P 3.5848817602814247 8.233251759122123 7.858093982511265 -0.2855014656767728 -0.1906562982704136 -0.863351758969455
P 1.4698760392106585 1.8651231054200397 8.924395072067899 0.19452735119004563 -0.18722541821199368 -0.07707910167218983
P 0.44203538412710897 0.6324266623067839 11.76479448652377 0.8347009280019818 -0.5141810372684951 0.4314359955597796
P 6.815270515197187 8.262367072560373 4.040439118612892 0.9864165833431398 0.026133720972574343 0.47312129111370776
P 4.215891852381014 5.469381258965246 5.309778248882578 -0.6710864643407087 -0.2147853301081333 -0.9419730083177843
P 6.4505959114673095 7.6201147989336295 7.790563424665136 1.61308492657979 1.1817959981208355 0.37239035435053286
