# total energy = -381173.56049143424 ev
CRYSTAL
PRIMVEC
9.23347856764351 0.00000000000000 0.00000000000000

0.00000000000000 9.23347856764351 0.00000000000000

0.00000000000000 0.00000000000000 13.51412921806143

PRIMCOORD
 96 1
Ni 2.931629486472132 3.1004728779355313 10.480572644094261 0.12660214810298198 0.7106030343780922 -0.655337171926252
Ni 1.2403239599631968 3.629246502508128 0.7827367627572314 1.3263246487952511 -0.6171963991904725 1.4885232059456044
Ni 0.951648481962993 1.8593917727191356 8.752128219568041 -0.4138038843003131 0.8420869360534078 0.8925882872370693
Ni 6.920206045974117 6.643183218090221 11.22114657307487 1.1918590387837924 1.0960556212292218 1.2215856193139476
Ni 8.226392409486937 9.385831096059595 6.088602020557972 -0.8054091210164 -0.8775889856147596 0.05928141136913662
Ni 7.001811530703064 1.9289568012264775 11.803253693952385 0.42622076990742724 -0.549263225683609 -0.39336052884429673
Ni 8.365088493002837 5.242492200107976 5.055162460944211 -0.2093165936840782 -0.07541148416177981 -0.7847150830021582
Ni 8.557495722102384 2.401489307052297 6.605747002058874 0.7869084911090513 0.5474835080753667 0.06872430194959131
Ni 7.195640715522034 5.463209274894211 9.327709117702128 0.8596699392424937 -1.9873825252553645 -1.4565129715875946
Ni 7.633418407530275 2.4689768028526906 2.074580763809148 -1.1668782004687388 -0.8379112074091634 -0.4887451136938938
Ni 1.011629159582278 4.577173892556009 8.729816441643282 -0.40122784740751544 -0.19505237045558022 0.024014103526410254
Ni 3.9350593169709853 1.6719890890736602 5.763492158965105 0.3953847583631771 -1.2113048062132301 -1.1855474947434679
Ni 7.25399630089055 7.07452517544627 2.0213894630761717 2.434755760870691 -0.08320861160869542 1.7767490125320757
Ni 2.4469180222442435 6.779404729315177 9.990495605395227 0.7453959736875614 -0.1530318030494203 0.22242382048999756
Ni 5.038339986105145 5.590889818323933 9.840624242611682 -1.5774136984304252 1.308656542091527 0.11248113532056755
Ni 8.029294573209036 6.582196091292903 7.421270924323236 0.17076110200838332 0.7676306167160457 0.450947583230146
Ni 1.1101965446786244 8.100179989170126 2.511520055951652 -1.7388450383974505 0.8545873825132638 1.3998911093284923
Ni 3.0547579249039614 6.145443315420089 6.047762344278707 -1.065759284238526 -0.635206462614648 0.02984510838589054
Ni 0.8663930031049043 5.0385154222003985 12.630008296356579 0.2804906427257427 0.9495317945016485 -2.4624074611496884
Ni 2.244871041384454 9.128263207791438 9.235812920964761 2.2724111650607766 0.24097818645341723 0.1493273576146396
Ni 1.6553688274180702 6.222505928629842 0.9660720990364359 -0.10104435423853567 -0.6136007114194143 1.4264302932696014
Ni 2.5068709994274356 2.434960667330916 3.5145112962123717 0.8792152083642729 0.7087076171275923 -0.09614563138533765
Ni 2.6002768699318515 6.843845177145378 3.8333636292919087 0.010116776719027738 -0.8334156335316549 -0.9265713290507334
Ni 6.615889055060263 7.717415363241888 9.184662219023943 -0.7091894418600173 0.3906282175147982 -0.5257340322134171
P 2.9328852395749982 5.222751022652614 11.42952125688609 0.4680557036653423 -0.14047813475412582 0.43973114568903626
Ni 4.229505719157158 0.9311132253396417 8.074003077062573 -1.5657588878003164 0.3177981209269495 -0.31972721962886225
P 6.411579871919574 5.573992552307416 0.7407650619896481 -0.13367268179651817 -1.0282743999191906 -0.20098776210340868
Ni 3.0715166887400147 9.253053672388827 11.513254135106953 -0.7495634748016897 -1.032932467516492 -0.10792102675371092
P 0.6002592166490293 5.37125306054531 6.665114576692642 0.09006034442320619 -1.266244138563587 -0.3796076980345785
P 2.0937466955416526 4.522668667804371 2.785384110773116 -0.9017064474882535 0.5440544277891598 -1.5053510761362203
P 7.263026643056754 8.656450913304027 12.531300562384027 0.15911400468775824 0.35511382665827224 0.8010439020691689
Ni 8.265200720452741 0.06202219975931325 1.4272409626291809 -0.9883495386997945 -1.7370033572030212 -0.6075069398168506
Ni 3.046503194948351 7.0856145833620285 12.855964446955804 1.2844223521345104 -0.6986214365361839 -0.9135821158799169
Ni 9.195621434890066 6.834334694086901 10.032781244438526 -0.40742806268095644 -1.563322767554998 -0.15541110191487428
Ni 8.122109501076809 8.494098657365006 3.667572825885919 0.5157805205451311 0.5099734269450508 0.7323769357200741
Ni 1.281459107560782 0.7598626659797907 4.595939091313039 -1.4181909360789446 0.03942478165452565 -0.3395555672086991
Ni 6.883669170767911 4.6223902377379105 2.8229255884616147 1.1593322698006807 0.8845121950971542 0.948437018775573
Ni 3.8957523981555147 -0.09299036396302626 0.4154483704739564 0.131922788984947 1.1997263573470112 -0.2904071305085063
Ni 5.265188090746553 3.338428857450093 1.9513996945487424 0.2846897684087549 -3.6763684740388425 1.5453648975249965
Ni 7.628303060331833 4.595788585610269 12.104281719754173 -1.1870762726831685 1.0195691588357085 0.7933671022502015
Ni 3.873878287121019 3.8866297212023357 6.191471283379507 0.7347189535896895 0.5281935494975032 0.41508455078494966
Ni 2.4252008803476057 2.025779058848987 12.536692913943398 -1.4491840420263493 -1.238903541767105 -0.7573130368401216
Ni 0.24018678796788967 7.323764465929238 5.713922228577308 0.9288264436334971 0.6131093736052925 -2.0049228481319727
Ni 6.198314214442261 0.476707884892852 4.8418016986363135 -0.2623185998024063 0.6661951976866785 -0.556717625079125
Ni 1.47578690022942 6.993353664216109 7.7462182766910255 -0.2264221430161133 0.02242130511799364 1.0805387565405455
Ni 6.5477552157510415 3.0273898940444233 5.144044850234698 -0.40825930033300006 -0.12323374585138132 -2.373060854964055
Ni 5.0962892984109684 5.602274697558013 12.25609949984716 0.3993365439220736 0.3407786409825228 0.7213281341050802
Ni -0.13787153386820764 3.4717325894066224 3.426953911114984 1.3394560439708867 1.0559433265893687 0.18498598735851368
Ni 3.9519011821153165 3.664980065067647 12.745662233782742 -0.6496897438324875 -0.4373369344252468 -0.7117204358119872
Ni 8.653856305790017 7.057563275078872 -0.1026338091147475 -0.6418771897666042 1.3158620587010303 -0.29332404704498516
Ni 1.7568909256976326 2.358839868948314 6.527878306158826 0.5127921273407685 0.5302473467027384 -0.13036701446205287
Ni 7.941114851647432 9.35351392061817 10.495802343858 0.9648540266810157 -0.326322870568509 1.44332244103925
Ni 5.583595370152868 7.5868078070650435 0.7769769187456996 -1.4731865755885338 0.3078749482759665 -1.7429924849069207
Ni 7.56269919418574 2.9462368497716556 9.156011657973316 0.5395051178555805 0.3863043933284637 0.6687117934609451
Ni 1.8086815077121907 4.147235423961987 4.88964219846406 -1.0405817565316338 1.8421038837888017 1.6670287277860965
Ni 5.527141881396047 6.1081677619180805 7.116405464774748 -0.1908820411279745 -0.449839951988264 0.09149424865625533
P 7.739437209935544 1.0373628647123498 8.190711477755995 0.9928775084771351 -1.286710633948055 -0.18951935645249296
Ni 8.668112796899033 5.125439390659134 1.0526193415643117 -1.2310817317298413 -0.9922601866081106 1.0462042449247337
P 4.889080802959249 2.038410457707235 3.676951270199021 -0.7477408197706542 -1.0699699798857638 0.22264159292775848
Ni 8.46076579926685 2.9209278846616713 13.348919560964864 -0.01634990211293313 -0.10949017101304369 2.727085048102574
P 1.026051853307851 0.795408788921749 10.927133221039613 0.191582923849741 -0.4451484600498656 -0.42657223970957503
P 4.431460365229972 8.523451886144517 9.738889774322077 -1.1972956364183316 -0.04477781843632288 -1.7970854100965823
P 8.332069573180398 1.763003488595411 4.412038666137545 -0.3021331606961829 -1.477154044876714 0.09924869579069359
Ni 0.9971602984632171 7.771135742304234 11.90081278317496 -0.11983089081741945 0.79566772535892 -0.9812530368643294
Ni 4.5270084027922195 7.541369858394399 4.981781235691171 0.47240755287613484 1.5833490900782539 0.6562671399396891
Ni 9.288602565374395 0.848718278182054 12.966226032822597 -0.38814093231657026 -0.7671493062042529 -1.171771781115614
Ni 4.715906909986698 1.4965991612136977 12.061658135390543 0.6468453324051571 0.591060107114737 0.2820461601383207
Ni 5.160074169253644 6.319771393229834 3.017704898238563 -0.27271125589064 1.150151117522045 -0.3766984948075835
Ni 3.963221426998513 4.765296787539893 1.188313621155637 -2.141922537419195 2.8266397051694607 -0.05503343472606005
Ni 9.417317258418242 8.74497227357744 8.846119492621883 -3.2411658123477793 -0.243806914151464 -0.5403268424259274
Ni 0.3576680308282976 6.098149437531238 3.2072543656812185 -0.5620526641387933 -1.1387804137912583 -0.1964147980207456
Ni 3.338142619610469 5.2113476764611395 8.172709887687251 -0.04179611010017963 -0.5579054747396391 0.660169817428205
Ni 4.066211648390986 4.425080031449965 3.7417111963921577 -0.20542188661536234 -0.6857646351781738 1.010848491133259
Ni 7.331677557173038 4.328857949942797 6.87236739284211 -0.5130140135435874 0.6944066271238879 1.7097609765473003
Ni 5.453708025314432 3.722467703438593 8.192102962995717 -1.2990403591580015 0.525521916202611 0.9208881626230269
Ni 6.272662184914934 0.9880376215100376 0.6164750519376666 -0.5129193969472521 -0.2802834118109431 -0.7503484325968303
Ni 0.5210765967303194 1.4768764507157308 2.110217374842342 1.9426707841702864 0.334476867134211 0.45107022485093934
Ni 1.5603378646628854 8.63790085460065 0.48460712591860605 0.2092895971008847 1.086671866021477 -0.811323943838938
Ni 3.7016369754969207 7.846443994561453 7.640889215144463 0.3363352604991885 -0.42959817102009246 0.27315605673754245
Ni 5.247515212519443 8.1884705124761 11.576311407828262 0.10237875677924303 0.2664318506398315 1.9504784531401635
Ni 6.221277875963068 3.4959058366368088 13.502723462325694 -0.8010477587239108 -0.1844005471686889 -0.7033898044591047
Ni 2.85471460892154 0.3297672282479107 2.7985464346564735 -0.12046312508477965 -0.5719465262137375 -0.2761197673515567
Ni 5.9608476092986695 0.8769477926040737 9.525649970585118 0.2396584392007292 1.0499729679385466 0.6572981523073648
Ni 5.96280510678255 8.538770227303752 6.958789983407569 -0.2247241864884001 1.0241277247406684 1.0588036788562991
Ni 5.024729838504955 8.981783301733504 2.850102486312114 1.3131431171079708 -0.05815706795670629 -0.33541969066345456
Ni 6.071206146691788 1.8662430139127175 7.010198299404049 0.7269225974737222 -0.8740223513094237 0.42710471517427734
Ni 5.560613241674666 3.4669588809199894 10.645755884601954 0.09687762445535573 -0.3343182300691597 0.4280405967249854
Ni 2.8767272221364992 1.9770539917620154 1.111234387684229 1.045251136982845 0.33874155594783595 1.4757988164004003
P 3.0675093589852778 2.821741856492589 8.237510441186657 0.015244584863896326 0.7625843125413899 -0.3704437721471233
Ni 0.4711973448061541 2.8703653553138873 11.532565955802879 0.28666463274693854 -0.20128986672485977 -1.9328540551901807
P 5.879186723697537 5.152410381934677 4.971091637403019 0.21620920703885343 0.8902627244276861 0.2923683679999352
Ni 1.1633629150191174 0.07938021636283754 6.940843794211011 1.4354839188314377 0.46063498572123895 -0.47836994110715686
P 2.3452943556990076 8.32587390897434 5.4332207827803085 0.9653299378761697 -0.6145005975258643 0.23792371589780958
P 8.79366040674962 4.5447643823276085 10.501532640737699 1.547179325025916 0.47738366593448756 -2.3607486132556055
P 3.3417067423877236 7.52033599392138 1.7795138718545 0.6849218275619043 -0.3089506978386486 -0.1536532386835031
Ni 6.828942342527533 7.2576712254121745 5.334378240018776 0.9356290683776274 -0.6893976039450708 -1.1699306141418173
