# total energy = -340872.548969193 ev
CRYSTAL
PRIMVEC
9.18138133511211 0.00000000000000 0.00000000000000
0.00000000000000 9.18138133511211 0.00000000000000
0.00000000000000 0.00000000000000 13.43787965218339
PRIMCOORD
 96 1
Ni 6.2794954961146425 7.899954189872347 9.431093652888595 1.0651923559914624 2.278334215413431 -0.04712009341625433
Ni 6.669024774964713 5.804101940269194 1.5024090849608642 -1.0800170797091204 -1.4485219829623182 -0.6647872615955583
Ni 7.659135742341152 4.122026997268976 6.2713378389172085 1.1835672310886456 -1.0764558447204235 1.3512216691472472
Ni 3.4721504730723582 4.451638582398791 12.5334291088265 -1.5564859471388226 0.9506103722778081 0.21334654077907775
Ni 7.3914801175583 1.6214961898334623 6.243239139888483 -0.29700046745530784 -0.5255903075467013 -1.2224723927942753
Ni 4.546675059214355 4.943338271257904 7.554803117059183 -0.31035503438534295 0.39413700199900503 0.5070770792338621
Ni 2.7184784343940533 8.745798114431382 0.8691095445233515 0.15233400565144734 0.6159946655728876 -0.24837550735875288
Ni 6.215804254720616 0.7195384177859063 3.058125269176985 -2.001864520921623 -1.1712022817653893 0.18728969579102583
Ni 2.5124115147101094 4.065230973157193 8.98245647814023 0.18784094030880555 -0.539607961982032 -0.5301118495661387
Ni 1.6403455654399113 0.48327393533059887 3.6776518196742964 -1.2998463999990646 -0.7419383541562642 -1.895532178811271
Ni 2.3677037655950395 2.8597156214149986 4.099480279452728 0.5406325465918044 0.20674934717753424 0.011800335069037743
Ni 6.741897397560126 6.39196741583164 7.695806178859494 0.162402702741359 -0.5333799787944491 -0.39904498082358375
Ni 1.4357476667481894 7.125669950396928 2.469022143428592 2.6368411269136525 0.2121687184208927 0.5087135863960207
Ni 4.5990456575870695 7.490602309008481 5.876572418367987 -0.42496787133693265 -0.5628265661903403 0.5540156527669298
Ni 6.818699651309735 7.86173209993097 4.4663343011497325 0.9620530668971109 0.06045614840352814 1.0962140011839572
Ni 2.397837058697993 3.7869616717055368 1.3986144886172975 0.1815237398415261 3.3158656151545145 0.19949986470397255
Ni 3.4857940055376204 5.0795624241428925 3.129212113128729 -0.9325604567546325 -0.9815893371578257 0.1308097584264263
Ni 2.9973537070050003 8.139193439836905 9.658972779892673 1.5132255937882908 -0.06009259441652231 0.6697235225549111
Ni 5.0912962293182655 2.186720379353287 6.700247898016272 0.8450033383692545 1.5385743569657246 0.5147798471947587
Ni 5.200885195338028 3.0170110441571714 12.892610250253506 2.6659616984286925 0.10311614916589981 1.3096852404663575
Ni 9.119296701703831 3.75389951799934 9.433270558371444 -0.1098364986088689 1.1824233472921895 -1.3052629430289457
Ni 5.267404302142081 6.507221294052659 3.51483838683009 0.8779903348182363 -1.8336177006946615 0.3728197285784676
Ni 2.3210439863295873 5.242091234169855 6.514280858058406 0.4796318385387159 -0.5639527093749835 1.1208392559318052
Ni 1.3977642927180491 1.9047785254210758 1.8074347675096039 -1.3856137734738718 -2.0238729068719143 0.520253211604504
P 3.9638042550254635 4.07044599767958 5.327527658801248 -0.08551617669594949 -0.00045791347302501787 0.4729665107033984
P 3.3968172403149732 6.8870274902104605 8.053025259123762 1.6474868010984274 -1.4639884540290335 -1.3314491145060101
P 5.760885178954263 7.7934226237926465 11.557409725317953 -1.3719869267190565 -0.7160758845672055 0.4145736725868021
P 8.523948400462254 5.965877877037644 9.032781464781277 -0.5191831184687768 0.11036100365377123 0.01191552049066335
P 4.812898388529789 4.244570892163897 1.4995729563077556 1.0038414636878066 0.8920511837866766 -0.5557807150871524
P 0.6070793520025901 -0.38102456544322555 1.3190513935404329 -1.39660781059153 1.114970455855854 0.29849453550233107
P 6.578845248804684 8.518972091851102 7.021009549806069 -0.556755420295596 0.20022003069944871 -0.8861209343451707
P 3.060310437902915 6.826274290800879 4.257805853165697 -0.6752969028776304 1.2627901185767156 0.8936578661521641
Ni 8.473147818274976 0.4332124543300329 3.819112114258436 -0.3213017632048337 0.5235066855447952 0.0105759757436334
Ni 4.849229113943681 2.911094630617964 9.0488259284307 -0.6639483106340307 -0.05021364473991353 0.1906915223837232
Ni 8.63368426858124 3.1519038967679585 11.57612872531134 0.547836006318779 -0.7171950857733133 0.7539402637131467
Ni 5.093600755999814 6.294929397914174 9.94697342727968 -2.8347685049241824 -2.6911513103204427 0.47019049062015805
Ni 5.8232267573116845 5.2662107225859005 5.570955454869878 -0.7835074358473022 0.38451773374168613 -0.6206979845858277
Ni 9.122418371312303 3.187197126106092 4.4806324660946535 -0.6074632310631086 -3.1202501731066135 1.9266551254683202
Ni 7.206456923587937 4.823043814757323 10.5301508896007 -0.40019683503983977 0.8606017070281436 0.11046153378737748
Ni 6.697266703540181 2.368052658080692 10.522128198706925 -0.27222763138600214 0.22716133517498296 0.147530670725533
Ni 8.818083128629908 6.716327250914262 11.180799567956353 -1.5308800736452601 -0.3237877628514811 -1.3976956443390702
Ni 3.4890993027701196 6.747360319374952 12.04676357128011 0.5082549015920472 1.9808411245924207 0.7554728983075892
Ni -0.06156850606026506 3.3364129333910437 0.37732905950966705 -0.5001772667902354 -0.10335217643610588 1.7960279153663457
Ni 1.5871302799966684 0.24115540422128665 7.910866261430197 0.34458438788185813 0.8095064310142253 1.1114102493084215
Ni 9.076364563206143 6.273656137670559 6.72788936426117 0.15667505622896244 0.05445750761793203 0.6960996985555946
Ni 2.9419440714546266 2.75657198499861 6.809779939472586 -1.393852102223264 0.0700641038069374 0.1754687918966978
Ni 8.369490024511311 7.187745268699509 2.679082963935139 -0.8200042452217554 0.5245703509226192 1.3954248460270224
Ni 0.34257569538617466 0.7950268158855951 12.538307176658797 -0.9206241103283628 -0.3316136866538031 0.680534497127486
Ni 7.624319944825491 0.4632254713392489 1.2656414628157207 1.5352692038518914 1.0691500550876296 -0.925051292861781
Ni 1.287027654048113 6.886458244575975 8.5800998916137 -1.2209269026840264 0.6101868006418587 0.028990730805395236
Ni 9.403295185025152 5.51756939573629 1.2473989765066837 -0.50555704304491 0.053495143704662705 -0.3896475987690838
Ni 1.2280189170667948 1.8166831727937616 10.267130944186427 0.4023424206279329 -0.7434787020601905 -0.570157809744431
Ni 0.9183492919063934 5.120630742256698 12.371301525158039 0.16147633427234773 -0.0047699105848175915 1.0092443798709327
Ni 3.6193831020178098 2.4008485517320484 11.343048345856674 -0.39526803027965474 -0.6806620238442858 -2.533220013086876
Ni 6.85335018396377 0.41604878031215886 12.040904013797384 1.0013405516428238 0.117230734190411 0.40652149170628693
Ni 7.857628022533951 7.576136056280608 13.755013713947362 0.9442792878534577 0.6850210721439299 -1.5392500428765103
P 4.976235160102476 4.295233753633154 10.857403777899878 0.26926443499262015 -1.26936931445613 -0.6326548998373879
P 3.6771615339181425 1.0097591231474083 3.640012747439208 1.3203424630698875 -0.32763516162202927 1.1334883121543833
P 6.401121252889424 7.883207350561017 1.886973990995345 -1.0703193928053825 0.7931105061547051 1.1251160289302882
P 7.336685634548418 2.2434704965590635 13.206627259412764 0.08675930507443122 -0.35034545873535144 0.09411240300539275
P 6.9735711894147405 2.283987931800787 4.270369655201676 1.4732919908181468 0.3144919393718519 -0.06068317681266968
P 1.6570832233700408 3.751034927064507 10.97855944795715 0.5330735032976239 0.6297737216348509 0.5540285082827361
P 7.850842981826125 5.908145352043318 5.063917350575728 0.15712885593692938 1.0811565926302025 -1.6970800386455225
P 2.3026169542584025 6.390865650087474 0.5964537395382242 -0.5296709053739782 -1.3024786954155891 -1.148529522758222
Ni 5.172533090188143 8.75557628541086 13.548204020524228 -0.32783236523449993 0.44600823694699965 -0.2669550701331531
Ni 2.74538906269532 9.120637183359234 11.79262569404006 0.7622120168036357 1.0861257637100197 1.026206204536252
Ni 4.2224437634685525 0.08611676497841514 7.768236258881001 0.3875521496926358 -0.2709492788942108 -0.7128265243919724
Ni 4.053809334942667 2.1919629480192793 1.8894327648810765 0.38645017487770866 -0.32890091570833035 1.2206993600542526
Ni 2.180073059363482 5.954235885674284 10.398943443404148 -0.3523347212512384 -0.5886239868694185 0.893045686489462
Ni 5.667326904512123 5.58552997938896 12.47692321636068 -1.0435318402988931 0.49454629375670317 -0.03149498528448769
Ni 2.698683376523862 0.30702355109816154 5.587013690591105 2.012645927807844 1.9431207272235116 1.0473787248488093
Ni 0.9541291344482008 5.2932774343675915 4.705649756578261 -0.3239741678306743 0.29071977665291865 -1.8147069798330877
Ni 5.370988644856136 3.476511629143017 3.6456693963973827 -1.486893126541349 0.6986528039947516 0.5014306795813622
Ni 9.01481258363204 8.999176691446078 6.230109764770498 -0.3515731604948655 0.2638139534010101 0.5919913606797547
Ni 4.294756321810682 6.773756790328941 1.0227599589285732 0.7179263075123828 -2.4688820131304383 -0.1787952851667695
Ni 8.893700984204536 1.8227704285302817 7.915623135030636 1.047648433570428 -0.4532209526453549 1.027475815277295
Ni 0.7648347619429521 7.6568495784220065 4.661990452689423 -0.616145589328455 -0.3419351231844692 -1.1986691197270904
Ni 6.654453922998111 2.5658104277773797 1.8305479765459771 0.003917332776535189 1.724590585360965 -1.1709647118332864
Ni 5.035308166752204 0.5012428164798346 10.421559021579407 -0.1957761359954822 -0.5011956807524207 0.12531171142633257
Ni 5.359337472111575 0.5202794922627917 5.287469292619594 -0.46550079845397246 -0.6667559552861549 -0.5942086800460477
Ni 2.024164025182719 7.673467878396518 6.490764586387292 0.9201021763866217 -2.2002120171887074 0.27959024239866037
Ni 8.312198205814651 8.425973881662246 8.602070018690501 1.9235196651631326 -0.8377222313268089 -0.3419577488922885
Ni 0.9842165206451481 7.532588765242426 12.759683131357935 0.9272436725274096 1.2259276983327274 0.5930974492597398
Ni 7.57370299026224 4.510362696562867 3.242855577087024 0.3514829147739043 0.5509537260121544 0.6229165895037013
Ni 4.346842297366154 8.273801669630448 2.6551103776183163 -1.2967888441196633 3.049172283323181 1.0033822646632011
Ni 2.026863351255927 2.4663944321287548 13.036194198309525 -2.1382245197423173 0.30470117853367523 -1.9515590877988522
Ni 6.67304621993092 0.9184319243372058 8.55177257619306 -1.0045474886158958 -0.9444795767897218 0.3312125945606425
Ni 0.8987617332513529 8.652533644187688 10.428775587203697 -1.1485714317397508 -0.8450498753364737 -0.14002253527394595
P 3.2569388977118328 1.1199816044700668 9.412696919375373 -0.9331183861406317 1.0277550370806106 0.06481313982064321
P 6.8835936536411415 2.8898121889931474 8.061827449281532 -0.48337742162407726 2.2159358556818676 -0.14683287332756
P 7.647769192413834 5.68418392039787 12.942626742486183 3.1454798942076794 -1.6253295482750976 -1.0087872377288563
P 1.0618542800840818 1.7043122482699786 5.967641620366431 -0.4249740419845197 -0.28599460326310744 -0.6925343498018395
P 0.5596593543736633 4.0285697180200515 2.7482747708069164 1.2093517962519174 -0.3147408221578644 -1.6073485383166446
P 8.270202568199505 0.7287289803684954 10.427727073470498 0.8265358756926863 0.3045152877751143 -0.8608516182554207
P 0.8830441267726976 3.6015436783435137 7.458452784593702 0.5293811420477011 1.3251465693267501 -0.4424793978581347
P 3.764779454722984 1.5287550583182459 13.41383909733252 0.6688552610173448 -3.2458850722003194 -1.4985134843890966
