# total energy = -340854.4905144337 ev
CRYSTAL
PRIMVEC
9.40647693126200 0.00000000000000 0.00000000000000
0.00000000000000 9.40647693126200 0.00000000000000
0.00000000000000 0.00000000000000 13.76732981015790
PRIMCOORD
 96 1
Ni 5.957582662977151 2.930343272826347 7.07987693293879 -0.057974262521938866 -0.1318816513343664 0.046058999141591644
Ni 6.185050084503218 7.319113738213655 8.753928792758128 -0.08184387005068484 -0.7002636001252972 -0.979170700414004
Ni 6.089320370299646 6.153707703867834 1.3264928898737365 1.6226337466104894 0.083367762894379 -0.27077187277608206
Ni 6.852326734417047 3.9225572566743607 4.800653745506663 0.2980091112254803 -0.6877749807399832 0.8102150270454755
Ni 4.096182005104109 7.1207781752793595 11.79594481728472 2.054150217699217 1.5726119061664077 -0.09846502354713364
Ni 1.840903944966529 6.026174691666593 3.3584715383470543 0.7960143100650613 -3.1181848059371524 4.09453732017607
Ni 1.9436508908489722 4.999316653832948 6.076293340605185 2.889899127349739 -1.2012541068454474 0.24708558490273574
Ni 0.08122304571140887 2.2449967810155878 12.12239565333302 1.4394333903974887 0.4805625778831014 -0.5632826798911525
Ni 8.443309997780478 3.6843476386640166 7.215815572791826 0.1489404065888661 -1.4209620710661786 0.6332765925817868
Ni 9.158870093012862 3.135705473916294 3.2029693080842128 -0.23311755275841786 -0.5126818270151493 1.8799484654404008
Ni 3.3177113931582047 7.416433146993271 7.408668100410285 -0.5455310123346863 0.15751992072776097 0.48323035452325164
Ni 1.5113198115023674 8.527422713159112 6.391083908035353 -1.5359937407227418 2.4198492760725037 0.3382571601122497
Ni 0.3560953476246559 6.270893591609616 7.122197612625661 -0.32513990600400133 1.0145357101768593 4.05905841054317
Ni 7.685420757032119 4.601686067332662 1.7218245334486668 -1.8417413582430604 -0.12737810703705804 -0.18787642153243125
Ni 0.7850071726612481 8.36596053920762 11.883270785131852 0.9283348487090594 0.7276939284221081 0.39837160890564294
Ni 7.5850818692056965 5.686657318721348 7.796094540898188 -0.6457207318824105 0.42996455322057564 0.9398742168072264
Ni 2.5482804053991575 4.858059592007749 1.093457774740801 0.9925221820202456 2.9903634407150887 0.8253727086225204
Ni 8.107291834197888 9.16700669542871 11.13445126929605 0.5012591870005045 1.4687172269632707 1.8701582188228565
Ni 8.262771488916455 2.107953820788424 5.3946181966821785 0.976943096635066 2.0942126329377415 1.8797857146102914
Ni 6.21616670969585 4.170916463131757 10.13846811020176 -0.34025465015825274 0.9058826903531301 -0.1351515803348898
Ni 6.578598260080409 7.199491572985509 10.960267776145491 -0.9520190796998766 -1.0047516342069018 -0.6680605330301914
Ni 5.895340006115105 2.414097014113517 0.7464848282986766 1.4854563940948224 -0.1021401584058757 -0.5915815268358456
Ni 0.8983655650007071 5.9444606278671985 11.861269976588007 -1.442651126003838 -0.05313107549702462 0.2540568740142463
Ni 2.5784281634833133 1.4116111576202932 8.98519266831314 -0.4027627959948031 0.21950690395351874 -0.017431565212886108
P 2.052211039382276 7.215397925222735 10.537458873244626 0.307691885730883 -1.9998415769543234 -0.17547367699270427
P 4.598168045016445 3.552139607502455 4.899833755393627 2.2830341919922614 1.471931105914878 2.1471189940184696
P 3.8361023285771774 3.643203709222489 10.18336334258368 -0.310803177666355 -1.3680641946258827 0.4220021038403894
P 0.9179696032606721 4.340947937431038 8.126084093511626 -1.5648613156867113 -1.809458844060271 0.12452084009392105
P 7.949676909249961 4.746244802508107 11.465748322182092 0.992549178603439 0.2251450760759026 -0.31303669498256415
P 6.787581954731167 3.1183128983476194 2.7511113235872497 0.179931969874374 -2.6710468262610836 0.9758035837139839
P 3.00546339640203 0.5160261471561466 6.993734299870747 0.3911226406527135 0.3070599085738389 0.14409002047510022
P 4.701667509041394 8.661549665584063 4.139849692266067 0.669983203974201 0.4115865649340202 0.9760439818595642
Ni 4.173493837769841 5.6812580010488665 10.18635083960943 0.3631680644213165 0.0037851780740450936 -1.7197347999305606
Ni 3.0072224075601386 3.6784215582917805 8.094804736270675 0.8169613446303737 0.6719804369098878 1.2737445607056903
Ni 5.412627837127709 2.8742806712096334 12.366572740213439 -1.4653102581642505 0.6644131660855912 -1.9729982315092345
Ni 0.45008768556671724 1.266525659745094 7.630859429109707 -0.14287208890759912 -0.2898018928243396 -0.24899540033093892
Ni 2.146266400718772 3.910159520276571 12.849627304955675 -0.17931053424029117 -0.8347510645136269 -0.8385449843384203
Ni 8.180878702058216 8.796993524758403 9.049500046828687 0.16103924673492911 -0.17587913996123902 -1.7196887771839735
Ni 6.354159724077929 8.127478133370618 2.8832920759661453 0.008621166010107734 -0.2847915840939418 -2.7240897129196764
Ni 5.005111043530246 1.8449957623664068 9.870018550634803 0.019054445528289762 -0.14023413706411977 -0.7979223257210516
Ni 5.009776656013784 8.728345057208271 6.73647844767357 -0.1706302328574739 1.0208562530782483 -0.47641744536647634
Ni 9.23445113395083 3.1400794856196113 9.774391367028146 -0.3224515605385608 -0.14718742845350136 -0.7478269517265573
Ni 5.8033540696705 9.42848793699606 11.251556261337512 -0.8058307819348509 -0.5844734550361547 -1.1646721939563556
Ni 7.9859388772419795 6.396789876850906 3.5524528431792732 -0.21260117797262093 -0.4289548810091387 -0.21737983030818694
Ni 0.2750745411640456 4.931317233180731 1.9731477207398598 3.3870566334770444 1.1171687490587534 0.46347476916287916
Ni 1.3183177209030845 1.1390208669741961 2.8622695410075556 -2.1529260876185505 2.027706935906024 -2.3436620900869634
Ni 1.3290505109105795 8.328757923537468 8.761115341019062 -0.7001057343911942 0.24438464103180488 0.34915812329546964
Ni 4.604489197413497 6.488954536354355 5.5094929130787875 0.18739331124842568 0.6018422853319053 0.1683766609366068
Ni 4.841127933801359 3.849280802547818 2.2361584554318523 -0.8971985323155709 0.4250087518771971 -1.3689661376148619
Ni 9.095987795729686 5.1734117261017625 5.322422546737809 -1.4069279615706156 -1.050329579947017 -1.7572168560364188
Ni 1.7318358466870338 7.51312232182854 2.082377610419994 0.844410699090578 4.316233775581741 -3.3199127886406954
Ni 7.326121563415744 2.3108233055313194 11.033537645738289 0.23093314351258937 -1.0636856895389486 1.9072055013841411
Ni 2.4876368495899372 2.677911061922635 1.2559358481846752 -0.08147903051209839 -1.8212146990446185 0.20553244405129764
Ni -0.0064998754558974765 2.492819818296449 0.9080956245833124 0.46722652289582756 -0.37353115282319543 0.28119795320541247
Ni 8.288940307322108 7.952414193993327 6.856735550084455 -0.11614161489129031 -0.24794947556492783 0.11668720298211516
Ni 3.0334570713032614 9.030368213703143 10.47959493132429 1.42757931927238 0.807186781742113 0.1708922282696089
P 5.12111171519758 9.070477430698725 8.93963616061349 -0.7901557944017553 1.3516656986632012 0.7581810412673716
P 6.049606225328881 6.888052533232529 13.065842698955919 0.012641085802778229 0.3322245807649246 -0.28740305357485985
P 8.554710902301743 7.745189510500677 1.9509409103545012 -2.506916599305657 -4.545795235557784 1.0325046359504542
P 4.382355248222442 5.5759336805283395 7.512831661695997 -0.19320554705482856 -0.6203812246763574 0.7293021534494923
P 8.594029975247693 0.10945282317985158 5.373884440560776 0.3938135572213153 -1.0982163763259667 0.8846687752796764
P 4.1229528380237666 4.842990416204063 12.713908776659322 -0.38997772841499295 0.14137030755109203 -0.31876845526001873
P 6.762795888412369 5.8158552773128855 5.8809622063548455 0.2684375682159506 1.2118581076135386 -1.38178720063893
P 1.2105100905122872 6.8721744004256475 5.381139656102214 0.25330405500862185 -1.168510593865839 -4.136618565616836
Ni 2.591023435893511 6.762805294889151 13.239834299980139 -1.4342186789657687 -0.634114772212366 1.2255525743814957
Ni 2.4458250602969356 0.8898799822962713 12.550917109583187 0.15779065789064436 0.1369166426551126 0.38439586345184124
Ni 3.6667199011758083 2.4163921944481612 3.6055119567597087 -1.990061357639108 -2.88229483263992 -1.6151793472149731
Ni 6.363820175732353 8.998141624250316 0.4637562369776646 1.8772899447716316 0.2990668630660333 -0.5445989874387203
Ni 1.8726508041035104 1.1710781398449612 5.037809838117498 -2.056401475627239 -0.3267023653951147 1.3205232116221257
Ni 4.461745912256848 7.658367729809021 0.5739860351396538 -1.1088136922258387 1.1418040311089304 0.4553793937492544
Ni 2.1922170397955583 5.805508152853425 8.696712016440346 0.7432074506766748 2.7201926918581156 0.7263692960734135
Ni 2.8105988234000443 9.260779862461767 3.5579735044022347 1.8748144866479453 -2.508740539888273 -0.5063021487410506
Ni 6.739514858378583 8.217516929121487 5.0066960348679 0.4752308812575428 -0.37660336399061595 1.962928505978058
Ni 8.111280180353171 7.300150281022498 12.555707828207918 1.141669305303279 -0.6805915756176665 1.4322170751547074
Ni 1.7041902114267116 4.404404029797875 10.470508274753525 1.1246794556135018 -1.5452553685303259 -0.4234547771265159
Ni 9.149774029965318 4.47868697694002 13.502914642600313 0.08242211115165805 0.3243796307992091 -1.5523822093830941
Ni 5.672792171945671 0.9685002558822867 2.4547424002856344 0.08988088142254842 -0.3282314004451315 1.795498782335753
Ni 5.557506392513719 5.494294868543196 3.6374112008205475 0.4710230138237823 0.6029589154348519 0.8225936032154867
Ni 3.057810439690119 2.6082278819265596 6.194788609914927 1.48456396418754 0.35641351930630233 -0.48166969490435113
Ni 4.014684290270685 0.7475543447087135 0.9900881200954339 -1.7328145159326542 -0.40932425126240474 -0.18343766903478728
Ni 7.021577471143476 0.48789701898926413 6.989714912342085 0.1941694536299946 1.7490546319406006 0.7518923800451824
Ni 0.003351527677187078 9.290955839976267 1.2668708774429684 -1.2078441013581391 3.6874429866854497 -1.937657133005779
Ni 8.7189103609966 6.486828672601775 9.884984255193896 0.015879647344733943 -0.1845494140417273 0.4182477790042797
Ni 7.813301808874271 1.060345095175171 3.5174287675316775 -0.14233909922226454 -1.217873203459367 -2.028214985890694
Ni 5.555991949751925 1.2901265099894452 4.838335150844984 0.12607892860966027 0.1358025836553274 0.9658966090129172
Ni 6.789350372366058 4.455584669965079 13.4052208560448 -0.6284110369593693 1.0260779064885037 -1.1871886298913166
Ni 0.12807294396848987 8.406276698692391 3.7701140126608066 0.9874329404227963 0.14738643183818487 1.0081799431621603
Ni 0.47473265473379594 6.632836005201544 0.4229603471770461 -1.5265529070248163 0.5472675354098188 -0.2550950854707736
P 4.207441812473653 6.208359333967348 2.1324351172595075 -2.747746433106668 -0.5355978123813744 0.7187302914709169
P 8.037335866375154 1.4676925721905691 13.427537722208498 -1.3583809058998477 -0.9844933981784979 0.7394477265239265
P 0.8592910604510715 0.855298951705076 10.536632984583225 0.28770412975504644 -0.13653869049040357 -0.21614724345266648
P 7.11015826299324 2.4318000034159755 9.015797581168867 0.07186876111584396 0.04900702602632205 -3.0174320147971065
P 2.0982369302733126 3.836092922100396 3.1343942110529768 -0.9695385766408786 -0.18341375777538735 -1.2058692370199555
P 0.9750001313381841 3.2731999450289617 5.222759984591964 -1.1606556165977946 -1.2513394535376128 -0.11113850524974409
P 1.9092419987828753 9.48793687025405 0.7528379627167853 2.9444569079909613 0.5556832702773397 -0.23055544845819648
P 5.101884876656546 0.852175060765997 12.979508173761536 -1.071477931889858 0.5725155113433301 0.4215845566869965
