# total energy = -381176.7051407243 ev
CRYSTAL
PRIMVEC
9.21294746967629 0.00000000000000 0.00000000000000
0.00000000000000 9.21294746967629 0.00000000000000
0.00000000000000 0.00000000000000 13.48407988088010
PRIMCOORD
 96 1
Ni 1.6902165943609004 4.659872084864718 7.758348537601983 -0.87498625788459 0.775577125256632 0.46222881257092
Ni 0.4745119489749796 3.1916506778064058 11.507691183809005 -0.46913145322802435 0.2587033716473222 0.9099370629281619
Ni 5.650558774814169 1.19803329044049 4.895031653107573 -0.11210935380344564 0.2172047381829033 0.7432431890106168
Ni 1.7456969652911871 6.972672044611866 8.611702422956231 -0.44135196912191094 -0.7428014734875078 -0.9014318536706282
Ni 6.269797840192497 6.207048453542517 3.7721446917155683 0.823532312979672 -0.39527574358913864 -0.6348084558452809
Ni 1.421198522098467 3.681392550591558 1.5083963080074483 -0.5428105280797296 1.8702962870626176 0.6470566770850147
Ni 7.457521842178821 8.555824973980926 10.915038842846256 0.39622653753818216 1.012948053974765 -0.41144104049509145
Ni 6.343206607308493 7.194998898030944 1.5376971668096209 0.18512405559827472 0.04616544281246888 -0.8583054547947992
Ni 0.7738664153588424 5.584723050691315 12.5807683435679 -0.5304622909270219 -0.08515519381210496 -0.46736664801811767
Ni 6.551271817718589 4.9549535861144935 8.149589258969291 0.26618039675065774 -0.12974480749702172 -0.9960129687823233
Ni 2.6618140567169353 7.220647744372676 11.483825042843396 -0.9469408938460208 -0.2146485474199529 -0.420639676275224
Ni 0.9395824691672695 7.4944196976381035 4.029528653647419 2.069713619355113 0.3746084450477742 1.6908062898216687
Ni 0.5325793156138722 4.666966054578487 5.347570721865227 0.15364089738832895 0.4178921954370739 -0.4396218738046816
Ni 7.405376558308774 0.3337445574845892 6.682319549406347 -0.1637515034597696 0.3706126936248198 -0.577353813272238
Ni 4.522101665254703 0.558872146998453 0.6221512781400462 0.047759012551833874 -1.208265248055958 -0.483872873203257
Ni 8.946564510994431 1.0176529878094565 10.33924251095924 -1.1163493384812515 1.2579477028827497 0.8475525871536694
Ni 5.518279272021566 8.033340285140271 9.619003742752191 0.1299774923331181 0.36455748856967535 -0.5545211316484385
Ni 4.2543641927198195 9.024607390793577 11.694244161385786 1.1608224811929622 -0.05333444975708233 0.17832245929540902
Ni 6.6443686540272155 4.538040064741484 1.7639330739294152 0.9474330029910909 0.033873769929309405 -0.14951479103509735
Ni 3.0713203681550483 4.952954376467886 11.943092327291915 0.3118339329237146 -0.41675371095725644 1.9531475153318942
Ni 4.565430158194779 5.756498460189023 10.063034654327161 0.03540434764122289 0.5012645863171432 0.287089378989183
Ni 5.0257182372462665 6.15154965671687 5.887500127138379 0.5089624691820331 -1.1462906061253744 -0.6207481210974729
Ni 8.800419521943097 1.0211539079279401 12.824587161335396 0.7765916825640754 -0.3857022409680906 0.1452534446555821
Ni 5.498968933683824 2.729842462387682 0.4243631108672363 1.2251805357540577 0.6451833713217018 0.543333233352419
P 0.3330692484196291 8.342913753091034 11.909220925145585 0.6139388114851234 -0.16250091888212015 0.43131309682867014
Ni 8.500482797265843 3.557957477571966 0.2397439310085333 -0.11586573552208433 -0.5673447657756681 -0.23081770098064763
P 5.888381806231376 8.311838480565651 5.815198756333546 -1.9404310962064901 0.5104670787520176 -0.7265284473590972
Ni 5.982786881110594 7.110810982129089 11.95961022118778 -1.4714222845992593 -2.617761227464066 -1.266600236351425
P 8.735440601954501 5.96674713919933 3.6271771173777654 -0.8055145362460128 -1.2844501200486524 0.1686682240350966
P 8.246583172146652 3.3998817212747454 7.5025556517345064 0.46382546763407867 0.4159566689772578 -1.0892020886424982
P 5.784644015352096 1.1551285930937039 10.77040938368832 1.013463560158603 0.6340216982779274 0.932756889036155
Ni 4.496360689436167 4.457095106423068 2.2437102225036405 -1.35631399606849 -1.1722024408951297 -2.2995735844081815
Ni 0.3508852466436391 1.5775053924410847 1.6801026203975544 0.6764914374063641 -0.08502021089613745 -0.179376097370904
Ni 8.552075304275077 8.202038570112785 8.761820035047275 -0.5992693823984067 0.9150412169239467 -2.2849653475767036
Ni 5.61546665710021 1.5535609414201923 2.5759447778634414 0.6319717577274342 0.5577157273263362 -0.5936162978776873
Ni 3.6647816059241203 -0.06217357741996683 2.8376569826154605 -0.6844186626732407 0.8402527110581465 0.04358379812822171
Ni 6.0708810868288605 3.551471562405091 3.9892653084005523 0.9474286321157167 -0.03103964291462396 0.19197270308899195
Ni 8.459107449233974 3.709243291428864 3.029428173758318 0.6381753154349848 0.31077643819347767 0.6029784558188777
Ni 2.235411199233298 0.014741637583120535 12.929250853456537 -0.5094615203056387 -1.0603067457643867 -0.17297919270562467
Ni 3.117099505178063 2.0214404893601814 1.838568084381648 -0.1626454148797844 -0.15268598967422736 0.706463301178106
Ni 8.849036246851618 5.6668288404174385 1.2895270738527582 -0.07200322981117922 -0.8506368825059478 1.6042069073638694
Ni 1.0676700807653725 2.925811072493649 9.365489218846033 -0.052508611421677315 -0.6938116738523664 -1.8068507170134622
Ni 4.086762248521252 0.815495119451918 9.474130140480726 -1.4111880223985502 1.0834939825141274 -0.21285725984748502
Ni 2.0308745477847268 6.2427762646464116 0.9104317814122843 0.18935711984301584 -1.4820918484979637 0.30889387645878413
Ni 3.204143434860785 4.167919104636312 5.788001213486767 -0.46597953786260393 0.3698598746191953 -0.5182989160916106
Ni 7.763032400202607 7.496842702878002 5.265559825500209 0.9800117082580605 0.15910089206163566 -1.0735826369376866
Ni 1.3787452591880118 -0.10898180069886222 9.590956766129297 2.7519103346763703 -0.518639587260481 0.31983700573384916
Ni 2.4651268366919115 0.2803278868346718 7.368861040178221 0.02026749199978445 -0.20877460513767915 -0.028104985766332243
Ni 5.568314790872842 3.1792224113857888 6.472197087779258 0.2931106454825984 0.23739483997753308 0.01621569052791401
Ni 4.137138646436696 7.484561843620268 7.39759530269806 -0.6915028232135317 1.288456155884252 1.881825627858456
Ni 7.9784126910707975 2.5832828906907372 5.396962255673656 -0.09252963189930515 0.5814074145163213 0.6250274651991171
Ni 3.7024533489885414 2.80711145458169 7.866180562430354 -0.8573220078356074 -1.1171720914928631 -0.038201193660069695
Ni 3.943427208512384 2.3540002617730944 12.274450731327326 0.4009385983018708 -0.5185051185651457 -1.3847815073805634
Ni 9.420423261978883 1.161734276580422 7.706488855110023 -1.1651524760268837 -0.5078808060820802 1.6569088657432756
Ni 3.924724924721537 5.077126485301895 7.837028032085832 1.0997796070480284 0.6682952747488168 0.5362611569969861
Ni 4.896865950990705 0.6095903452728338 7.277115743294283 0.4504886413158564 0.22144602995776055 -1.2011206665913765
P 4.414733972989415 5.097081729977252 4.128218670492707 -1.3245796410796864 0.02572645823182666 2.039557664597023
Ni 1.4179371386196689 2.7230985846857605 6.692108306316581 0.19069203660435546 -0.3754905905424114 -1.1087998082687678
P 3.331632204859673 7.872122913684096 0.9365053446420759 1.4027949132388484 1.1299828701042862 -1.0438619699448022
Ni 5.568370068558924 4.406469958920257 12.05368915771912 -0.4557588885758602 -0.14840895956542827 -0.5852594412725598
P 2.221481222340805 1.6196085633396917 10.831289463253983 -0.02467410570791235 0.4707011117079894 0.5574578456792593
P 3.3389841371084894 3.687574438484986 0.50689730266049 0.3471323511146925 1.2358572987416134 -1.3859868405425744
P 7.448096996701955 1.6373803394148367 0.8934467910690301 -0.9133769418476464 0.024734526632202564 0.7767732024472622
Ni 2.3882171494574327 6.596664010939034 6.077800931831474 -1.146839793760625 -0.4573298326074059 0.19455717598671657
Ni 6.777486535058718 0.7616868985255912 8.839340540712953 -0.4439151018633968 -0.7022322938158938 0.28616018230669427
Ni -0.11188940698673976 6.84276948232076 10.39342109238231 1.7010102269378642 0.75169929019777 1.7800955604068052
Ni 8.831890951218728 6.352106314767585 7.047198342281472 1.1936444128189894 -0.7308306742788767 0.5408991699896298
Ni 0.2019257020759969 0.6373489566333377 5.40447357191734 1.1679040706300918 -0.8801081524921875 -0.7248693144891194
Ni 6.617752448179059 7.086728336892993 7.487803879908937 0.14077149762482855 1.4172810226701655 0.4622534951612684
Ni 7.8579349742565565 5.16052208770325 11.439894023125031 -0.9302958290901719 -1.0252497541602537 1.3624417062327825
Ni 2.94175868492811 1.172983285697971 5.154856124879914 -0.6766153645787379 -0.46752168553874324 1.0253456563081695
Ni 8.693715161910783 7.687716552916807 0.41759620079611454 0.10461998740493596 1.0882181274626743 -1.75301618769151
Ni 1.8227172078978289 2.167907931580324 13.206604800780033 -1.1209945505627468 0.9730959549748337 -0.27051219135679216
Ni 1.3600521883448446 8.369345699985587 1.7067879233533125 -0.13061101215205892 0.869246270077019 0.4476725120233
Ni 7.581076683518257 2.730367600405455 9.40228757447037 2.0403724471888345 0.8779368558724815 -0.06958253618482854
Ni 5.572589598596464 3.6246960705674818 9.562572595621305 -2.308499683253218 -1.4238185666783674 1.214964000232372
Ni 8.393244086268078 8.036979399473958 2.719347993685143 -1.595442530907678 -0.2680454749838545 -0.1134607256250175
Ni 2.162011645064983 5.381586767290137 3.3469782118106166 -0.15216354151185407 -0.5988556918997557 0.5890826716733919
Ni 3.7039826983034576 8.266022491751915 4.990767998926582 1.0900394969421292 -0.8956620410663865 0.49954374697129456
Ni 6.717206218387037 -0.4602890003462555 -0.4583579665124813 -0.01654916260793279 2.897341442560397 2.6355694592900805
Ni 8.683645410096304 4.941548747239773 9.242663121668103 -0.565041314453472 -1.132931925430281 -2.116649878895335
Ni 1.3815275693874383 5.090328639327652 10.288785039104209 1.8202003988474909 0.312358695078933 0.22695718958397687
Ni 8.082463722171207 1.0988927604536392 3.37422918975394 -1.0729324049481972 0.2745010008012111 0.46066146808380015
Ni 5.997951392992237 8.585453813720514 3.3877537969485036 0.13613656995597845 -0.2134514417880582 0.7635433340205494
Ni 3.248144472981517 3.5356989959765532 10.240349809264986 0.24225705316584084 -0.6910891327148808 -1.494769186855316
Ni 7.320562161964666 5.0898219272052385 5.66416353465355 0.1533534480548972 -0.8056238081303674 0.2814704901405088
Ni 7.361108344705316 2.5685698132454253 11.7632012321827 -1.6264603194454308 -0.19454612024312304 0.014939137808335563
Ni 1.4036294308722868 2.654222587828434 4.111215254254093 -0.6484682127205607 0.17329749527699187 -0.6388137203499321
P 7.006087405848026 6.5316574521074 9.899633814270773 -0.2736013718050772 -1.0650015801368948 -0.645009821858315
Ni 4.508917937124307 6.021425983681438 0.09306090581267348 -1.0730493901420357 0.20294565716072793 0.8297695521386355
P 1.4183701471606394 0.4878550611002427 3.4860531848121505 -0.061107408834281854 0.33668930140449754 -0.005178715987462049
Ni 3.8609344749836914 2.758559220306929 3.995871913182038 0.663345129832393 0.7296685356499756 -0.7847845027875129
P 0.7372403418561265 8.161437109686055 6.823740138887264 -0.07307075184374512 0.30957367613462816 -0.18891951808496496
P 3.4167506284772293 7.879530123618993 9.495192781467246 -0.25089827378060664 -0.11146657801312417 0.7292404469736214
P 6.676070406994853 5.696770920378154 13.487315946238203 1.5297241056639461 -0.34528089972825055 -0.8955550831748771
Ni 4.0613990035576055 6.895661014952904 2.724741253257144 0.4028273306841514 -0.6996349654023628 0.29428512540667384
