# total energy = -340888.99544633453 ev
CRYSTAL
PRIMVEC
9.09233885000277 0.00000000000000 0.00000000000000

0.00000000000000 9.09233885000277 0.00000000000000

0.00000000000000 0.00000000000000 13.30755697467774

PRIMCOORD
 96 1
Ni 6.671949023154631 1.9999053519941796 11.422820542875852 -0.38246419364676715 -0.32521009712030446 0.06585417949064788
Ni 4.700348121437817 0.3848123217969314 5.71688613240148 -0.21227850452587954 -0.6481455392738192 0.4418055117195617
Ni 3.0612540448553585 1.872157993691262 4.521042656710936 -0.34959083995751405 -0.36649327213980754 1.7463128075294052
Ni 3.4126638420830777 4.582702351396432 4.7627079262008465 0.4002562275228655 0.34585528417448175 -0.01595112401261769
Ni 3.8460592570913956 3.1775086870803477 2.7089259214220447 -1.6100947336032143 -1.9921583493774528 -0.3183938455294194
Ni 5.369544247494382 4.592594815868574 2.2683266464860825 1.216013524542809 1.9634494114785346 0.575324698657351
Ni 4.561453555926404 5.109839778084685 10.793666167084783 2.662553701188408 -0.8938576408677962 -0.18992404809007937
Ni 5.567593568387915 8.0725055947494 11.991851829216527 0.011235206594187102 0.08517010621044041 1.5387401931196274
Ni 1.9393412841183266 6.943582640898379 0.2968675852525087 -0.27865667484079754 -2.8140770380131017 -1.6523161041662704
Ni 2.804786448011914 1.3615322540263617 0.37554722869296897 1.6885329204064599 1.1823978933708927 -0.21940971625402214
Ni 8.151918080686603 8.785308577063672 7.091064920282897 -1.0203232633929138 0.41806085980445423 -1.1628860485902102
Ni 8.998387533777471 2.281422341871399 1.0861098587591385 -0.44008621503560985 0.4386355986320123 0.6355160234352668
Ni 7.1017620567272655 0.752963842216335 4.49643696980422 0.00605880459957021 -0.022693842053089948 0.05199747611321367
Ni 0.9119161068321076 7.593248423493402 2.44108471813724 -1.096473425492931 -0.4250771432212873 1.1807374749493342
Ni 8.004967703114234 3.985299331472241 3.5829933500756788 -0.8298063189138417 0.1329478878153517 0.1988054097401092
Ni 7.9501681779546844 4.015122202307371 12.525059301200367 0.19071800474628442 -0.4051431233015216 0.6609480903551261
Ni 8.352767841890264 7.382806244993684 9.033235740195094 -0.5920471536183546 -0.22067958410538122 1.2554524472647217
Ni 6.8725896605689005 0.7612269595989466 0.5032809484878826 0.28731846428085356 -0.5874129972804528 -1.6461940504289327
Ni 1.8433625571257575 6.539855526967814 9.25376859614994 1.00565563407841 0.22702095294237673 -0.29222875709827734
Ni 0.16809370191383327 4.8633464767614045 1.4057573893135782 -0.627932554661054 -0.42871525419450685 -0.44839422068067286
Ni 6.4445405406981 1.7002400541331435 6.584273419834819 0.510205854670831 1.1751748932598922 1.506968042914353
Ni 3.6851976013550813 4.598477558987576 0.6277296063215974 -0.5824361128911517 -0.3901960150733861 -1.676718958490667
Ni 5.981404085902675 5.798648078650815 4.7036359111006165 1.694024282538334 -2.1610610580208585 0.14443120586460287
Ni 5.377181811976548 3.1009875648399667 9.462497778044371 0.19850896154561298 -0.16546334394455375 -0.8596172316276872
P 0.35780352977993385 5.66579991835445 12.63235798983615 0.3590838670496138 -1.1547981293757532 -1.416255923839761
P 4.024432757104679 6.3745749946382455 12.416309475312975 -1.08385907916303 0.5534932046045565 0.09246535432027302
P 2.492073644160509 8.432425820971535 1.478948897133281 2.504120524617758 3.587679813152182 0.8903941077992278
P 6.576379451402179 7.876038340784316 5.66493341847927 -0.5523539487937906 0.6713970536025922 0.5897092495137973
P 4.810874590301181 1.0472282909078385 12.54295756987078 0.06106909939717869 0.0899634138340257 0.8842532850088127
P 4.080141516131155 6.1476393137925145 7.849875136263558 0.5411724782556744 0.8606970949554273 0.1620211510322242
P 5.061213950881553 1.2611801121338848 3.773091420802956 0.07420229434502705 0.4853296602544415 -1.6143324258336458
P 0.4507363233183054 5.7221542334264415 3.4530047302907922 -0.7087718947066245 -0.07162450631552181 1.1541296425538188
Ni 0.3535392229440571 0.045110729073601065 4.9296250794908785 1.378580520776174 0.9454529964465846 -0.49546212070275314
Ni 2.017026225708371 6.895320507242017 4.744529613499421 -0.8768834749073027 -0.1996965540958109 -0.3342938045891275
Ni 6.1187347691629785 5.883443229080211 8.801231989775124 0.7267912141021805 0.46575302367409466 2.493393368008241
Ni 8.770206202534053 2.114914343821482 10.124149990707062 0.46166496964765 1.024060618948159 -0.6786223677064378
Ni 2.295160865600631 5.485589765929978 6.809090585770615 0.6867354837318753 0.052384941359619464 0.5585976157106572
Ni 0.7159589330663675 0.12592889056906814 8.915597244024644 -0.039538681524570615 0.5090727695076522 0.42410372356442444
Ni 1.8844144662174067 1.3320185227059866 11.185719627397903 -0.9692403286741695 0.28716574075307316 0.4555866246640541
Ni 4.181802954792003 6.900766818104897 1.3533655154336444 0.8398593322744697 0.033339494692394195 -0.1196491138239165
Ni 5.651715885755786 8.131924027952929 7.789977536812161 0.47531187100712335 -0.06927940312211293 -0.34940983429495953
Ni 5.425253006520856 3.3440530544849416 4.747138205463628 -0.07000959641991815 -1.5279431025041235 -0.6336393752378442
Ni 1.1663833891683177 7.631399876549561 7.002316421000113 -1.432961923740532 -0.12684306046919447 -0.3678441297407471
Ni 5.575303871579437 4.584839050983705 7.117493621092796 -1.3343554895195278 -1.3099156113096084 -1.6428714138136027
Ni 0.8526595172568924 7.260386997150946 11.317544899593978 0.005709391679951457 0.8962544232347468 -0.16992960724602346
Ni 4.294211537759901 0.9293279353837152 10.317601315935557 1.0950474916796817 -1.6782271676050775 0.17420380914134512
Ni 8.440636202789864 7.085859556394753 4.759740186859204 0.07241177810350755 0.12154993039105516 -0.23453037394554443
Ni 7.510608157328618 6.315138376757378 6.862015270696567 -0.2607448275573832 -0.5611180681396659 -0.037603412175070725
Ni 2.3084993264284157 5.307425389706088 2.486104523824148 1.1930967678456357 0.9947927232219771 -0.47853860547453714
Ni 2.4216352964898538 5.1862608845997045 11.356549214017312 -1.9624888473374784 -0.09792689165547652 0.7307676822514254
Ni 1.2473597573566297 3.692471472290479 3.7757263805493038 0.732422701356345 -2.065430932819359 0.40631323235022276
Ni 1.7489113430296215 1.2545245202279962 2.5967964732512923 0.060834614788869416 -0.2097649940754065 -0.3789739211053215
Ni 0.9608328888726555 3.6382447644670908 7.856382523049138 0.7061000043014162 -0.6428261839434348 1.0431747140697905
Ni 3.813754177799562 2.6753570070551853 7.143695922669832 0.8566802604865503 0.39992404099442735 -1.2477753903354383
Ni 4.322934235616051 7.012975369622072 5.601908963759519 -1.0437964068141894 0.4972179270515953 1.4713322959886146
Ni 0.8269682051130686 0.30313129736175287 0.09741440726844328 -0.8729993093615481 -1.964312016589146 -0.10438987367200087
P 0.28510209901450334 5.827016175298865 8.003244704936414 -0.4031476901380477 -1.523531603699989 -0.9154032282490557
P 8.449173908800287 1.7042497754862813 7.790123923464736 0.09998146019166006 0.5378161601889319 1.3040025882592832
P 1.5689739607652273 3.3692933866307704 10.204314413052211 1.2436132885379485 0.03867684774490758 -0.04972770624243049
P 4.189649643063563 6.1036596716493685 3.4081049434743176 -0.05439760091427406 1.086210353004026 1.0309354916911213
P 6.6204500169320175 4.160945129884751 10.902202323013448 -0.6434190803324273 0.8389779581107809 -0.8972553536954354
P 6.469244424862444 7.851734519521418 10.089057200379237 0.1334759924046798 -0.9269071151235971 -0.8885213162565473
P 2.497829094538142 8.973465433485066 5.797556998010505 0.49582824579292023 -1.1162099846899098 -1.5690604413697236
P 7.077985591107186 4.019041000273816 1.3263112617233006 2.1107941914455064 0.41987682996727044 -0.9725647650617122
Ni 5.565956947427451 3.0498522521641225 -0.025837698796398627 0.039176155978829307 -0.15689000045324594 1.27765495150369
Ni 1.483706008725031 1.3771801688761354 6.905237521028565 0.2090180886070529 0.3028376429623752 -0.33225466267191167
Ni 6.967131798051728 0.7235574004922571 9.387296863378765 -0.5210667086447348 0.18793350002261183 -1.693094314524897
Ni 2.6666556389487166 1.8721489013525927 8.967696344599428 -0.5071871224491652 0.037156554445639235 0.20995731259187064
Ni 6.826955212787951 2.2338875953085764 2.416319915303812 -0.9870855843857065 -1.2174296881640452 0.7518363299962664
Ni 4.353275369755329 7.224881414647537 9.85983479635819 -1.0252764936331311 1.0103095879106538 0.14802766496660957
Ni 8.394910831622223 7.204114513126977 13.626272443722993 0.09487524931334627 1.121828616428268 0.06846050676524339
Ni 7.783069177891266 4.0771955984023185 8.031855567026932 -0.8871159512685883 -0.5420780207890793 -0.11379008393997822
Ni 2.9887608286454537 8.522894590730541 12.164437146432967 1.133099561356397 -0.4590581281524223 -0.3118118214365275
Ni -0.03765501136481869 4.890087044787659 10.14057075434372 0.15608524516376343 -0.23602778442667738 -0.030506910339605526
Ni 8.695385347624821 2.4484395108867933 5.783011983841311 0.15718336332394867 0.6401946598578587 -1.2029417789605152
Ni 3.914651860012193 2.857540196970884 11.579837048588942 -1.1606674436723365 0.7702785958618541 0.08298081186860548
Ni 1.2145273224219795 3.422128966637764 12.605024601328658 0.4531721016852905 -0.1449999338838793 -0.45640680657250426
Ni 3.1557598129835096 8.360341760001747 7.876077437840593 1.32362241937274 0.5706928563122946 0.008959266075816827
Ni 5.9388974026239465 7.7975805504073845 3.5999069184682115 -1.178083068045623 1.6797652015161588 -0.89324571831541
Ni 3.450251570141744 8.455829500706177 3.5686074518331963 -0.22609766979715898 0.37253665012041 -0.10052833383406558
Ni 3.294954425671009 4.372578404750139 8.961973626641004 -0.41635596129820557 -0.09969426796854443 -0.38124394808642087
Ni 7.519100401645694 6.278287128130922 11.36245741568459 -0.14638987225287045 0.30991100486938883 -0.23736321540864927
Ni 8.074042199984504 8.854337612240593 2.436720395576001 -0.1915682685617217 0.7448007633057238 0.03590211321324785
Ni 4.880349150072895 0.11304959284408006 1.7119109800489887 -0.09314721087864603 0.9086060028215642 -0.26889213925486594
Ni 5.894053988307222 5.465104726908166 12.951326322691996 0.37346713235447937 0.3965844350982331 0.9562531723858821
Ni 8.051520477100778 -0.234055891257618 11.363961288500484 0.37222220420378477 -0.517843830832063 0.3084552462594688
Ni 0.1968018520281131 4.941531496978258 5.715648665108596 -0.1916996519332634 -0.0005389032226055234 -0.18108742363505587
Ni 7.466182990590677 6.349443770556447 2.6546310210586372 0.7695972535241132 -1.4425307983758897 -0.8477338499265399
P 8.963318383530186 1.7751700171064064 3.4435296041635697 -1.6745337779138905 -0.20029870645618408 0.7736847933299257
P 2.02319992366479 3.2920994313288654 1.361962321645417 0.08698350527009535 -0.2573800248502084 0.5268408921243507
P 5.024026285724334 1.1053737966976718 8.226398882129605 -0.5553929927304305 0.6698667330009948 -0.3913463266277454
P 8.694203343597819 1.6149266403996008 12.238507883401986 -0.17223691522296145 0.6956631252388084 1.0215229401279697
P 6.522007266160082 7.61331521493643 1.1998359216002106 -1.4070210355050543 1.19978420716814 -0.0063434257195245595
P 2.047594668314379 3.412927519904486 5.949063546490032 -0.8944515656980531 -0.6457713826146879 -0.17412127672986785
P 7.152870092387102 4.066839424658046 5.696152872533997 0.4747503420766986 0.45480629485460383 0.8321779044698119
P 2.474289029723462 8.660816276004345 9.955702596818995 0.13761315450150494 -0.426076273909763 0.8304087283845312
