# total energy = -381171.7997787052 ev
CRYSTAL
PRIMVEC
9.21286593392672 0.00000000000000 0.00000000000000
0.00000000000000 9.21286593392672 0.00000000000000
0.00000000000000 0.00000000000000 13.48396054505783
PRIMCOORD
 96 1
Ni 6.394042003912964 7.089622573938975 2.2720474473449466 -0.0659092010982994 -0.08501866823424067 1.517873376972947
Ni 2.529097454635045 6.91661416975203 6.843474150581695 0.958194355272653 0.3354433448125384 -0.618161334206903
Ni 3.2088042571327478 2.2642459927059613 9.376112109489016 0.5082551587023634 -0.017224334298086463 0.568864544854304
Ni 2.2387539934309584 3.5990059692012197 12.452949436366978 -0.7156184853148128 -0.17571124692480708 0.9890455363255548
Ni 4.481828820855403 1.623352993224372 4.8748294015107 -1.7009696035079158 0.18901542023288095 0.212649257601737
Ni 8.318462233967047 2.805612404486845 5.099836140756568 1.2238085951071958 1.485644084625596 -0.4881784425571463
Ni 1.3137177913329505 7.411400332767315 11.327119748544808 0.7835853402730892 -0.831252307331749 -0.19297723309410636
Ni 5.96379196483024 5.458162258935781 9.112742997644263 0.44862664840645317 0.05390729154141684 -0.6656380396316278
Ni 7.249419728772701 4.211983985739817 10.496008711827592 1.8188539121219256 -1.232715153568206 0.3496540890952817
Ni 2.549319694753813 3.0411853793555896 1.7878514734032496 -0.5324734078197797 -2.0744069110657244 -2.892994735555927
Ni 4.494496511134813 5.430081444410949 7.333575571410012 0.8065380924145207 1.926362019707934 0.43918375782599844
Ni 0.6785072873890633 4.484703234940622 10.65331286521433 0.7651847262787145 -0.5499301698436464 0.7991754814018623
Ni 1.4542600569419728 8.570802624332902 2.8261036602828185 0.05780174149981658 -0.8693092621044706 0.16246055256248795
Ni 8.456148511222166 5.408081121220235 5.442301389419393 1.106816716400468 0.4561208999009693 -1.1054648303582637
Ni 9.055832362616625 6.4964890700271765 0.35674887557860463 -0.2983250998040024 0.18421028553475371 0.7757241923574575
Ni 6.620853543541186 4.843940505533387 1.44188072935765 0.40822613310221956 -1.551672070689947 1.6493925027615723
Ni 9.08558070582551 2.1266334183761044 12.873582164989573 1.1789703557465825 -0.7668034928290599 0.42180284334538964
Ni 7.200941629681605 1.9189570007190355 0.8745524621532189 -1.0215229401279697 0.21932127030527387 0.8436717640420245
Ni 0.5668657813484121 9.066261326541202 0.570175042692677 0.2309390570498603 -0.6019106766759957 -1.7658850732343783
Ni 3.8217085707460834 1.9734234624876714 11.690135215343815 0.9206765608328531 -0.8577786357570518 0.1573214315637097
Ni 3.590401152676878 3.808506534258523 3.3967844893001065 0.6409161114049156 2.0384842290271856 2.0798360525010957
Ni 5.426866154296394 9.020454958490854 3.8703147286698227 0.7555685433451891 -0.5747320593786748 -0.013095656841693577
Ni 2.8738060360855324 6.940862432163236 4.377365058448707 -0.06054742256575379 -0.5282480568845225 -0.07740768865620218
Ni 0.22642644184372768 4.109785666998363 6.98118530257409 0.009224346811745405 -0.5789442976878093 0.5865305946754995
P 9.033343757546051 7.484495208895927 9.768279847088852 0.2216620026233086 1.1998060615450112 0.12593031884693795
Ni 3.5900694895131995 5.005902683796684 0.43127727360356355 0.32424079122849964 0.08676393306012153 1.17205100291893
P 8.646596870099236 2.278424592953243 10.758757797813576 0.7364037974912802 0.9645102701883519 -0.5268120957689444
Ni 0.5778419894930591 4.074021322514966 1.2124564210288895 -0.720349829352211 0.7485733429742786 -1.0178107813837054
P 0.773692772791836 7.262437507947107 4.644739002994885 -0.9476132373226971 -0.17448071695181563 0.5552037595377599
P 2.530700493259494 1.4761498257447943 3.4536868327486525 0.08533491392307883 0.7290609839729638 -0.15220493627275075
P 5.095037159035446 5.613224000821421 3.4780530198402775 -0.42140252258317745 0.8577071590891681 -0.31294799192349976
Ni 6.970666052566068 8.243515571841225 11.68832857238833 0.8683857218489367 0.18740333855075467 0.8703505588847914
Ni 6.933105199279409 7.707216236172107 9.111368438088126 0.2590602407661087 0.1911031559998451 2.4678147482081885
Ni 0.1979817191254152 6.7410261631809165 7.113705926054908 -0.5632793374570428 1.8937483474379708 -1.955302356891368
Ni 0.14528228498993634 0.8282006924559319 4.177789513564502 1.072619758803785 0.47174060871609724 1.3488405705095803
Ni 1.8541352779510851 5.613795198492202 2.5968755859925685 0.3120671319804432 -0.15791175684954095 0.10753921793425995
Ni 6.174195390722003 3.074406972917447 8.415123620448192 -0.17414827331306137 -0.6361546854605302 0.3678626416835084
Ni 2.8633586464296408 9.056606243331878 9.593649057259576 -0.6442037810172518 -0.0989080246218232 -0.26692910199122416
Ni 4.316439456567421 2.1648115336618328 7.3581831355818705 0.3542010850360158 -0.08138261414355015 -1.2545160514933815
Ni 6.3247796798979765 5.157693858373823 5.244654097317354 -0.6894192012116256 0.13417533246454957 0.8711625132631255
Ni 1.681209789555061 5.00686082182509 5.212117019673867 0.5795348800839567 0.3366193673985106 0.5433633152594062
Ni 0.09812623212072749 1.6183504071722121 1.905404875336481 1.139554058732489 1.59387441508961 0.5519333163166042
Ni 5.779295117168077 6.332914640273772 11.218061530034591 -0.177092700653366 -0.49418145421811666 0.9051972342503314
Ni 6.906139141499166 6.610046852124642 7.084783055608957 -0.7715124682689551 0.634836737980055 -1.1328064555960105
Ni 8.291496176186804 8.837911238348136 2.610912308108721 -1.627110294324604 -2.4183747484095055 -1.4979812660347105
Ni 2.096498134809594 1.437621621564071 7.385327001669308 0.4330619611989767 -0.6992341304195183 1.1353734449922381
Ni 3.7941436766980865 6.477694824085361 9.421324247704437 -0.6574997267952096 0.5574475612666141 0.4337217062701627
Ni 7.464604631940839 7.588342630590119 4.737050074312438 0.255993686025643 0.8196208937404077 0.1319515853403534
Ni 6.646723270308156 2.3743489501817674 12.127662497009599 0.06737832944465816 -0.3639082850214507 -1.1414237649513763
Ni 0.9716809409232117 3.5222259468095056 3.6020646405995937 -0.3852219588975624 -0.38125037584432403 -0.6268143818962107
Ni 8.619253084827026 5.601975091853306 8.893696061192397 -3.5215641524700323 -1.388529918679402 0.9902097318369849
Ni 3.432142546407997 5.655262306817748 11.68186943227568 -0.7471638642212616 0.991895347069524 -0.5923595426524508
Ni 8.12918390902851 4.271784696724292 12.888292347585308 0.24075321492680476 0.3540108234020806 0.35488782669039526
Ni 5.796007255471242 0.5207535461582267 8.177913519352064 -0.5484584703941263 0.1908563300963616 0.29586455407865175
Ni 6.163241293454934 2.730426207853922 5.928452333453666 0.5279685779708908 -0.304138878272302 1.3485202110556838
Ni 5.86468916894979 3.53446984526866 3.7625638157964407 1.4428195332609022 0.5255298866224111 -0.841615395733628
P 3.082984150844815 4.399364460352856 9.709408714249243 -1.1930787701235066 0.8038461474046544 0.06664967880874972
Ni 4.284304981153178 7.393002240048782 0.06830694984627826 0.5590519296392565 0.06355844147793571 -0.4325323139477519
P 1.459815414933598 5.70084756609231 12.710169881671746 0.05260914155528359 -0.5715773157997769 0.5734534497765672
Ni 1.7362935133227662 2.392986577407402 5.529044204733401 0.0719158123036955 0.8547431913648376 -1.4998010928522685
P 2.197848869910535 1.3616891828128703 13.410027985222651 -1.7669091436235183 2.1234404194546075 -3.263478359802051
P 7.212227390112352 4.596224973727723 7.467417319826151 1.1015711517308124 -0.9971134009353537 -1.2595309882094694
P 7.580216883079982 9.021302542131368 0.2859949886136272 -0.3144739416497229 -0.5982008319245762 -0.23960933113034866
Ni 3.810100360017315 9.146975242568777 6.68800335746085 1.144320626883197 -0.9595513835211796 0.99351077118576
Ni 2.8427771045502204 3.9384724300924456 7.441918871545187 -2.4724764153499157 -0.19365806121121484 0.9165463407145635
Ni 0.5509597687903015 0.8320221891307678 8.915244032679315 -1.141069724046067 -2.567298442827824 0.5894781073395977
Ni 7.808659099929625 8.80074653828476 7.338915348345246 -0.5833869068401953 -0.2072550831693592 0.2963582058856186
Ni 7.276183103508473 1.5565044400117158 3.344035305690076 -1.4280423749517277 0.07074955990973622 0.27327149926948424
Ni 4.012553082846438 7.5976107734418195 2.497364660163481 -0.059917502291238746 -0.733540359900556 -0.056030765642322865
Ni 4.778980589780569 2.5114087525721596 0.3639680771080199 -0.3838237929984551 1.1701249895408108 -0.4443820141974863
Ni 3.019581209388159 8.741489386374093 12.034677043925896 0.5247238457813479 0.9576400254310797 0.661245309880571
Ni -0.11601485336838653 9.260404044547032 11.191673118931089 -0.10977273525046902 -0.45785228076977924 0.6390052675354478
Ni 5.382478567557339 0.4305255037658909 12.85249299421241 -0.29166465706469125 -0.32681960769926943 -2.7565758584728397
Ni 5.509229173276705 9.1434375021562 1.3830501331269367 1.2345077266922546 -0.3132989475050153 2.5258748855757145
Ni 2.3853306860458092 9.174696755332956 4.962003378937491 0.13565654499576638 0.2327827951268185 -0.01339364769808661
Ni 4.185368016854569 4.079650383431853 5.687251218954598 -0.019655312337082276 -1.0878386326360685 -2.16008275326799
Ni 6.640209774288125 6.631052185824318 13.534795060965902 0.18084882526168852 0.5581772403437871 -1.419545136113994
Ni 8.549391924544285 6.047619829450134 3.0692726428863812 0.5385052158361565 -0.22285987958615164 -0.37284955337513853
Ni 4.91436365062125 7.008945509374032 5.4414924998146414 0.07375389395369877 0.9074778027543918 0.15124694323485566
Ni 5.024724568335474 4.037999017793152 11.027223466940196 -1.428144447747231 -0.5371862399144167 -0.615651680411172
Ni 1.4653062828656187 5.733203150282339 8.567681305448057 3.770272360577855 -1.0056304372674294 1.4914560633216831
Ni 1.5908039388555304 1.6467997363233533 11.139989863877659 -0.004481175699805186 -0.20596078983796787 -0.3065829689374204
Ni 8.139281209789408 1.989223527090718 7.37979836098809 0.3939058598248055 0.13210790841255957 0.5242813589272907
Ni 2.098405198000749 7.290463045277991 0.9494889901268162 0.3429229410190352 -0.8527618992687508 -1.187205342061865
Ni 4.979166947657885 8.464440090314143 10.414619492747304 -0.2638892867236359 0.5649191870533109 0.17267117454690262
Ni 7.145867118779557 0.8224288321213495 10.135339761911613 0.2738561681283606 0.06858880481299155 -0.8291319185546365
Ni 0.5203343607707989 9.157284439239803 6.439494597922054 1.333650493032703 -0.14762400177028767 -0.7364976427566671
Ni 4.930283482477847 1.981346526953339 2.553336504180593 -0.9286410670955685 -1.6961883800691886 -0.5043290841750798
P 8.206664109210214 3.4644152148071057 2.5967005415450712 -0.9743768785697864 0.5003911825732543 0.24747382148008995
Ni 3.1002674868187596 0.4439412787367108 1.3970196013237874 1.325388510134227 -1.0160822287283726 1.7197851935525221
P 5.4052896229259355 2.007575555480962 10.124822354476722 -1.0812036438180541 -0.6598988231550055 0.22908452033962481
Ni 8.379773854919392 6.095121364781509 11.451644525921262 -0.30051850791089535 1.769116178577166 -0.16474677749350336
P 7.574348287655993 0.7806411160709134 5.5998883777818245 -0.455222556456416 -0.04003079066964074 -0.8839977173545809
P 4.996044917542889 7.644292363729654 8.022807555711266 -0.7687415903920374 0.4103534638578675 -0.9516298146812578
P 6.0091837539259885 4.30131193115739 12.92894688115984 -1.2453294998981068 0.8082656166285885 0.5952479199438393
Ni 0.955816386260561 2.9619823732958865 8.88458177319718 -0.3944617323282755 1.538264024814157 0.4393056281158434
