# total energy = -381159.53719659755 ev
CRYSTAL
PRIMVEC
9.39333283324634 0.00000000000000 0.00000000000000
0.00000000000000 9.39333283324634 0.00000000000000
0.00000000000000 0.00000000000000 13.74809209409859
PRIMCOORD
 96 1
Ni 4.671097623127306 5.163646408648289 1.1000992021018265 0.7339854178577745 -1.5644514818428026 1.3893783827226265
Ni 6.573764097518997 6.227131339808735 -0.03543540770652522 1.02948976038353 -0.5909968579769692 -0.10602560950321094
Ni 1.9311752386768424 3.7983067360369924 4.315580651492531 0.6199515933381065 -1.0958941559506934 0.5468528164699034
Ni 9.106948625906234 7.492159614133003 10.340599412184995 -1.0804680512036102 0.09122171172115903 -0.6683749789468166
Ni 8.594439008719371 6.582171130150038 1.0851440773511216 0.7327831700195573 -0.3901165679857024 0.47848744052162756
Ni 5.825181246719476 4.575248057800887 3.2754137290508525 0.6984746265456745 0.10868952948861928 0.05475806957748634
Ni 1.7757249783292424 8.694271347046419 10.532220578177679 1.8712429672466029 -2.135329971803342 0.6047442894700488
Ni 3.406783242076734 0.004280541642419559 6.805002582868865 1.170007747236656 -0.26809406883360276 -1.2383427841676287
Ni 3.509255106849951 0.5196485499238368 9.114489593276291 -0.9709665673366568 1.7944382022817225 -1.0945188728697213
Ni 4.726631005154921 5.823462266863072 7.337975575012962 1.264058700876494 3.670108094951428 -0.9480138151952253
Ni 7.043815851585965 9.318524048232016 6.438162888179948 -2.8389406340240013 -1.5837386122071886 -0.8591706310085719
Ni 2.37368574171117 1.51179112037729 10.868402314094313 -0.06400581342799945 2.166014545371392 0.35208275314143234
Ni 8.438566048407083 5.0268325200772095 10.649711442362932 0.6984388882117326 -0.13741363689618916 -0.050920440998951016
Ni 3.2374026695594873 8.715434525278525 3.8712835366074505 -0.22937222678337268 0.3947388972490621 0.1047588269756454
Ni 4.55658350602672 0.32846417389466454 0.32010880459264085 0.38693019983792076 -0.022413591808509787 0.2307680786896348
Ni 0.5275793405946615 7.914756252164194 2.5060847639843837 0.08220690981705843 0.6501859667426158 1.7045100125610064
Ni 0.34301444601252257 2.3288513654564658 0.5306321736729726 0.8117085808718666 0.00995068345480867 -0.015811770221275993
Ni 2.1269698623208915 1.4465262458292734 5.050402270108281 -0.44681941999438535 -1.4500188792228188 -0.7992724119910428
Ni 2.3849389541044514 6.303085826797114 1.8331708428637632 0.5012129071436013 0.4382982698972516 0.9207742627529819
Ni 2.3063167606722557 0.5403110635311009 12.946728803812023 -0.21344964201584526 -1.0209220733191773 0.330905604843185
Ni 6.532734020946497 0.738444626979764 2.0553945469666925 -1.4247835016947978 -0.982716251673417 -1.0494003832645282
Ni 2.934176501556534 6.4338973758696065 11.11325643497345 -0.6276787867790351 2.1001235991055376 -1.6868115668399788
Ni 5.391519262945976 6.667208969712962 11.812662371881027 0.048170131947323495 2.2514931839611867 -0.24288363100624624
Ni 8.148744165951053 7.861496056613351 7.929706680248624 1.0168448179260101 -0.5170133645109677 0.26539132519045905
P 5.1395055439982595 5.525975425047345 10.128989234528783 -0.9861522739381596 -1.4329850636689838 -1.5347081891420988
Ni 6.93423323407342 5.74565729336261 8.700287776543828 -0.26195273182255535 -0.3551246252915497 0.32910403285807194
P 3.0733575099298736 6.9863850163835215 7.3688805784312725 -1.668201150827643 2.616413969407552 -0.14475285087007975
Ni 0.30360847663768326 0.7198420712004187 11.68917762219648 -0.44984663685648335 -1.2912828266997698 0.837882411053757
P 0.4938140674152861 0.13477741407453217 4.13766717568809 1.4615865294557604 -0.8792252356666018 -0.9122798521287256
P 8.709263105794061 5.71734578906098 6.754588567080264 -0.06623084610377625 1.584413526787026 -0.4197642156488061
P 2.8175019179697594 2.6451060857043958 2.5566086817638047 2.5665569366761085 1.0637671935091615 -0.209951913275232
Ni 8.079280471753789 2.425461790719326 2.2790760962811722 -0.2757819243961638 -0.18017339646121874 0.4118907264380003
Ni 2.531033455233597 4.173297964711628 0.6612652494270406 -0.7682859909118575 -0.5273641116176725 0.4109725854991052
Ni 4.077053879418165 -0.0863820254506353 11.267220670111854 0.5447640522616747 -0.9958111371841624 1.8462937535004331
Ni 0.315343566990711 0.38787982026463697 9.383361526149068 -2.2077324939354686 0.8388576304828328 0.9463554536561959
Ni 7.526088331298726 1.9550436966829607 13.773250952767455 -1.1960993021173851 0.9157544409408873 0.583482294767479
Ni 2.319467426240365 5.064161623625543 6.688350543280207 -0.49511116512123765 -0.5200922605466075 -2.1697799259510955
Ni 4.506770663521232 6.601446248539866 3.6438906816029992 0.3631025012907037 0.6532795180662749 -0.46267978406540955
Ni 5.941076183704713 0.47918770930378407 9.490087631233568 0.5145163091207269 -0.365112589742197 0.24042797037690208
Ni 5.544292423517211 3.6814067124690504 13.388564865569359 2.246726872920795 -0.30583812035159585 -1.221755569232909
Ni 8.378072986793779 7.681585558309068 12.773434029621756 -0.46685242738586047 0.8949094791710781 -0.4801242047941022
Ni 3.671337059976898 2.415373351562076 13.471164196002652 0.5587513676797022 -0.6898655447204248 -0.4277235797051988
Ni 3.9070439536201587 4.76753896840429 12.025922958066035 0.6386725667863775 -2.688932448292253 0.9867752522341394
Ni 3.532419064914921 4.6700925365446 3.125009566948387 -0.11411070050419057 -0.8295312108755843 -1.3358762970394285
Ni 6.488406884649419 4.7551021961098785 5.43642127119503 1.296863920331973 0.6170699009149373 0.9883577662299108
Ni 9.278602384900255 2.919720162764163 11.881087163498409 -2.401371271872974 1.2382869912290289 -0.12852661881920444
Ni 1.1186519732186642 6.687977627978025 8.329721746832861 -0.27343296454801297 0.7666404848886346 0.414127586188319
Ni 1.3774852515967 8.990039209005744 7.68515596401081 0.39210248806747955 -0.5867941327495314 -1.2801558635486727
Ni 3.1980915728433894 2.5534459466946746 6.730405432433765 0.6092162091984733 0.7353563300633722 0.06873021548686227
Ni 5.097357660852469 7.5316022175047825 5.69825384065585 0.25788781772456226 0.952233766813844 0.2855749992271856
Ni 3.823509047265019 3.2905407517871974 9.897801473174678 1.2541522403960594 -0.11488203145257635 0.00016403638169004006
Ni 3.1042146073521866 5.114575639414144 8.796249122527575 -0.4658160157015461 0.5499175714381562 2.023861594018005
Ni 7.445427784703472 1.0705675039021276 11.792398135573825 -0.9345929138036292 -0.8895644128090808 -2.1787469053363964
Ni 0.5393595189439228 4.504178103737805 8.042784556802522 0.2589537970952314 -0.7815919639921443 1.9334909174432315
Ni 0.5875332249196715 5.538477950669597 4.660465310015489 -0.9525443560757272 0.7956528129605845 1.2249661057504064
Ni 6.830840822710435 7.143685763243206 2.5472050165493516 -0.905440203499073 0.10725613947620237 0.08071515576288034
P 8.43344668216807 5.917527099005248 3.2696678275308435 0.1134920930835852 -0.2576265936433757 -0.6106848233241998
Ni 0.951497620515447 6.861913966781367 12.205294279082025 0.6169179487181053 -0.8432141076793156 -4.317409541057396
P 5.236632602551295 8.637770451766292 3.015492702763683 -0.3706126936248198 0.007992531287173331 0.2547927237390063
Ni 0.7029021352821843 4.580668010681458 2.2871740882713634 -1.1051203025346517 -0.18155073642471958 0.18083905506967565
P 7.031482405949588 8.143840846360657 10.824752437073993 -0.044654148374265026 0.8103142716275014 1.2722402082460218
P 4.85886094744226 1.8249742208818116 7.96886090831116 0.03813125965408272 -0.9043179169691716 0.38963062948821925
P 7.9054004929457395 4.580179557388928 12.708763753024067 -2.5026534531539286 -0.5730356455128583 -0.002478029226847345
Ni 4.238722525912971 4.528121708404313 5.419428732614524 -0.45317981499477444 -0.28094547087497423 -0.6663193819693686
Ni 4.5363126943867345 7.128712791160659 0.38121431148811535 -1.109735946929792 3.351021337120042 -0.472521966966812
Ni 9.152844448738936 0.5693073417755269 6.0729717233533185 0.5885913338592702 0.16025531738105306 0.02071743505300948
Ni 6.283434975105339 3.7429424339952524 10.619328708234324 1.0015482967782559 1.0306063904864766 -0.18215083190256373
Ni 8.52830055424433 2.526646768933378 9.647929434048054 0.09365757485616129 0.8872218807188333 0.5119935426988731
Ni 7.706346382907308 9.340579593056244 3.8347275043278715 0.910295217598529 -0.527349199219337 0.46910368531388247
Ni 4.40043813907052 7.945293976279854 9.386427509892947 0.3788438232853604 -2.8395515281351225 -0.4336096061723307
Ni 5.304320956896864 2.6956140348184836 1.8486923855671515 -0.5308595263654405 0.16965321365618521 -0.7473770086733322
Ni 1.5994027330585434 4.119709002521582 10.564473524816721 -0.0886161557775119 0.4749028084941627 0.7174113155491774
Ni 7.2194711702457095 4.382102353935556 1.369605184921638 0.5323525659711993 0.25722010223357633 -0.5758605165561631
Ni 4.39077239987796 2.416932644765152 4.073889265682525 -1.1023509673196306 1.8114913011092673 -0.0532208069973535
Ni 1.9149247733676789 7.316776702117169 5.518291679022549 0.2364445602491218 1.0127922451231912 0.1777951260370293
Ni 0.37146778963563665 5.087325581690512 13.381347968172232 0.9614650556041247 -1.3794870917508437 0.9819822017208701
Ni 8.144282332990443 7.55873955523783 5.404512120527268 0.9598115791611019 -1.7631681885238475 -0.25036708386748496
Ni 7.865995462904154 3.8281305668789547 7.298463460980322 -0.39055879772944346 0.09043778236728296 0.3757911525019657
Ni 8.848124740860747 3.3789977643978295 4.2709820478847975 -1.2420875959220414 0.5936108985610486 -0.24579977621177668
Ni 5.396131389227363 0.6681975288479438 4.8266108188029815 0.26706665601035295 -2.090960187438715 0.005728160733028845
Ni 5.118539625749674 1.971294161992124 11.19566226275624 -0.3993452856728219 -1.0233756770659923 1.839547178805219
Ni 7.475617955514831 1.48703029577905 7.844262109386344 1.0109760178500589 -0.3838317634182551 2.331492030383333
Ni 0.7332548107466351 3.1493213902508015 6.1017876496128105 -0.01787096674314987 -0.5545710110497675 1.9951505992365572
Ni 6.31007446621331 2.479708286187776 6.365297868266819 -1.7982010117582645 -0.4311074085757672 -2.982411532857864
Ni 1.3447870609948513 7.638704995224483 0.27986307128795224 -0.05570037888609762 3.1558905480180424 2.5528804676302808
Ni 6.342030583543814 8.685995821071058 13.111609970038467 -0.2422228574937958 -0.10307963950100958 -0.32944239003409714
Ni 0.9533481070275309 1.956452696565258 2.7908351861973983 -2.442927498048206 -0.8263821237236414 1.23340292366385
Ni 8.552469598892007 9.371436690478557 0.9446771217518726 0.42380547559771525 -0.37356123473018243 -0.06017281283515444
P 1.729782188833798 2.86882708701558 12.699222005821149 1.6788887124484766 -0.011541424980696253 -0.3371456722156258
Ni 2.599924156145392 0.850208376310105 1.4940048451964223 0.07131751659806426 -1.0366484829154985 0.27598864109033117
P 7.147959729552841 1.9574014231526717 4.364840226710903 -0.09973489139849276 0.5938978336738481 -0.32736133913535237
Ni 1.8887173755569469 2.572965291730768 8.820624820491322 -0.26048180370398366 -0.06807432707041824 -1.006397654450757
P 2.7065948405678553 6.079947212103947 13.42385655528789 0.8269030292241178 0.38316121971379175 -0.8628452516466817
P 0.2041396602802695 1.7927175169097491 7.8224442158755965 -0.10396049944406612 0.9579331311914663 -1.0362155091431378
P 5.9679317214613015 7.576060860457541 7.8256886729379 0.6988962874641255 1.1510378910023726 -0.8049234396292331
Ni 5.195574345981148 3.928376211838142 7.697928078277208 1.108150604720543 -3.257843787224093 1.7880168721364107
