# total energy = -381168.0710344753 ev
CRYSTAL
PRIMVEC
9.19777780984273 0.00000000000000 0.00000000000000
0.00000000000000 9.19777780984273 0.00000000000000
0.00000000000000 0.00000000000000 13.46187755032924
PRIMCOORD
 96 1
Ni 8.058605388627388 6.6387904251389935 8.031962185798141 -0.8504257949364065 0.3053292990359774 1.7882151041901462
Ni 7.8626375357327305 1.7001356361942275 1.1318960065773491 -1.1573257808936133 0.20105409656496986 -0.3998276246258791
Ni 3.4624850411380774 5.364760239102035 4.339880376729574 -0.9573561756420739 -0.8361276331461793 0.30950297079769273
Ni 0.5412993385660732 0.8906594508951376 4.0191244334475895 2.4625547853608296 -1.8190765696556932 -0.853302345153253
Ni 3.0955580930705584 8.388216952333993 2.188645249100693 -0.5045509703778989 -0.5247449288272704 0.04944437067405678
Ni 0.5322064154753167 3.7543673204846955 1.3260647741427003 0.5244304829106453 0.6611756329849 0.6482977485809674
Ni 1.8952113046464372 6.288171137034969 0.8828100673571532 0.7936370680821364 0.5331192689338947 0.07235392828237862
Ni 2.392599532421917 2.666849671808005 0.12705258327114693 1.1008270744759363 0.04689897854438375 1.1710953238738802
Ni 7.215564672736766 4.140793557397454 9.175615711682504 -1.0677020097871934 -1.3143363660851235 1.4259307279253637
Ni 3.470965392230205 6.2454290637973155 6.694901468346721 1.709173479474947 0.34812222583178754 0.5731559731408065
Ni 7.468613934392535 3.706492887258529 13.431709851710746 1.386100740412619 0.11751895485479116 0.5721789539395178
Ni -0.4186598490628253 3.2883619104167425 5.73862323137625 1.186759255663382 0.2947150138552408 -0.5211268724587089
Ni 3.9321143756423624 1.2583571727387088 5.864976783537851 -1.4716989352994139 -0.4016387096926889 0.9260203416432697
Ni 4.358725703576277 6.489280547695895 12.691992372255498 -0.13632914558275874 1.3589362641826854 -1.0576721363550172
Ni 4.906894862349194 3.198094919507695 9.252011533955935 0.24115482124059756 -0.05969175943367784 -0.4098490134176232
Ni 1.8093132581720541 5.4658070255425075 10.827576147317906 0.49573157231405585 -0.6244749351297568 -0.11716568528043048
Ni 1.972077133363261 0.8389817365663744 9.044699141975562 -1.3921230353472993 0.6199094272462614 -0.10914770007196042
Ni 5.425695516743408 5.302334921463997 8.110364043400415 0.07507235565480619 2.8667085481658883 1.958305662494066
Ni 5.7220847071910494 5.001733148803564 4.833379784069313 0.75966945288744 0.27746188320174797 1.064112235553406
Ni 8.640760336213118 2.816939009249806 3.0606525264820283 -0.010679076980400963 0.9320459790120593 0.7816089332730087
Ni 4.415788716781874 0.9381457378999503 8.549396050417636 -1.4059581414581788 -0.28709015032013135 -0.20250959806457383
Ni 7.159393843973617 2.217621008369164 11.611138513563892 -0.416220978382238 0.10430297038514938 -0.8495279657124853
Ni 1.7919386559887251 6.71734864496314 3.200386085947011 3.491171142000471 -0.28753700804956284 1.1737443314609528
Ni -0.4081927779751448 6.761884284863446 10.660150838359355 -0.22960645428136586 0.3137704878247951 0.8523780335667707
P 7.439199441125046 4.588789718616832 2.1248899327989657 2.528187592869291 -1.0088008645756108 -1.1677968556282663
Ni 1.542283374325359 6.7312832782652805 5.711618555881144 -1.41373495719012 -0.644756053976296 0.12262722261563398
P 1.0450515087717516 9.039640364209108 10.7735401227722 -0.2905032897667384 0.14049304715246125 0.9216556369166709
Ni 0.8165612335054518 4.722479418317566 12.841352325921155 0.3235725615168814 0.7438353140686609 -0.8715276099120282
P 4.7901566670549585 8.240831761552805 11.434612923292379 0.5641200881907833 -0.3443758714154779 -0.519333528003712
P 0.32311977216558163 3.0794067953289357 7.757702848634295 0.6491307860052239 -1.142514941133026 0.14158962265074967
P 6.637797065141217 3.1275203707767885 5.423386874526354 -1.3576787376265005 -0.37302181728694467 0.21213966495517014
Ni 3.1727734373421552 3.8142172603507207 2.3637304673754294 -0.7378405299378067 1.0249836449830605 -0.33614371331367265
Ni 1.342066148106881 0.6365110547973851 6.561278912423615 0.16864534121696118 0.03405503270218006 0.02254960316574181
Ni 2.091114773096794 7.502986029871148 12.023664364640448 -0.41701159260433346 -0.6887977655775428 -1.3509519604256284
Ni 8.244069379323335 1.2726873104844085 7.450287362211338 0.8030043682296494 1.562789263649031 -0.6220125896321933
Ni 4.662887016228742 0.4414123919007823 3.8683912515627847 -1.2258755049385532 1.6140539753612784 -2.191161219840349
Ni 3.9809729710885473 6.395003325684714 10.278224154325413 1.3237052088945331 -0.6927737195061553 0.9790130917902172
Ni 3.1658383129132353 8.236968694894786 9.492831430305747 -1.5221807460990495 0.7355761593836622 0.39891668277583553
Ni 8.717607769374426 8.485262705450088 6.407880214544777 0.4781076885847056 -1.79883221758436 -1.7475042567343453
Ni 4.59710450970933 3.9618140000203237 6.756301233764833 -1.2262020350400364 -2.3799696662687464 -1.824650978419677
Ni 5.392914636816789 2.977771351112003 1.068820406051878 -0.7324574112490224 -1.6080486497074626 0.4149169148588338
Ni 0.2842131722526745 5.22122891720111 7.039848486907887 -0.03688530306212357 -0.04215966408718546 1.697518411734522
Ni 6.681817629487121 6.813345851414915 6.158486149769716 0.1881096205891599 -0.02653969816174139 -0.21062091431779859
Ni 5.0893235863852695 7.689802093897402 8.516508476269033 1.5620238462379161 0.11869652010266007 -0.6880413470274925
Ni 0.8126098681809637 1.419971325710267 1.4208607508193873 0.5437662071247796 0.6297917193569799 1.6040906935009793
Ni 0.1949634555635721 4.442876172276795 9.305980414724015 1.3075049449855867 1.0283484476902356 1.8593765548263204
Ni 0.4133536510747032 8.394287485653738 2.23934248032054 -0.9810776876287296 -0.12594754523811857 -0.8502411897294261
Ni -0.08901609313406982 7.034248879809311 -0.10410872665584034 -0.3310084489696364 0.43195201596424965 -0.021816838764775328
Ni 8.275875294807694 0.2011057315498226 12.43141105039437 1.7768215176412239 -0.7254874076890925 -0.2651337006536982
Ni 9.118189386255498 5.944882477803425 2.700964229509417 -2.438543252937581 -1.8556741662740686 -1.2321363982466005
Ni 6.635304467369019 1.4899296233314425 9.081019326783148 -0.2328596711113409 0.3576849298195582 0.7961917161831901
Ni 2.732963298326675 8.426976387802785 4.687062455285736 -0.8244489112566704 1.789706858244324 0.6902072443305597
Ni 5.87482300462692 1.5049220010756599 6.93165502715008 1.228162501200517 0.43107475556561886 -1.6357666844480216
Ni 0.6027331357618863 2.097663590859912 12.319744509755447 -1.018806569638071 0.04329326347099641 -0.41959812238458705
Ni 8.777733642573166 1.9917419822081297 9.82664545866961 1.3288800682272532 0.7197029397968315 -0.052359744548638856
Ni 4.263473517122833 2.9572787022689875 4.374194526208317 -1.042115933787973 0.782155292694782 0.39223104322554386
P 2.2459317683057898 8.089850239668557 7.231801509811532 0.9259216112818764 -0.6565247644764499 1.2699107887818968
Ni 5.003627891021545 1.0752478131486014 10.848052240160959 -0.692195478405182 -0.2632251707770757 -0.7832097021012253
P 7.400246852323353 8.79231212031831 0.8420243614484524 1.0105209325905113 -1.0186469041317552 0.06354430041054862
Ni 2.7628928671485666 1.2336519416829006 11.837823265056455 -0.08600365785532929 -0.9148573830479149 -1.103309217467842
P 0.29003536557297477 7.764580027063345 4.340594124283531 -1.22593284053905 0.8522463930849129 -0.36029639930047624
P 4.201480495039383 4.368806467998155 10.891507141174795 -1.022653197077671 -0.6018389428977957 0.5482975193362299
P 6.298831361455551 8.909427424500592 4.825194681643191 1.4094031625839856 -1.1546407778622823 0.9492240334532427
Ni 8.828652540236963 8.861580584607697 9.071811431470426 0.15767881490312843 -0.8876779944196455 0.24605997185169878
Ni 7.879037173473798 1.4281297545808933 4.749485013590447 -2.9766322071719253 -1.004207588777974 2.7358267988509466
Ni 4.699484973924594 2.7148620717005287 12.324712229522104 -0.5746644393655329 1.6083217008631914 0.035075246436578306
Ni 1.4897272722207844 9.071906168581325 0.0797566902659082 -1.1221116948863255 -0.2819314889373274 -0.3987472470775068
Ni 2.1029431152925384 4.348074676933453 6.258050254435728 1.4823463877109309 1.2213609048976513 -0.901097610259661
Ni 1.829603555904412 2.4207355345811563 5.265169460880526 0.21402376935176043 -0.1101756271158425 -2.9893671382400906
Ni 6.072795973072645 0.7385153299023807 13.085968145151359 -1.9575250755742999 -0.07155148698574129 0.5149264000749518
Ni 4.569189254216263 7.378107801261801 3.882445455975769 1.517153210977471 -1.8795239763084728 -0.6408670033345351
Ni 3.1199414019048652 5.002652926579283 8.611724791389223 -0.785004589218119 -0.729615313814537 -0.16827818768552955
Ni 4.84125032249614 8.09049408411156 6.182529140827006 -1.2634676042597144 1.758344284772643 0.29748409195994574
Ni 2.4556962878362296 2.4259138834584535 7.43562794402193 0.9873141554567448 0.983465471134616 1.7483923157662535
Ni 7.0511727908825375 0.252004394102552 2.9332081178784253 0.6276548755196351 -1.1058903479314568 -1.5633484785866105
Ni 5.870122940192997 5.290653743712368 0.30698870953502455 -0.40620910267219074 -1.4781989412014607 -0.009807730119041175
Ni 7.160745917303924 4.574615943093004 6.988423711467446 0.39135506837849376 -0.5767853423632776 -1.716522206530534
Ni 2.7102171939331483 1.6258543830271734 2.8365928207613664 -0.06940281607385466 -0.32721555758610743 0.47269371665798593
Ni 6.3768745057252945 4.664469034002978 11.575222111199846 -0.114293505938958 -0.8178378336980562 -0.16952542982906932
Ni 5.499075387690258 4.800770902586754 2.5760381724557315 -2.0017462501762044 -0.3677528555785215 1.6772558048307435
Ni 6.781208815931299 6.953216457768479 12.407731371558487 0.22188414593644368 1.318358599870639 -0.7546072078731842
Ni 6.924077897833707 8.97908219545578 10.597701606499148 -0.22818283446096185 -1.7053240238218694 0.2889171762265412
Ni 8.543411056431035 5.678128527289446 5.087122558167975 0.037617553242457795 -0.03292220464931749 -0.971680819794862
Ni 6.46198154331256 6.23775811714782 9.98981679541546 0.2909804865134731 1.7555543807323313 -0.07219272011416598
Ni 1.0718538331561986 6.727374222718475 8.876277713685909 1.5144530384374886 0.4346827846318514 -0.9961602929934652
Ni 3.671081442893354 8.584276783006223 13.38531993981459 1.4891582684264417 1.0901407984066838 -0.30430599997778557
Ni 7.102192864101661 6.989887997686391 3.7859515695251047 -0.16125907605521902 0.7921563697715519 0.032805219455478984
Ni 3.5851282097524284 4.69390192282598 0.08871900491251263 -1.1331584396187904 -1.565420273513975 0.345915705098772
P 6.948047306668941 8.583163851897602 7.564000408401234 -1.0940028524652514 0.1850412660764813 1.3829884200358826
Ni 7.033181937589477 6.770162284844916 1.413416069502719 0.5515486792836759 1.2257744605843148 1.0445206865747234
P 4.262930848235159 0.8635517602891519 1.4964085379836058 0.7785089541914463 1.3241638936985065 -0.243273153135181
Ni 2.538218749873724 3.0590521131522777 9.85453863949606 -0.1748491560348279 -0.2506092817852781 0.9640420723026816
P 4.526879476533196 6.499857992116661 1.8617507089435614 -1.0962160580664861 1.0078726963343867 -1.2840904227163885
P 1.319467208157469 4.375548439094175 3.878851884206035 0.1991784768088118 -0.39836569536837196 0.023405009187501626
P 8.681534085010732 3.852553598042682 11.464808307891454 -0.4114618664306979 -0.2071116156129594 -1.230843904687422
Ni 6.137631108483066 2.3348926747733167 3.3667748053523257 1.2194531463519773 1.2935240573254625 -1.0721965552234374
