# total energy = -340886.43481375155 ev
CRYSTAL
PRIMVEC
9.11894157174099 0.00000000000000 0.00000000000000

0.00000000000000 9.11894157174099 0.00000000000000

0.00000000000000 0.00000000000000 13.34649274698728

PRIMCOORD
 96 1
Ni 6.8426621782144235 2.1036668446433624 11.4058324656997 0.5570179299283633 0.9516673527874125 -0.0542523335856614
Ni 5.063173702682566 0.4577845399986292 6.202796086390278 -0.9494582609512356 1.7918850968425657 -0.7283287337926295
Ni 2.5608905697418414 1.9122693822163188 4.762909757565292 1.2891711796734056 -1.3565302258443541 0.3309541986929332
Ni 3.8242743151301277 4.360513668030328 4.372004446171464 -0.7056829713686557 0.07827029376681359 1.8903071829669058
Ni 3.7964980194251026 2.813038420214478 2.4598919097483583 0.7404088048856152 -0.1745185121682865 -0.2513934682494703
Ni 5.097871274960184 4.9408066271521225 2.5046157581676938 1.334789748843469 0.09957651144375754 -0.3513255632604337
Ni 5.721771012171745 3.0007700681722436 0.14396346460405285 -0.2391938408594848 -0.0889750817788274 0.15012131427084469
Ni 5.679769167779971 8.189110361415276 12.556153191535161 0.5079839073188477 0.111374275409634 -0.5436505074825217
Ni 2.038037822913531 6.607548510400022 0.319661757403463 -0.5646620767371823 -0.671808687218714 0.45214340331046005
Ni 0.8581480174808521 9.08830182253984 13.285872773093208 -0.22697621574737037 0.2840495637215947 0.7987126828328309
Ni 8.387492933005172 0.0671336470716992 6.961823945819616 -0.3503583142511579 -0.1400832133085523 -0.37358360332768564
Ni 9.022517778805089 2.613306245287634 1.1469084179389377 -1.1126243242211806 -0.6266266913654369 -0.005215996983300694
Ni 6.938766702323176 1.3088599064785562 5.0283977075083435 2.463020926363971 -2.480836100168521 -1.1801975432854641
Ni 0.9444487676196532 7.475033412047773 2.355629580604243 0.3927468065196978 0.18285094329338186 -0.5697014389333027
Ni 7.513387679853202 4.208692411565139 3.81514807851109 1.9282772344527759 -1.0006975187421863 -1.183882191225903
Ni 8.057596987594568 4.125865066230686 12.670118986293106 0.07688266939066758 -0.3824094291494317 -0.08360738970901085
Ni 8.624138582985838 7.498149928663742 9.212696950652292 -1.0915980996785006 0.03321145375496216 -0.13818162541046525
Ni 7.186209178999427 0.7197370763353645 0.27574219962141666 -0.6840527946933898 0.9538751590720088 0.2294763564614048
Ni 2.24867625183355 6.552360676648606 8.744168473818581 0.42402273381484396 0.5155874306977185 1.604155485300644
Ni 0.22044949804314334 5.03822427883196 1.3991128058486633 0.2618552870127426 -0.1812979969839652 -0.2823719189088556
Ni 6.436030340368565 2.4646674993940323 6.9771191463403115 0.730327252279897 0.30447929233085624 0.9039376508116175
Ni 3.807313084003619 4.542181219913293 0.34221198775440087 -0.6521945125322123 0.4151974222137301 0.01571946761778583
Ni 6.38939607371213 6.011926610674108 4.719986900085464 -0.99399490991103 2.018550980438369 -0.431782837376237
Ni 5.582743630583165 3.1228818133416443 9.196520860385993 0.9486936148710692 -0.14410261888059053 0.6777942153781875
P 0.3688392968347271 5.989813177619386 12.58797100209786 -0.3213243889126531 -0.837654354203351 -0.8320105256540123
P 4.376380626180933 6.477393858857729 12.410676894541922 -0.38904261819523317 -2.114570113548171 0.08334128053181776
P 2.6436176067201695 8.792720453865288 1.2500992714608143 -1.5093442564560133 -0.690741776677791 -0.2784890389146817
P 6.747624570257177 8.257429470877538 5.62580053650254 0.9335801562683986 -0.9098864121958846 0.6283894396928146
P 4.956354422351422 1.1786961359947972 12.418030408939996 0.5872044808140726 0.10754307458900188 0.9912849671790347
P 4.416111854147708 6.3159338812631205 8.110062817318424 -0.8049697194861362 1.6975212399479993 -0.39742158628754787
P 4.749609781437327 1.2486931306867781 3.7896834344676615 -0.24659578975051077 0.06095237131365632 -0.030321533801676813
P 0.32247221516324265 5.68594269115236 3.485756410563549 0.7964583395810154 -0.39033176932030195 0.46284433466773184
Ni 0.6387079862579801 0.29907118757353945 4.597986406001948 0.6072408306396574 -0.830436753408989 0.20706070777036598
Ni 2.0508408167316055 7.036877393554419 4.4336384596451 0.12724132434887764 -0.6566263230513207 1.2691553986731112
Ni 6.14074077782092 5.515646459277328 9.1158282592487 -0.22269969985920354 2.0172998816400867 0.11774135527824238
Ni 0.037614721652547145 2.647775844028604 10.246409212493008 -0.07656642370182944 1.7432956179696362 -0.16806530034377506
Ni 2.826789783945003 5.772435850956092 6.529504961758562 0.006057776158305696 -1.361054853187585 -0.4157494380624582
Ni 0.5528020862846509 0.5318385517487735 9.408916509326486 -0.031121661105468983 -1.4689103168106832 -0.47245588961556695
Ni 1.802167282957463 1.198584547331849 11.395355713849566 -0.2845139049525229 0.8998200290988182 1.1749571208221312
Ni 4.089936436855178 6.985264184857622 1.3954962336633012 1.670128449757343 0.9538221943468862 0.06134137922195887
Ni 6.212224159971836 8.080622314795878 7.928937842452677 -0.9497212848046352 0.10264769416991354 1.0261627528928263
Ni 5.728446077324758 3.041413190285605 4.788788401551271 -2.1859454799673643 1.5307108950572477 -0.5128463776174716
Ni 1.1473087394692894 7.2863260373531595 6.719505402353035 -0.3309192316899398 3.6952557978616487 -0.4934749150693953
Ni 5.137912546936797 5.044908462926439 6.507283013300395 0.8382752756168016 -1.283797831176634 0.8342802955247954
Ni 1.1890370156170884 7.356696908645242 10.915015472135119 -1.122678880243705 1.8588901021082052 0.9850217598781423
Ni 5.119546998824545 0.9806783220635354 10.252402180824372 -1.0045161211573281 -1.3401132179389112 -0.3820695293115098
Ni 8.730483678360757 7.272893836573941 4.715876081272652 -1.3238527902159911 0.6180883148771227 0.04426591179691086
Ni 7.70193091360143 6.605925338819098 6.970940151603041 -1.0417930032309155 -0.7240781860463917 -0.6372173223970896
Ni 2.7717113774911777 5.522567735849921 2.631274207551974 -2.35492455037466 -0.6192072589729143 -1.3305335446702762
Ni 2.6212397243629364 5.660920315770027 11.391832154867156 0.7405018788200537 -0.37661879060958364 -0.1975280856895824
Ni 1.534736086588036 3.616398925474266 3.550847414746894 -1.882017432154288 1.1800998413653354 -0.11495839321646653
Ni 1.6651734253157708 1.4825119088130263 2.338826107165093 -0.6486191364761281 -1.0430153056737907 0.2382132221137704
Ni 1.5132153847285943 3.3391739859704996 7.68077314561233 -0.8476091514232178 1.3409452269219035 1.557448311052092
Ni 3.8779757614226074 2.9371198567405052 6.7609190750202615 0.27488898026824915 -0.045330091395367096 -0.06750225661703213
Ni 4.641404422003372 7.341477395338712 6.045494346104105 -0.3026864620964916 -0.2709549353211656 -0.7537551442855343
Ni 8.195548334090176 7.461063193722068 0.19506418879046794 -0.34176285927266303 -0.15288216484543346 0.5494408889120537
P 0.3182893567128503 5.853858879304801 7.97638460679372 -0.09647293281776934 -0.7455738940263225 2.6517028745168334
P 8.914923388449346 2.0773586985143417 7.971045466565456 -1.4180243285940934 -0.776478811135295 -0.09439676701503098
P 2.1977196069222957 3.7328660458762957 10.365499852354766 -0.4559797463374147 0.09031745473933478 -0.47137808317035595
P 4.151516648574164 6.5208547338840415 3.882534320261393 1.1433713755960502 0.2628109660577925 0.2966060602303666
P 7.021685237072288 4.411379123526924 10.749505772635521 0.08300652290021833 -2.044694728713272 -0.636154171239898
P 6.561534331763267 7.879640844888209 10.221491704937531 1.6471618136588404 1.2494610055679771 -0.42055303009868855
P 2.7150371562808253 8.815271596110371 5.760613143345598 0.3979802870044952 -0.4850388684869002 -0.4436880734542552
P 6.96067951866565 4.091185731836001 1.6782281019183034 0.5789805502423835 -0.04508892191883848 -1.3863187699606963
Ni 3.0911205402160356 1.5633878006737845 0.19622047056833963 -0.7650700550777211 -0.05709931611615328 0.8896672569355324
Ni 1.5841972250988885 0.8733210241859051 7.089709804725201 -0.2172330203176775 0.37141539203177326 -0.17019288820973913
Ni 7.264349388420426 0.9069434732646966 9.025218809267278 -0.16157737862658625 0.20342285390746254 0.564763378201737
Ni 2.5106543212063896 1.9118316730259575 9.202005903677712 1.8409635995367712 -0.3382913557842948 0.03683850898458817
Ni 6.358811144035618 1.9847193721626175 2.423416143884898 1.270148872934632 0.38841449769293107 0.32253640694288327
Ni 4.478968717671916 7.536640980591159 10.146604221937405 -0.9244018322032402 -0.8949002231996975 0.08076992026021573
Ni 7.58140586424709 6.3257367433389255 11.447193248506423 -0.14074655792416405 0.703986300392523 -0.13276662504248102
Ni 7.817732351276452 4.175116469087824 8.245836560591982 1.5419340174665768 -0.6813022285314461 -0.3820227352339743
Ni 3.134444631120361 8.217005203359356 12.479958052328833 0.6634348613327219 1.8204533953985615 -1.2778531835574252
Ni 0.3702436138204704 5.277204377827887 10.228137589477852 -0.1326360130018877 -1.326122302976458 -0.4979200953249424
Ni 9.269768757710557 2.532020001060912 5.567288848586817 -0.5709841623004682 0.5502626134824007 0.2276094784559951
Ni 3.6448317849648335 2.883874357521319 11.79861992661208 0.4240299329036955 -0.1665552914571519 -1.2691001199551433
Ni 1.5050721699995766 3.8129029951221938 12.542072634017721 -1.138098557232885 -0.3105589228660329 0.47663856023834683
Ni 3.58597813674414 8.774236359513978 8.048161618859837 -0.39352327967440615 -0.8043559971615373 0.5520251046994622
Ni 6.0747196416080556 8.47564574015569 3.4920293303979175 -0.6563612423153922 -0.04901833888023171 0.4722764266149092
Ni 2.9846842554264574 8.849066393182868 3.377636769179372 1.1950261236578645 0.48658153038367163 0.619668514880049
Ni 3.675352882051084 4.4402496922078525 8.824674136655826 -0.7411901631363299 -0.5593524915988108 0.01854279599919387
Ni 4.813597393703303 4.616163192025858 11.02516407799545 1.0412391876099745 1.2192531145260292 0.44182865164801327
Ni 8.30695444197865 8.910610129135991 2.1889180046194427 -0.37704430818277646 1.3389053136737392 0.9330510232378061
Ni 4.667320453649361 0.34240257363103743 1.5585365238139441 1.3658723291808865 0.04757492156548581 0.04494931101718065
Ni 6.135497386478047 5.659753091262396 0.1542304808004704 0.05974498126911646 0.5171419196690319 0.355049291968924
Ni 8.076591742667965 8.989625756937713 11.60473481695315 0.36417902218433407 -0.6187765991933989 -1.66957874790146
Ni 0.30859592193463564 5.266498740546962 5.982911962718019 0.22036385263717534 -2.8239194780248207 -1.7980752848136774
Ni 7.509740103266856 6.398624442475586 2.4969686138544196 -0.29245989927247695 -0.376329541503939 -0.09940836129700945
P 8.602572286419068 1.6798913968416773 3.496421012607878 -0.11295653229508934 0.6595463249115932 -1.0081300637608315
P 1.988476376046554 3.43340912707875 1.3462211215583524 0.5219200577839657 0.2744056128739274 -0.36537638492654495
P 4.701972431219648 1.4949683828553981 8.098238285919635 0.3323299959945374 0.024426765583796643 0.6380878979275011
P 8.93103655801953 1.8441873652321696 12.272700926904358 -0.37745234225447255 -0.2923017764280579 1.3262498296932579
P 6.307644763470649 7.864412212640215 1.392238947771694 0.47885999336969787 0.210357890464399 -0.5850835778163278
P 2.1268015991422624 3.7990695609184764 5.809314674032343 0.1491232120236335 0.3770471363962539 -2.443425006509915
P 7.184631602125832 4.411607097063571 5.93104798313091 0.5122989897544338 -0.2733226642223938 1.6526819721461217
P 2.5726175284669432 8.810812433733563 10.196667210585005 0.6974868087111085 -0.310075298361395 -1.4725178316562835
