# total energy = -340891.3244485432 ev
CRYSTAL
PRIMVEC
9.03472192029082 0.00000000000000 0.00000000000000

0.00000000000000 9.03472192029082 0.00000000000000

0.00000000000000 0.00000000000000 13.22322877403535

PRIMCOORD
 96 1
Ni 6.415610197425506 1.8243091063651806 11.516731608030412 0.18202947583335102 0.6091017951077962 -0.16093845949100669
Ni 4.518824552341109 0.18589572646783437 5.950096153856871 0.606136541831885 0.2843863782357231 0.40457568083382583
Ni 2.9782147469385434 1.5665213876821362 4.899827807679934 -0.8953375678474322 -0.3234128960105656 -1.131722221392896
Ni 3.6835916210302972 4.268129090314084 4.97990796831215 -1.6098805607098792 1.6318233835295575 -0.13018960834392415
Ni 5.189625545894539 4.357852913054116 2.8547498519595713 -0.3011242598156943 0.20043240382057093 -0.824126237809929
Ni 7.001385423603401 6.019600269085857 2.627032398025862 2.0203384113560947 0.18958054870773156 -1.2238592458394728
Ni 5.106226028452868 4.49470184498879 11.695099604248826 -0.08818780999084166 -0.6095591943601889 -2.194190493584976
Ni 5.426380432099606 7.707638665715071 12.359368493901234 0.2769718309392068 0.7761306837672569 1.460984377095387
Ni 1.6001937960349806 6.511857089344704 0.5105756222916419 0.42675273115149737 -0.6369604691912772 -1.123090513859827
Ni 2.806094260882724 1.7494022274670236 0.343729606854656 -0.8524060585912288 -0.5817933371008304 2.027009395618367
Ni 0.4909007085084412 0.036328616578155885 4.704058033696987 0.14914429506955604 0.3243464635684285 0.17918866395044625
Ni 8.421806324171547 2.157283780323881 1.5595077331062541 0.7275980262741921 0.9458183502058034 -0.7863148233891103
Ni 6.685170158685357 0.7509371694611457 4.953170612455051 0.8150273608324544 -0.6869655974648105 -0.8905571157396533
Ni 0.7643718008592352 7.454765835721037 2.6681828456579253 0.00928708172888078 -0.9322038447461622 0.821112904904902
Ni 7.524342228724863 3.8603740235631934 3.813618434492412 1.0705690469223432 -0.3977121209447731 0.33853895301872666
Ni 7.601842072795348 3.960144457005764 12.359474200146936 0.8325203754108953 -0.7534044458143346 0.5381807426172022
Ni 7.7556311082077745 8.594017157445913 7.0110218579337324 0.3282853936115185 0.7048057109700249 0.1560829311709183
Ni 6.7513946698810505 0.7233523566940665 0.6136636055992953 1.2215995032710187 -0.5375765333743 -1.9154363739343656
Ni 1.6102494414593744 6.918356329757777 9.116265640373959 1.1893552985253322 -1.3770689692276543 0.6907659450475072
Ni 0.2560729284750032 4.583847445530115 1.299195713136978 -0.8296615658058615 0.481133362784907 0.8714175666967251
Ni 6.162330804948008 2.135121607614054 7.214632867014461 1.238545387096738 0.29208014733555504 -1.2265560759453458
Ni 3.6051612006087677 4.355006975669854 0.7529157735473472 0.06242869874886667 -0.18340218781116155 -0.8006196700475567
Ni 6.024325428615918 5.696608962776712 4.679039081936671 -0.48936372111449916 -0.023846724710610542 1.3119149011278244
Ni 5.120121430665553 2.6858963213264486 9.474403821642651 -0.23549530896197507 0.7638333544571426 0.3481957593822003
P 0.17290379644063014 5.670896144377947 12.34388388411429 -0.1398294454265334 -1.168940482314406 -1.0699077591892605
P 3.7585978818688575 6.113181918057889 12.685122618153578 0.14401905802784873 -0.24705344611321967 -0.3043455949664694
P 1.9549782885511715 8.525299063018295 1.2522540087959873 1.7044377645621744 0.8489672081130089 0.6088721955954933
P 6.265254356317904 7.63398761315473 5.726887929600893 0.20304695862528255 0.46693470268702164 -0.5139666072648439
P 4.540977690329083 1.2008681247746196 12.586966689506461 1.9058271329793757 -0.8667487004661458 -0.46010251025653665
P 3.9053036953471203 6.241375586455664 8.35062717151068 0.6080527850179914 1.1735314441191982 -0.12669727891994953
P 4.796994603528585 0.7766219802221602 3.6915421762625225 1.1363116405357914 -0.06911665229200355 0.16325270944648013
P 0.27435288120382256 5.411030439668298 3.587964511030339 -0.06940024497069337 0.47459556166638905 0.6689511631652608
Ni 1.3804693605262137 1.180702625594703 2.5821921699882977 0.2434346184137098 -0.28417091979080733 -0.5888517866095084
Ni 2.034276042270762 6.443825633778051 4.6667681227134805 -0.4217401084282543 0.31089110939447107 0.8226337124248027
Ni 5.852855442533645 5.63960890259477 9.082916675063515 1.0265533034630256 -0.31412170051662675 1.1839937771031028
Ni 8.806531884914548 2.3405802173140895 9.881137061351764 -0.013234753522719142 -0.0641276837178444 0.7714435627042326
Ni 2.621623310051392 5.312732665888061 7.00885352468858 -1.8606361382650343 -0.4940408148751943 -0.25467573854516784
Ni 0.7736748539531241 0.15531409646151756 8.94609575076659 -0.3357392787864025 -0.09992900968716983 0.5415784554448415
Ni 1.5022664458507897 1.18447913933001 11.625677704988718 -0.6448293304163927 0.5391899006080069 -1.393394188750239
Ni 3.660417559472732 7.154867278472765 1.3886105483895754 0.9014171983826089 -2.093691727437265 1.0205765170543004
Ni 5.503979658110495 7.846204194802158 7.782927713347686 0.41853857077182116 0.15272327067006602 1.5593326725589984
Ni 5.110978292148494 2.6884983212206315 4.774484594027348 2.6607649847191013 -0.7712355604584846 1.2383924064586413
Ni 0.9201683514677991 7.684916340250245 6.8350074067584945 -0.3921929908987568 -1.0852659868128856 -0.007332014885038985
Ni 5.033261614753494 4.552406613475406 7.082864159178741 -0.07566628048506324 -0.14007987087444262 -0.2745745343516239
Ni 8.15684503633579 7.322280674442232 9.223889957524907 -0.4241998828226565 0.017432336543834498 -0.12509265343699102
Ni 4.6271870062675955 0.3312869879162237 10.461174335679674 -0.11121589545489877 -0.7352586281432434 0.21285006075863344
Ni 8.297307857012385 7.0293659571877205 4.954439990875651 -0.1286086370100495 -0.33821885067514657 -0.8027827391371464
Ni 7.166874423817796 6.004982089124789 6.979404848802854 0.36852495785785566 0.43148278963731496 0.26332724357257875
Ni 2.352460876553153 5.213630801862746 2.6125922020853327 -0.813175138115064 -0.2784443017196753 -0.06816277301916648
Ni 2.233907256374451 5.380574392295763 11.208748781666463 -0.7191915473780517 0.31873425958797363 0.8751747197463121
Ni 1.2134986659276317 3.1121364289922626 3.9378639294396387 -0.5108244620914364 1.4249074288671717 0.3025602209312725
Ni 3.907173882771064 2.4229497764643124 2.758563492676801 -1.6210553463797759 0.5578355407336522 -1.602200675567118
Ni 1.3962168807191326 3.3024709143073605 8.03719731134047 -0.7098239901202226 0.2596953032469463 0.6914604000113704
Ni 3.7286206747546267 2.523433952933412 7.238659806315119 0.11312031156646327 1.2762400734340342 -1.0101455515289635
Ni 4.154824643533021 6.822805111421399 5.973699364702539 0.023846981820926674 -0.32024786801902266 -0.7208421956075973
Ni 0.8212896450722976 7.65562577199698 11.382912018333652 0.6222403893722832 -1.426821358060433 0.5556403328545463
P 0.1867124653235084 5.720948503453546 8.116047846328248 -0.3779616777907233 -0.305398461711016 -1.3755964984471856
P 8.554210172953658 1.501932161142162 7.860574823384405 -0.5462128688930593 0.39132987156751314 -0.7442222650944345
P 1.8092843639206462 3.3775675223644686 10.531164518944449 -1.3318484068269578 -0.6750994421548437 -1.6170709078107315
P 3.984673726841549 6.077973606989728 3.6639058655808707 0.7629247265999441 0.7443806450491697 -0.03742009251967104
P 6.888848928179996 3.626356658080131 10.050143278784232 0.8889275505560303 1.2736936528630967 0.6854884986986517
P 6.450854647381085 7.79903391199824 10.499798675081136 -0.9213090522105294 1.1862460634723893 -1.8793437419768666
P 2.480645510229073 8.441393601152756 5.537147928983841 -0.08533697080560787 -0.05057102807933226 0.325445095949246
P 7.109711738642468 4.08056826460841 1.5908997776629465 -0.542141527037163 -0.23587300401636796 -0.7995778590466036
Ni 5.54489791339089 2.9249731310481994 0.5444016209160178 -0.7177049355301962 0.2748910371507782 -1.401765957753702
Ni 1.735705589135145 1.061064838793425 6.885269371381124 -1.3203985131188034 0.2383399774996218 0.08322326689671475
Ni 6.831912111051039 0.7681763222322919 9.174606453279152 0.09297289008431085 -0.8206220813114126 0.2784219331221721
Ni 2.8311114056986693 1.7027017501995556 9.248154510010348 -0.9943263251085199 -0.8707426521168875 1.0950469774590494
Ni 6.270837814424171 2.038784368476308 2.497074248449844 0.36393296761179905 -0.7510292607139388 2.201738995356195
Ni 4.141353873247513 6.72544694871406 10.586860868762741 -0.11748938716843636 0.5637729892640096 -1.0420544844224182
Ni 8.250173713095887 7.033621311181332 0.46574442897593255 -0.7654474930217979 -0.23690453060467587 0.23048320045936432
Ni 8.025471145845124 3.888959883511785 7.791906419926987 -0.5628728460472435 -0.9877512429941634 1.5541130760312718
Ni 3.058524389505872 8.440625649795097 12.508076401742521 -0.09912399728737122 -0.14642766746934135 -0.48139252998356447
Ni 8.916863908205382 4.7997501936943 10.19112920985622 0.1277992537348767 0.12172296563380972 -0.11211321045818756
Ni 8.427904761423537 2.3739996534549994 5.7979098781014855 0.412120068839987 0.04508018016809011 0.24368247275845775
Ni 3.5494802098176277 2.8045493234455536 11.533617503177036 0.6393438818217893 0.1387308130457159 -0.1918292355325922
Ni 1.325366591933781 3.417419680465997 12.709043851208536 -0.9327203793712645 0.6056727148215891 -0.1007774737303942
Ni 3.0834511871032686 8.312666884165546 7.872184440967825 0.7623233455705194 0.3213701545489239 0.4669015354562411
Ni 5.527216962721043 7.758088552552281 3.2774040785212146 -0.7747191481317109 0.30429648689608885 0.8790802254483053
Ni 3.0483512926973653 8.619666732791694 3.3050006364267053 -0.2186486697182815 -0.8461091698389234 0.4519947935477377
Ni 3.3684243838474104 4.3645386072266685 9.21584995854632 0.27551890054276423 -0.4772468832463071 0.5006297809466217
Ni 7.065432566832087 6.021687289834317 11.348928815549002 0.7434504199254164 -0.1310439859244195 0.08057657330248703
Ni 0.293246291546583 0.044786019706435344 0.19467928305507215 -0.6768660471369633 0.8021037107922508 0.37910196204275354
Ni 4.620971117631493 0.1544485701078276 1.2661403762868169 -0.22282799790695174 1.2334738861111014 0.9403254454120322
Ni 5.882688094098199 5.494339609891421 0.2436393442584257 0.6723918134156935 1.380163806102894 2.4822126688010737
Ni 8.087358990550513 8.977017086314648 11.338931895816666 -1.0162236394022433 1.2194264068790999 -0.44514974560144627
Ni 0.3490871969145532 4.842141108637027 5.975167507003945 0.22178310158220513 -0.010778835783058856 -0.6812847450299493
Ni 7.821467126363712 8.592725192220676 2.648176357582653 -0.284834007296103 1.2017783547800334 0.20013801250860372
P 8.498276209950584 1.6960250907488577 3.6765598970107054 -0.976701412937905 -1.0189412954437227 0.3127759851220097
P 2.030833813244083 3.2185925566073856 1.8151000143785818 -0.6830168972297075 -0.45044750366527586 -0.7408808594260272
P 4.700458600510034 0.9578341068804656 8.26502047151988 0.48003087374934744 -2.003594616238853 -0.33577810244413786
P 8.492864411559559 1.883811784500902 12.478139850876637 -0.08021610463927475 -0.5992855803483228 -0.14076789808040271
P 6.333827895195845 7.676053278110685 1.2047259510066197 -0.4706468614312862 -0.34314071345679614 0.3862804820690638
P 2.0516588471193997 3.1384907126427177 6.002724312133274 -0.9761789647755317 1.266999785782689 -0.32789278615879014
P 6.821946812845193 4.010928628551602 5.951246273948987 -0.22131747479969627 -0.1985675826976903 -0.2453675737703645
P 2.436167574537887 8.65625735630364 10.286865639990623 0.5296652489470233 0.23088789209695074 0.025292970238833864
