# total energy = -340885.4248300415 ev
CRYSTAL
PRIMVEC
9.16237858066616 0.00000000000000 0.00000000000000

0.00000000000000 9.16237858066616 0.00000000000000

0.00000000000000 0.00000000000000 13.41006720022882

PRIMCOORD
 96 1
Ni 6.340091014548827 2.444742466965297 11.808060120302574 2.434408661943917 0.6902021021242372 -0.15657478320567228
Ni 4.945256331542568 0.5799455711855838 6.074841074721831 -0.9896780277032312 0.8239447179267423 -0.061446537341255464
Ni 2.760468865899265 2.040507492225236 4.667374220549541 1.0866027033464383 0.12256988701513728 -0.15687277406206532
Ni 3.3049615299187933 4.824908490630247 4.53877107665572 -0.0472555905528541 -2.3354497294795005 1.8060644736667413
Ni 4.199951819081827 3.101730813567351 2.0535904524109005 -1.5039691081870292 -1.0763092918402302 2.2103061681999163
Ni 5.506827668988862 4.943506317259033 2.868547365832089 -1.2691823952563044 -0.20268520441048965 0.16099296687802597
Ni 5.496263446638508 3.55575415279295 0.33481346571649945 1.4781125521352416 -0.4988577766478634 -0.6710563824337217
Ni 5.907470991377372 8.279152652599628 12.756527547514246 -1.3313208164582622 -0.11856667939301516 -0.663086991075
Ni 2.790594766235748 5.372250654347053 10.967315692739952 0.21549906834570626 0.9675472572424627 2.025370317353047
Ni 0.44199038761005693 0.5303963447775334 0.2735061590463417 0.45823357536859793 -1.0473535280378286 0.2286554032220062
Ni 8.33040699763682 9.303662323501264 6.760792615835339 -0.15824085805418553 0.2567632172018159 0.68403351141968
Ni 9.056864497630364 2.5816833752466484 1.3513188828061078 -1.120923073894863 0.7436825905408805 0.3938626652916959
Ni 0.8077745249559304 0.5128494738120833 5.0386585336776495 0.548845678530216 -0.2717026121204676 -0.4367386387196156
Ni 1.8555923703910173 7.009934178113196 0.6011436499624963 -0.27849829488606226 -0.4049993986348058 -1.2410660966360625
Ni 7.74286947966936 4.261495515115938 4.185522905502175 -0.04132765510419334 -0.4770717911210236 -1.8502139144904457
Ni 7.932576525431796 4.2738005893713815 12.910314404809787 -0.206660901228786 0.420371767325818 -1.7248654362889069
Ni 7.968813732192985 7.645116064009401 9.059318182578695 2.498840764276058 -0.21925776405719014 -0.5209561512087996
Ni 6.8857198134958875 1.0321694192840283 0.5875530940108217 0.36597185241869873 0.7652554316156498 -0.62310993646143
Ni 1.8875507464170678 7.066475215514789 9.563710781083426 -0.5814027865306309 -1.170377471871249 -1.3944632534447017
Ni 0.1422349305485109 5.0035473832276995 1.4277028832121792 0.4309819387414965 1.2052835397198147 0.28179367780788245
Ni 6.479001834196463 2.3365622646317012 6.822009214958863 0.2523548037214751 0.6714592742990952 1.0056990857218358
Ni 3.471826766210776 4.4983888098847284 0.23427285453270946 -0.7822802483084205 2.3267717420895284 -0.24792942096026974
Ni 6.26214666109309 6.124317002102298 5.0889325042209235 -1.0504061988212232 0.8905612295047114 -2.449866134149568
Ni 6.040829409685619 2.9039059005001318 9.259476753436578 0.42685583238826486 1.1092574646314768 1.1543304457107153
P 0.30853118313888295 6.013635470452444 12.660390375412485 -0.2627166065717733 -0.9551792225954129 -0.1214810248263327
P 4.051997731906177 6.753946486659115 12.762105603513287 -0.3045965346350109 -1.2728210204501562 1.2340778382436874
P 2.384884648565586 8.974430578735186 1.4981056829675035 1.4751781520972658 -1.4602518698047369 -1.325468728552859
P 6.578431965112376 8.376585385013911 5.9883326461309005 0.12001523891408364 -1.7467534946112495 -0.2683676342099636
P 4.686116781902434 1.6118364541647978 12.765190576336675 -0.15697947484325867 -1.1015762939371352 1.339440617351919
P 4.194866699043278 6.430679450262578 8.549253155576908 -0.8925584624403984 -0.6419072716735913 -0.14555863460082674
P 4.793490694932619 1.4818497911253534 3.594688763769183 0.29979499948130944 0.36368948414242525 0.9809781859363879
P 0.00929889788670839 5.933290573843372 3.7083398222739814 1.2788731401815072 0.10941278080788898 0.10291766000184854
Ni 0.9008908608834392 7.894552654873278 2.6703871097136793 -0.28693125614476395 -0.6374114406857667 0.9875908061568991
Ni 1.7252575369705552 6.69783608104457 5.070185361678808 0.032100737189286646 0.6040853157298113 -1.5535929418617436
Ni 6.092102079479709 5.274313991118137 9.111697667689281 -1.538247826864241 2.039538124212997 -0.35098180676776974
Ni 8.354357454899462 2.414442481438304 10.475260236815231 1.233854666489288 0.05458863387915759 -0.9338544929757078
Ni 2.3735691111825092 6.008669461333716 7.219135100261247 0.1518184994676095 -1.0486007701813682 0.9023556510364781
Ni 0.603989484708394 0.32724992230781114 9.56737206751118 -0.6016898189144412 -0.30998196731664035 -0.8791164780028794
Ni 1.4842045223864473 1.3595778507389868 11.56211989305439 -0.3906791253573917 1.2477381093395996 -0.33577398867907976
Ni 3.9137832530205756 7.014497042580218 1.6675684535494475 1.6513082317270464 1.3705414525217816 0.24655953719593665
Ni 5.837278010088503 7.94271927837355 8.304210841416612 -1.440827442531538 0.020093942536397652 -0.3556522156602456
Ni 7.0069472427392006 1.133477837781747 4.817257904626305 0.5033502652015783 -0.19081750643862622 -0.37980104499230716
Ni 1.2055674314093177 8.078716461674775 6.9810397014401 -0.688306170653105 -0.0020972488486609045 0.8733428087438959
Ni 4.7752942113352175 5.126469852483862 6.753216245096822 0.46638320105892583 -1.5573102428123309 0.6066222232190521
Ni 0.9035791027200342 7.88586672010473 11.897197235270188 -0.38403950855368696 0.5613504958654462 -1.083857022280501
Ni 5.140030172586658 0.8196114016726893 10.706476521897743 -0.9260113427822051 -0.8255760828825782 -0.44668340863715333
Ni 8.458616159257383 7.786042606915561 4.716092419232372 -0.5825569547397321 -0.35997089764025747 0.17688906928299214
Ni 7.278144482416688 6.359890914374601 7.0922893005537215 1.3323137764991506 0.4819967392264667 0.9757012538081647
Ni 2.3550611067178813 5.75804176127162 2.660677737272508 -1.2788461435983136 -0.7784184513601691 -0.1738022028275523
Ni 3.7610097547813646 4.1718691291392105 9.196033696350229 0.8247733844756248 1.115558210038524 -2.0841045979694623
Ni 1.0478004369160359 3.835060097396772 3.639479050811428 -0.07613216437788824 -0.4347074672221998 -0.04084428770987159
Ni 1.456460840446401 1.2760536088085173 2.5593381666880664 1.5328670221683018 1.048058010304021 0.6081306894437785
Ni 1.2697040805441673 3.7582060669763266 8.330534354697244 0.448336370859544 -0.4881833276531528 0.027523659341565504
Ni 5.357499225046038 3.3986651743048086 4.798993619428389 0.09469604342300465 -0.44732052800051997 0.09118983004195907
Ni 4.434527032103315 7.3148398081002695 6.3826282727307495 -0.626740848345798 1.748527555792537 -0.9479644500145287
Ni 8.119012602088356 7.614641993291899 0.26194598615870746 1.3006874078431212 -0.4958272173516558 -0.35477804058540835
P 0.21997496296486194 6.100201622027595 8.09512078404778 0.4450217046640142 0.4644710716378775 0.015933897621437074
P 8.884749218487771 1.780625789930826 8.104535127902931 0.48093410228990724 0.9124847690506801 0.4272255570228578
P 2.0966362225966773 3.390015889050052 10.480906094414788 -1.2911784399114217 -0.2429787618232138 -0.05031520331478431
P 4.11209377214553 6.635577719491526 4.091975021549773 0.9528539168963461 0.4840065705676438 -0.9204577599538277
P 7.192100586413063 4.237920715369657 10.562439351508544 0.5794693169533439 1.2117748038711131 1.1256724156543905
P 6.4191531781752005 8.255541203339554 10.424664666788438 0.3575843996859519 -0.40196112602911416 0.8653479634638774
P 2.86365557197879 -0.0417923568141127 6.086976644975988 -0.6872332493039002 -0.03646981279125977 -0.7220547278584597
P 7.137767682217398 4.329755234552314 1.4878062533542915 -0.10659536596375191 -0.021190260924369958 1.6470517704435377
Ni 2.7262748695319425 2.1379493870179678 0.20342404253669163 0.5106041185505142 -2.0864201334765164 -0.4489025277756592
Ni 1.9003964010009333 1.7028921711793883 7.005687415702623 -1.2914707743408596 -0.3586879171627758 0.9267587624711912
Ni 7.035836221985226 0.7336188149883727 8.985938526065668 0.5110111241809459 0.652915706968953 0.009918801775608724
Ni 3.2492176194421614 1.8547585939522642 9.353977524747554 -2.269689909474872 -0.7032252538567825 0.8637119705223512
Ni 6.733624331261816 2.399590265974363 2.8218403092185578 0.025707946289065406 0.6026796936315363 -1.1620213865970699
Ni 4.362080105716278 7.2783002428503005 10.726229693593433 0.38021267860842906 0.8288244146165469 -1.2489601546721587
Ni 7.688655686393516 6.458029149929367 11.057471664190967 -0.024072467568171448 -0.4915483874706438 1.745854379835748
Ni 8.097481012735942 4.293288968329928 8.404303412294304 -0.346599618539674 -1.208481477831822 -0.9285472218301815
Ni 3.1301983234047763 8.982575933175314 12.566654662701902 1.065469778022565 -0.48717956897898684 0.9234428107240805
Ni 0.48619611490732945 5.165822267917316 10.140330408892444 -0.4713217760111238 -0.40789008991903947 1.2321381980188135
Ni 8.717150991919961 2.698595324241031 6.027140816284553 0.32020004550022274 -1.9401007094502654 -0.15431118398247617
Ni 4.077450819234264 3.2556679338694376 11.381646692291683 -0.43051991150341334 -0.758209580512462 0.7516707509526795
Ni 1.3225251922959396 3.94589738948024 12.569443690701423 -0.9081506604517006 0.22399296474933034 -0.18908278313570662
Ni 3.3116867156995045 8.722346060499884 8.422152641748532 0.6506986447129762 -0.07914241195912176 -0.4204154760795598
Ni 5.803193962262555 8.362942603505084 3.735615306675343 0.038096806871721484 -0.2440102884115217 0.07662041686821643
Ni 3.3324395028838527 8.635358439516134 3.815016478304287 -0.6762469254957257 0.7430850661661976 0.013302116425544831
Ni 3.9745756340219653 2.829736446964902 6.842151787738584 0.36081267681526247 0.3345717408408625 0.016137786102127048
Ni 5.478955713750547 5.082270538851502 11.754084548866373 0.19652304146383573 0.5805085568511358 -0.2594181383261597
Ni 8.15087019195148 0.1357351392776163 2.664714681216624 -0.11068959063778355 -0.1853387427122421 -0.35709820407815274
Ni 4.788460549164758 0.41002376544340313 1.6885951958493857 -1.0267628483706703 0.031230161658875245 -0.78448651193112
Ni 5.920096748878489 6.121220118186929 0.5908048221219585 0.07220968939503047 -0.05047615437268081 -0.4229657533052393
Ni 7.923908915420144 0.11543314111290208 11.657492006555756 0.3431229728449833 0.4559740899104599 -0.20441632816898345
Ni 0.12538989777216505 4.8546587334503695 5.90182421753997 0.9534303582251062 2.4250362195900816 0.9233281395230872
Ni 7.265207204048344 6.3853898135949265 2.616290594881968 1.6118250860307595 0.7261846908664332 0.40768800121056237
P 8.955537754375749 1.8591656979856732 3.612994279670114 -2.309789348598919 1.7035003403495694 2.0678130598982905
P 1.948361452175353 3.475931511755406 1.5484199679759483 -0.21260169219325317 1.9675102118114693 1.4331920374734672
P 4.952787806626689 1.5041235331320422 8.314872184978514 0.07101772596945834 -2.4862996943862536 -1.9636890382931662
P 8.559136613208588 2.1687166538458 12.666572232151239 0.028142780982803144 -1.2946851675130993 -0.580807319038477
P 6.5920472594858595 8.213265989181242 1.587362825092784 -1.30582781439348 -0.03954510928247383 0.06863559889052695
P 2.0963155393510027 3.962215585495835 6.309315501580392 0.8931629287936166 -0.9685245335540674 -1.2947422460032798
P 7.045914838277846 4.4145896966008245 6.166726903223795 -1.0404488304981954 -1.1771225039045663 1.1854631625597776
P 2.471130116895063 8.754212812741457 10.512782009034808 0.5170339333362579 2.139230335299012 0.26128655899346614
