# total energy = -381170.8415241079 ev
CRYSTAL
PRIMVEC
9.27923630162836 0.00000000000000 0.00000000000000
0.00000000000000 9.27923630162836 0.00000000000000
0.00000000000000 0.00000000000000 13.58110028700711
PRIMCOORD
 96 1
Ni 4.354782628801579 8.976640231654448 6.236495723806309 0.8301166510654091 0.4998738766172036 -0.28359473557236314
Ni 6.286088601258089 2.560670162402616 5.2647138021197515 -0.5924397610710829 -0.2966734231331923 -0.17295579566685698
Ni 6.4936743925339355 0.6958397095974862 7.167072269571383 -2.0318834358812166 1.7219752592253053 0.6752825046999273
Ni 7.562336178947842 2.1796554480144548 2.782142330534406 -0.269859902484774 -0.010039900734505289 0.645217824104063
Ni 4.553376840275615 6.377748895667048 12.15204215656305 1.7305586300189422 1.053411047085818 -0.4193919199110519
Ni 6.101626666397217 4.464973557745331 12.901121483408097 -0.7240185364530498 -0.17119201889821484 0.044132214432524
Ni 1.1430441431644838 6.312859197468844 4.186903616813581 0.15162643806146145 0.6200130427036612 -1.7224449997728721
Ni 6.294337842170172 8.405976489413453 1.513817364645258 0.6066124530270391 -1.5327222690603215 -0.3521061501802001
Ni 3.9502821677897004 2.637446562072562 3.785962670777941 1.2121820666118608 -0.12342323615436807 0.6650813957972095
Ni 2.9576544421560147 8.310493149722403 2.474109736166077 -1.6266017301193019 -1.3693268633883902 0.2911825752219501
Ni 2.2278796381383015 2.4207207232169594 -0.2200598683940859 -0.8855486067814684 1.01021085754926 1.0208307991569516
Ni 0.2924490452257491 8.880609417032225 4.73458918664671 -0.22636069365055853 0.4731721989563013 -0.67658733955428
Ni 3.2169348578651795 3.72257899260227 1.7280044044979963 -0.9019864406225175 0.18471987818132057 0.49952446369758485
Ni 7.1824442521303915 6.588814400488487 6.075165996672922 -1.339796458029441 0.22123571371916737 0.30409105575350204
Ni 7.711091613212877 9.018136975590151 10.004137470785803 -2.2831236663822745 0.8590850132733011 0.7882554920552489
Ni 1.0425592952039031 4.410096155322312 9.585377607625896 0.2724402616174405 -0.66608618291264 1.3763259204140426
Ni 0.9610319266397087 6.786582759947704 9.531569173204081 0.6581849257876923 0.3227197265982829 -0.035630861829732186
Ni 8.998028870914688 3.396154024317359 4.440584941446985 -0.5465427414286523 0.565994936615993 0.49180421223519166
Ni 6.303125278777308 5.049212822432197 8.375994349581017 -0.799366771477062 0.27745905498827056 -0.40494514835810264
Ni 0.7583474278832798 4.505347514110322 0.4019393918423222 0.8643987121767306 0.6724424641479709 -0.1665871731363518
Ni 5.832092694773708 2.143484985612539 11.609449959437057 -0.42812004381266916 0.5711541122194292 -0.020961175632699384
Ni 7.9281236668604915 3.9382006023594047 9.866710127977994 0.44222100199042547 -0.29850867656971813 0.6667050474435614
Ni 2.6421975309668104 2.8952144622939087 10.86250300105275 0.1534400942314325 1.4466134530856958 0.372786561347687
Ni 8.371068003124071 7.7889351250368035 8.30721943521871 0.8311677180377428 -1.3808009254662608 -1.8219502916590622
P -0.06425314260026263 1.9642287022158733 10.021601921090229 -0.32423744879439 0.1756477406767233 -0.04221005770914666
Ni 9.510474685728896 3.0836386309786947 7.70341768494033 -0.6511187629695303 -0.09064269928923743 0.3534405527209074
P 5.949382239350468 3.0199737919485403 7.4820587234892235 0.37807249233697465 -0.12786635952738623 -0.8245417280807928
Ni 7.962688821413373 1.3219292571162864 11.898945423805309 0.8881587907108058 -0.03861205594524318 -0.30584609077139585
P 6.901580333202434 1.549214866678246 0.8132415329313177 0.8411613389153448 0.19708379906331217 -1.6665705572027558
P 6.370910098645444 6.127988976218624 2.6816964553655365 -0.5277425780030137 1.1567341700562015 -1.1140021784053136
P 6.887531569714363 7.704466238622069 12.938944577763268 -1.4002621195146658 0.6067428079573164 -0.8576598507910003
Ni 1.4270722816098997 0.26618787907806796 9.398568953949876 0.2037586399803265 0.061212824063894576 1.2581155959191817
Ni 8.896875917953354 5.236551320490759 2.6048281912579867 0.7655631926640558 -0.16816968713212327 -0.386590814220631
Ni 2.30502720725311 5.881096340731768 11.476600063808021 -1.4378729878889043 -0.9689168838964797 -1.8586227073794315
Ni 8.635294251686037 5.4085883581848355 8.134630282975397 0.6810075801091626 0.22185149292629533 -0.7577421539577401
Ni 2.864008391217038 1.3338809132408802 2.2147513748734915 0.44722976805892656 1.156295539856886 -0.20980741727756766
Ni 7.808050351447258 4.0401701280994375 0.8782815547546904 -0.4224708159466918 -0.843260901756851 0.14175443036338814
Ni 4.1161670719351715 6.538168329736908 7.277799538362962 1.1608517917690007 0.2588121293110446 -1.0628086862506343
Ni 8.063359254096385 6.862486911422221 3.951868917166491 -0.591710339104226 1.4075519683078597 -0.5103233540853017
Ni 4.054701411865831 4.164187118864343 7.2072727042209 -0.7064399041393382 -0.27707056130060026 1.1428440423376705
Ni 1.9944418950277347 5.549976078969338 7.790526514031654 -0.6438373988167686 -0.14480581559520223 -0.3309313158747978
Ni 6.802691513854765 -0.0918560862911241 4.258503130651298 -0.7848292399825194 0.21779249236557333 -0.10308092505259021
Ni 4.732568169019431 5.7610323045546545 1.1481273087118848 -0.13913421913172166 1.1438506292253139 0.3311107788754556
Ni 0.1722448925832007 7.1481389161889135 6.141699047588256 0.7507896338993069 -1.10369385450077 1.9017989856565893
Ni 0.5299826431603807 6.73409012120793 12.972368386273194 1.2687802747218795 0.32433720759704787 0.2856333632689468
Ni 0.4877509837238496 3.084241781326597 2.2561738849202206 1.9192027829553335 -0.2443393896161663 0.06368031176778065
Ni 2.4549982214500727 1.0253834291428603 4.584829739033321 0.08564318919211701 -0.5483139743964622 -1.0626333370150345
Ni 1.3918204635840203 0.6682692432330504 11.983080257719665 -2.417830445870262 1.510056966252322 -0.900517826496791
Ni 8.482326044221805 -0.23230474838012172 2.366316561836141 0.049698138556075695 1.2066518808222508 1.8142038149444237
Ni 8.068277249240822 5.325214421632447 11.942974471278589 0.41203008022934196 0.2303235349530485 0.07174483394346999
Ni 3.6249335908948925 0.7031925763002256 8.574019743880802 -0.2642836939485771 0.4270532931110516 -1.9640320234548818
Ni 5.2895264795088535 5.110891904932334 5.6565963578535055 1.209391134130285 -0.3399895694223241 -0.282414599221333
Ni 5.345897838947447 8.928221177572048 12.008599084977622 0.9268639205904877 -0.980112752612299 -0.08603939618927117
Ni 3.9924006205455482 2.0633958986471894 6.279248876312873 0.5909852880127435 -0.4363971962197968 0.14437875536011263
Ni 1.859744503486892 3.1840585242864243 5.921550098527404 0.802203983815541 -0.49224412798608774 -0.04900085537873496
Ni 2.2119750274259147 5.884520378860629 2.0029407473914893 1.5160972589091308 -1.5641131246667772 0.6386106032001905
P 8.0096139184802 6.477556359390753 10.074364585601138 -0.4118678436198649 -0.3208927006918732 0.027066774309805
Ni 3.7366648730348273 0.9228191043674336 10.981419195721623 -0.9260460526748826 0.35263682587268946 0.4943570605640325
P 7.649189829045822 8.66680653755492 6.214208854489501 1.900002812988115 -0.8964521410678497 -0.8275175228796652
Ni 3.8907929850142566 5.2199414878331325 9.40906748169783 -0.19412471643498824 -0.6127291074477383 1.1875555263124322
P 4.490918301941266 9.052266006045318 3.5733503172950343 0.9380582466444103 0.7973384281931235 1.6889882627763233
P 0.6544366859466123 4.8959198417037095 5.64359893181801 -0.8055106795912708 0.2677456843552486 1.6099096141756015
P 5.12514481161508 9.221537831375166 9.689177926652716 2.5487332782311265 -1.510655261957953 0.5437379249900055
Ni 8.411757453517197 1.6117754766099326 5.985679827287249 0.6368370562395355 0.005208026563500709 -1.453418391822671
Ni 1.928624273217374 0.7493113077480861 6.738249074837622 -0.6749636879079278 0.33537083970339016 1.1341007489274018
Ni 6.051620862938027 7.750695392979777 7.847580825248797 -0.8519723134879198 0.38499261649557565 0.09287313128165296
Ni 5.606802120977887 3.857248546434748 1.865296270458433 0.38591487119952894 -1.3629348438191171 0.4840520790935986
Ni 1.2703274250441847 0.3600928207048368 1.0265563245886278 0.3115315711919473 -0.8126182371703295 -0.3893778900474649
Ni 3.8734408134669036 4.883327918286726 3.8547505760708187 0.2328496438090119 -0.19195933335255327 -2.5722267333673763
Ni 2.510070487831645 2.828385403746296 8.493823945700054 -0.5914198044470008 0.07677751127137099 -0.999197280047576
Ni 7.526007969531859 4.365741406661163 6.186720973326547 1.0595302726096787 -1.3211071091500537 0.8119944875434016
Ni 2.8257501006877677 5.578908737196421 5.620334958937599 -0.22452544021403265 -1.8464835009137361 0.12461468535930798
Ni 5.663906540070085 6.980509515652586 10.027985107618262 0.6813356528725427 0.16090297826738093 0.4558486200761891
Ni 4.733950775201546 2.857234548848285 9.361805548359792 0.1817872779155579 0.028449256479628426 0.47969045969079316
Ni 5.3436244260976595 1.1216369454320005 2.095427821738881 -1.089833294468594 0.9126302934896089 1.5401399016806314
Ni 4.050210261582986 8.001049183539982 0.4981910522842384 0.5419026715534797 1.2271988517356671 -0.6647880329265067
Ni 7.83351257536487 6.41213774473362 0.6131292384277907 -0.19653204032490024 -0.6442875989803097 1.5614715732788722
Ni 3.414601145727058 7.533737573221134 9.140107894790248 -0.6960631888907045 1.2657268326075364 0.8578220874004774
Ni 8.587812400451917 8.836700071704913 0.11837892689743378 -0.6512028380429042 -0.24761394660237998 -1.513784294505238
Ni 6.964818327370996 1.8379011816566946 9.164472385074678 -0.09052725675729571 0.3744978876118389 0.6315457259336091
Ni 3.4407221954093035 4.564177871121133 12.921180408132116 -1.2601747924410556 -3.051714333018744 2.7082242066423294
Ni 6.9146269391893735 4.4756354000490255 3.7602397003253114 -0.21527332548814537 -0.8712954392965641 1.0414757291008128
Ni 4.730062775266603 6.997824570255452 4.386545454045744 0.7678938976797614 0.9378155345059849 -0.27576444089466706
Ni 0.6700378656378233 7.368891943521281 1.9254878914082802 -1.3458874014185271 0.9423589309022932 -0.5754409125202412
Ni 4.462375371631289 2.4132787758474525 13.859240657829243 1.6666602887030846 -0.743239589466191 -1.0503362648152361
Ni 9.372770821684663 8.148486966275753 11.134125728727227 0.23164148243352367 -0.31652542486211294 1.3660479355268023
Ni 9.02453964851404 2.0556384572495494 13.983371783198443 -0.5869597117931182 -0.5030101082533402 -1.1122965085681167
Ni 8.887652357248504 0.6727037901755529 8.01196620483702 -0.05733405783477868 1.1488470539986408 0.27894592394644213
P 3.0773844258327503 0.4857698668118925 13.212929798954297 1.4700071494192877 -0.13367525289967946 0.4802432468704697
Ni 2.654483239591781 8.105477706852234 11.680275584982233 0.6060139002110918 -0.464168195685478 0.12091743901337884
P 0.3406472534884555 1.4641892260962162 3.7087677775589114 0.3615233297290419 -0.47190335954620666 -0.2333373820787078
Ni 2.663066533004242 7.708576940223929 5.493758754850362 -1.603665947258735 1.947124449066266 -0.06037207333015409
P 4.611334949090999 4.056761402284821 11.361758381720133 0.9042351274473782 -0.35411958106580305 -2.400888932919917
P 1.7345490497345464 8.122996904649774 7.639504162382118 -0.038193223240269705 -1.2281213635499364 0.557449361038827
P 2.7269076775207064 6.440058966223452 13.604052385249695 -1.3882247287341576 0.5701395549119859 -0.6225900594022181
Ni 0.5770200189842776 3.382856878955136 11.948610679298836 -1.209177475457582 -0.4150115314551691 -1.0637407111466004
