# total energy = -381169.0677893711 ev
CRYSTAL
PRIMVEC
9.24874037815533 0.00000000000000 0.00000000000000
0.00000000000000 9.24874037815533 0.00000000000000
0.00000000000000 0.00000000000000 13.53646642044188
PRIMCOORD
 96 1
Ni 0.6271644698004168 6.170269257020101 9.127002700900473 -1.3307821703459726 0.5400715318820118 -0.8943446078065436
Ni 9.074641883312006 1.3126366971174792 6.452318837190716 1.4730873310065082 -0.3998764755859436 -0.20689230051330174
Ni 6.414149286516394 4.741514627090382 10.711148189018827 -1.0731851443889517 -0.6635240786124186 0.7737827523603706
Ni 2.2886007546307248 3.2000456007303355 5.501869279179591 -0.658202409289189 -0.7644524760983802 -1.2049631802659184
Ni 2.0069303728070076 3.773606222263673 1.3269158270632233 3.580533431915388 1.0249278520444605 -0.1456725344708717
Ni 6.874930770438226 6.274169604070098 4.7285719400989485 -0.17934601546391693 -0.7811265943199515 -1.340782218981478
Ni 6.538729816582572 1.9383972081603573 9.089466688927676 -0.4971629054439437 -0.22793060924083974 -0.2508005718604777
Ni 6.537287013116327 6.916226395289412 11.386185062804064 -1.4840214614205087 0.9798800677762027 0.18608641951154406
Ni 2.762053012583044 5.1992717729772 6.479770947758082 -0.4993959085395206 0.030037169792038593 0.10804109727134296
Ni 2.103588956305273 -0.04225841870270052 8.494214072203752 -0.8293700027073717 -0.6462316100805581 1.7672572709915566
Ni 3.998961025202983 4.290916006093782 12.313107675575221 0.14192103784823945 1.2066048296343994 -0.3445244811782002
Ni 7.2033257875918855 2.1738331378830478 11.408019488593244 2.8210406138151285 -0.493440205176718 0.007011912541458892
Ni 9.060611544476787 4.9831749589462975 2.986834393631923 0.7613072456011791 0.36401729979548925 -0.2571627666330797
Ni 1.4833499431428334 7.925707887172355 2.97577567501276 -0.1089623235340317 -0.588636842385225 -0.9501696851959636
Ni 0.8681450192539664 8.514556676203792 5.2312890616916095 -0.02911748619124663 1.654965883084292 0.9176208047256649
Ni 2.2887672319537526 8.315699513846488 0.4816373930012108 1.9075556856347087 -1.3037855871524706 -0.6297153575930897
Ni 2.1094989012727776 2.41934094564895 9.718546572816935 1.1913188500096064 -1.1689422820866189 -0.6543979479414342
Ni 6.042155708209655 3.597334483397207 13.301730483756737 0.34574009875285616 -1.2520575626505597 -0.14970376711745187
Ni 2.620778506513194 0.7261426373328762 6.3850157549864415 0.6658334434718857 0.9639310006461141 -1.3792685479821343
Ni 9.37665024476568 2.841286969604347 1.697892043951455 -1.2960216269363358 -1.2577751818606273 1.6218194782393098
Ni 0.12061929465212172 1.1142974642095953 11.093052717289849 0.8961024710379148 0.3016233109392999 -0.14858225191849894
Ni 5.557558718354608 0.05555995681266176 11.009532894074583 0.2139407227196509 0.2945365792958476 -0.6868966919000881
Ni 0.7316706093314326 4.336882244729929 13.144882948991606 -0.4438102008544163 0.36063141404239185 -1.7405103419150154
Ni 4.801908900388982 5.843224555931004 6.607298126441862 0.7503702869737013 -1.8469678967493224 0.965472376991305
P 1.9128984315165227 1.0984451235612336 13.194101969544922 -0.39028060436739237 0.6132469276244213 -0.4402407383356032
Ni 6.64781870686695 5.564939213008863 2.464706016174162 -0.7609354640840572 0.29289955791305683 -0.08183667096183325
P 7.0662594582985845 9.185404795566836 12.653536228561777 1.64377747056764 -0.8159218476222658 -0.8638438681145252
Ni 4.963179182702565 2.953113486978524 5.236812409320082 -1.5550584706636768 -3.125094645683108 3.080702235610662
P 5.333045550770608 2.544531892566232 1.989318921778647 0.009533650522048099 0.11091584771597672 -0.04774050060907262
P 4.908815087993656 1.5246825629546932 7.023611667634801 1.2015323002074987 -0.9153029552257655 -0.6068898750581418
P 0.5070621797236996 4.463183040467399 6.160107666197257 2.254086912830292 0.16839800109284547 -0.23600952959423224
Ni 4.705435291694082 4.265999900080545 3.614926512071214 0.42813932708637875 1.7682893118004965 -1.202529374013445
Ni 6.287006855423613 8.576107042023423 8.71675355863585 -0.9566342098743846 1.0607865136142829 1.5290509908563215
Ni 7.185753181272231 2.868441270738296 6.710594530758872 -0.024074781561016605 0.5280665370013358 0.9053833821192084
Ni 5.2060510995205185 2.568088433774737 11.188146413951648 -3.852741780027681 -0.1136882682547913 -0.7008873497522251
Ni 7.185318490484324 1.72290156224039 4.481883068213562 -0.4858793621103245 -1.0862391493594323 0.8462243552605491
Ni 0.22580151708943583 1.0257407770987075 3.713838088674462 0.06930048616803548 -1.8033961828059586 -0.8632553426009069
Ni 4.353566971993432 6.5632482267685734 3.157610531090421 -0.2009628224027442 0.2391874131015816 -0.5396287879176384
Ni 4.679649804105032 4.74693438882897 1.3357474490498746 -1.859759649197352 -0.15120811957712021 -0.15653261711382718
Ni 4.318421759354123 0.9200360008418876 8.942987916765158 -0.595139419390433 -0.02544055156029167 0.751023604286984
Ni 5.894619805045908 5.95159204448226 13.412350040538957 -1.0996194273210804 -0.4521081791971504 -0.514652577588275
Ni 3.961660856104475 8.040235036675659 7.359952277466995 2.115533763013021 0.89321383663621 1.638032854774379
Ni 3.4803471690091525 2.3086797695359715 3.3262076653652826 -0.6934123815314187 -1.3141021385871303 -0.25510511277310255
Ni 5.8598537907534975 7.684149291458291 1.7647086424228806 0.1961674578966299 -0.9760558089341062 -1.4585824525221138
Ni 7.847158336923503 8.643178905723492 4.886474756117274 -1.1279437281870701 -0.026357149837290088 -0.7615725834474238
Ni 0.8275254773090778 7.433600920300698 12.163029293739225 2.181835571564049 -0.9889007832175744 1.2304934633265388
Ni 2.24529815316303 2.8717708171988625 11.861192958852682 0.5367658645475465 -0.5990192140608135 2.0515819427514086
Ni 3.558378789808584 4.39753548275324 9.74487496145386 1.441737098830001 -0.5211471841736831 -0.2831116252883576
Ni 5.071629909915335 6.585139994746795 9.221500778695438 -0.4411190271754984 1.0361180643333252 1.2620015612371491
Ni 3.6064352437227543 7.36117403604322 11.396959845100062 -0.04371698127197632 0.1973187978922537 -1.7698684833621585
Ni 2.160801662985999 5.808042348331024 4.134375529502236 0.6165261125963252 -1.0656525834573323 -0.7707174831714855
Ni 0.16240972710230936 8.730995693620919 0.3527904190954237 -1.6951625099078353 2.0796684165749797 0.511229667949655
Ni 6.9266034817581765 0.575963444229046 6.885594567852205 -0.8020060088721219 -0.2456701926124479 -0.07835308328860699
Ni 8.096411884457542 7.408842042870323 2.591164040494493 0.893463490753171 0.45319781271690335 0.23596479239922585
Ni 2.8659718571133768 6.638181519611646 8.83484517259999 -0.783754775971418 0.003475103032794015 0.26841211429465384
Ni 0.5320282289338438 6.393071407672977 0.8052739333383117 0.761193088620818 -0.3131673070231574 1.2793336247576934
P 4.987040932336622 7.284982914537267 5.106550378168554 0.7462950884630631 0.6493421306850817 -0.27342730812105814
Ni 8.836375839097833 5.865255055011748 10.991312875943153 -1.5719195080850736 -1.3947638154042559 2.1111477181301836
P 1.597090949731836 2.0753618013118076 7.7574779278821735 -1.0781270617752594 -0.920070551817738 -1.4066880776456678
Ni 7.952649467282436 4.2094161077312595 9.05011607413387 0.31524115883305065 0.5844587997481354 -0.9442934289208448
P 8.506288302493386 8.03965236604506 6.889330134006157 1.4632011822410478 0.3680166507628694 0.371692814062876
P 1.2351692494683097 7.90100450218299 10.191294076768434 1.3391089450441132 1.3595677271190973 -1.248356716760205
P 2.7155503470171385 0.16752243066731184 3.968120176237973 -0.0949734654541074 0.956154956245121 -0.029101545351646656
Ni 6.566078341260054 7.250984545678821 6.84177681155714 -0.18458103861061115 0.8731558895440705 0.3426470616498292
Ni 8.861069975347032 2.2099864632006936 8.868794523135545 1.1849206597927464 -1.0703499889330017 -0.1211534662835849
Ni 5.115589171934975 0.2077119061943773 5.050238498780215 -0.6754413988752949 0.2872143346028215 0.9759010285237967
Ni 7.462484735846109 6.599161084841845 9.167964446231588 0.47818636434144096 0.07627151816922993 -0.8776329514788177
Ni 4.002558785128428 0.13413447865996928 1.6001726299558932 -0.3578672210336934 0.19324437071256398 0.3226119973758251
Ni 7.955174373348365 4.56228329137008 0.8755125656719854 -0.04922736956724426 0.7337154520258397 -0.48169592015659624
Ni 1.3734286662433135 4.250591498960259 8.270672947211432 0.007941109223947614 -0.6013810294247707 -0.6133898809601889
Ni 1.093931738359133 6.616178766751405 6.9200849696876015 -1.0414389623256064 1.0892581386914142 -0.3036362276042706
Ni 2.837966671883949 6.144705739195088 13.160923963939398 0.06630592231608581 -0.8136477068761083 0.5143612716001013
Ni 7.965569957297466 5.210065052753535 6.611616363226412 -1.5367774129663017 0.6346876139967004 0.9523422673672503
Ni 2.063264449171751 5.55419217693337 10.968097613246856 -0.3351196429245325 -0.17471982954581525 0.4861518990454208
Ni 8.580657422186196 -0.1839602165683229 8.910270498420013 0.7921278305264615 0.13579049947046937 -1.514641757409527
Ni 7.69161302477406 0.5869056287220895 1.5833473218418326 1.2792055838202614 0.017858368337659566 0.9037998396821724
Ni 8.373541134858653 8.185615983380206 10.970209100627265 -1.5395804296327356 1.1440316348878685 0.5097111744225995
Ni 2.6068036601189855 0.4465273255745421 11.231693182159784 0.29146128280463357 -0.7610203104883796 -0.3752936440402569
Ni 3.906677095804295 2.2939002827471255 0.1411108033688719 -1.1720008664072847 0.1987053938271352 0.36816448919464334
Ni 0.05507717257587968 6.535807214689409 4.695448502060417 -1.3336666909826191 -0.9933228235446699 0.15520309966912624
Ni 2.949608214454761 7.7566594143772845 5.5056464646643 -0.29070357870300256 -0.9900456954552951 -2.0186437972624915
Ni 4.943063172836645 8.193458915042873 12.986628680846886 0.32209906229514845 -0.14843827014146696 1.3909868648603272
Ni 5.825929411816397 0.24166403135198244 2.889169547203353 0.7567939311118579 2.1171126774643665 1.1916811184450316
Ni 1.7389111314716115 0.9155050430334676 1.7866244571255396 -0.5104979319899531 1.0630120605106919 0.6205650585523893
Ni 7.347939088862469 3.319298856459608 2.881751132714409 -1.2367157900871668 -0.07901257124947683 -0.5958367025677739
Ni 0.46835157774953556 3.639148037697815 10.700359533612575 -2.068500315773302 0.6771509253672338 0.392331316248834
Ni 9.215296723790583 2.972323120307956 4.568042481872842 -0.6463303404419515 2.0744295367735437 1.1724621223144194
Ni 8.623451342944637 1.9642659344109215 13.30683393858157 0.46321791595706674 -0.3304330360821406 -0.49054797123058747
P 6.65722467561805 3.998850040320964 4.955754294095502 1.5908844792233505 1.4873764939356706 -1.0000228612726647
Ni 3.570513136909314 3.0849727755571066 7.443039259642386 0.11667717567978617 0.6309831685619197 1.2220306772711662
P 6.007139977932702 4.957870405845995 8.46493441057914 0.40593450885456545 -1.1669316794144935 -1.1204253083228382
Ni 7.6955899830464025 7.182895320560245 0.13044515620685876 0.10319713891548034 0.9172035146825881 -0.5092005533347682
P 7.914701886372151 4.234424701146178 12.283774371257635 0.38162318580271054 -0.7602844607636197 -0.7181530788112083
P 2.6444367838635494 6.309453547811929 1.711090921045549 -0.04119678595328389 -0.1837901672781996 1.134903447334355
P 1.6024274728089096 3.6746909461643575 3.40623516429302 0.8295697774230036 0.09846836598124332 -0.023190064963218127
Ni 5.846665087273589 1.0729648443977353 0.2959162163048552 -0.4700917602587646 0.7882122975221393 0.20585434616709064
