# total energy = -340862.9419261726 ev
CRYSTAL
PRIMVEC
9.32528335979251 0.00000000000000 0.00000000000000
0.00000000000000 9.32528335979251 0.00000000000000
0.00000000000000 0.00000000000000 13.64849481114036
PRIMCOORD
 96 1
Ni 4.3755069620417055 1.6087419637084175 0.55377263742572 2.003079110055015 0.818545658398358 0.9445767644892183
Ni 8.299548972317089 3.4173340788493856 4.931610920351105 -0.4904374137946521 -0.7229294171539291 1.62482201251106
Ni 0.7729158679632498 2.0662683497723084 8.56538576256966 0.39665256933200715 0.7074176946715752 0.10206791040704356
Ni 2.854581193379732 3.9259350428329296 1.277714913849689 -0.9774382911039295 0.5159715535100146 1.1325688856639076
Ni 7.164251653666325 2.538715189491749 11.538915610076492 -3.2045260496375585 -2.748654289632918 1.627327809652049
Ni 4.026741357843236 7.245111187195868 10.434233197270212 1.6220169389620969 -0.4392274665797404 -1.2942372813424032
Ni 5.199936628779094 7.08858630306562 7.236145859605591 -0.9696573616069301 -1.0927201290980857 0.4161093925050382
Ni 3.013549301796077 8.45629766325217 4.089607756792541 -0.07094702063252296 -0.2608098764673637 -0.6293934554772967
Ni 0.09622946585146656 5.2558603541368 5.8138498847769196 0.7186572721411365 1.159952419883183 -0.501860053809297
Ni 8.48212869864334 1.5715807088225646 1.8546254447817525 1.0761244295229337 0.6943235804917784 -0.07232744591981737
Ni 2.3566297031928363 0.7898319322952292 9.647438509822239 0.4129739321998501 -0.785300523191983 0.5149384842598099
Ni 4.5931217786078955 1.158517274652211 4.119539119353926 -0.17971676853977434 -2.567671509896526 0.48414181059392747
Ni 2.7899476532005982 7.213563752997917 12.421700103589089 0.22507745606276078 -0.11785602647923575 0.6394989193424148
Ni 3.25241643953789 8.115290694954586 6.441324900619287 0.47590862405085776 1.9507844144163564 -0.14271885115918648
Ni 0.7094666387930257 0.015781177325804023 3.1198957677543597 -1.2686365500551635 -0.33818902587847566 0.3547209620952278
Ni -0.1886495533790006 3.0417303086379963 13.440150687021475 0.7300981669882264 -0.7847850170081452 -0.7226288551943748
Ni 7.473804440601303 1.2456620492841548 9.095125279269704 0.031711986391300226 -1.2755011383854806 2.555378551461786
Ni 9.37368175626363 5.550259555327862 10.18853342428251 0.35515419297790446 0.057602995225449184 0.4651647552707924
Ni 4.992784780338858 4.587582560188273 3.8525198831491516 0.3302713136932957 0.704342398180361 1.9635455707367668
Ni 4.30713398316515 2.011044020679706 11.711432422940431 -0.19808318686210405 -0.10938629844532774 -0.09496215260019775
Ni 7.8067916650590305 4.164485120934562 1.2449915613980085 0.2715329193118227 0.8089161057283941 1.8017445061351487
Ni 6.378344733210859 0.6977708681837818 1.9616843624020874 -3.0351551431084824 -1.871326785209661 1.7908445713931933
Ni 1.7135395000715832 3.2295788201613647 5.906181382110875 0.19995237886035885 1.513876339998412 1.0313759216626495
Ni 3.8278330600476913 4.711487602514076 10.772075164336112 1.010238625463402 -2.119600991103859 0.9110097271670504
P 9.197126163100808 7.553843349179792 2.0161011219405838 -0.6235771059058357 1.8116237129220734 -1.9977744100126498
P 0.14482258582253088 1.1690734956135123 10.374794772548269 -0.7493834975803997 0.3499721345563328 0.6726720636602738
P 6.7026967451154364 6.042205562918398 0.9464137006550399 1.0448161063279553 1.8227190515042866 -1.00267701106606
P 6.2076081169737 8.314851762597561 10.259914739627366 1.128705031833127 -1.007487030860194 0.11115007521396987
P 2.1363758313863217 6.438259679921425 5.074073276910999 0.7845890989472553 -0.3467006628939126 0.4564777690197558
P 8.257706425096806 4.192377043986905 11.801566883473605 2.0255284401974665 3.0770625819755457 1.4385694997352967
P 5.293357319229903 2.957122011127496 10.078171491234178 0.43101227775879963 1.2481996223570502 1.2457221073508353
P 6.741816309543579 6.51892338249674 4.728848482870662 -2.7497272109821225 -2.43466217271562 1.7410839550302983
Ni 5.330639802801707 8.798917905601261 12.111265144831727 0.9611850624698607 0.5251254520951408 1.4470968204800174
Ni 3.3887427595319393 6.2724374881070615 2.8393781836330807 -0.13799444910032366 0.20096796460906677 -0.9416045692347718
Ni 6.695143265452314 0.9334422312582468 6.984167373213964 0.6067919160276969 1.3033335872167167 -3.2904338053449713
Ni 8.252325736497273 3.4086335893114934 9.856642853168468 1.3834136804987593 0.6723313924914034 -2.0440223852365955
Ni 5.036669564653243 2.7512570518150516 2.6050198204803037 -0.8139665236681078 -0.15030643369845728 -2.0325321252088093
Ni 1.6314303785483872 8.074651109310283 10.572860997240628 -0.7444012138744599 -0.6931622131938255 -1.0777419105216988
Ni 1.923600836974651 0.9482974079290531 5.389462758810358 -0.5060558370581995 -0.8768690767295996 -0.7270935758339478
Ni 9.08378666701984 6.757771869671483 8.022694359568245 -0.8262016322817191 -0.7660414178520549 -0.2161269317376923
Ni 5.949596172135109 7.138691051497662 2.7803211630077085 -0.3544707937576347 -0.4684351984919481 -0.8369922951393197
Ni 6.0313602581675205 2.8768872715947786 5.531366530886522 -1.7802557401337535 -1.6779196636669875 -0.5272319569151823
Ni 8.011295132975405 6.363228448601081 12.640198957034368 -2.0662601135888736 -1.555347205548689 1.0829622783803736
Ni 5.278166432351847 5.075845080782595 9.038033095885096 0.47690081276079804 -0.011338822051586922 -1.1423822722099035
Ni 2.441172723718594 6.949639578398315 8.198610238280589 -0.9755040501956942 -1.5376407894078614 1.362000762040622
Ni 3.566594567106089 1.6031374683040518 6.933121703673268 0.4132043030431013 -0.8171480067198829 0.6358055296512276
Ni 1.4306103976282256 4.597187602229033 12.148702428110205 -0.015711754308301976 1.0725673082992948 0.9082622463289004
Ni 4.357639718789185 4.0012367073757815 6.903272403606988 -0.24532386501662265 0.5797320836964274 -1.3319191121638931
Ni 4.85626262939058 0.5280245970580089 9.645486727978422 0.20645367031398637 1.5317449927487168 1.6717893823995336
Ni 0.9684679962146492 6.320593252280348 0.11367893640163171 -0.9091991563208729 0.37887030564792173 1.5879955877113296
Ni 0.54726452204684 0.3506735572096732 12.31525572215369 1.5040256724565775 -0.0053211551025972885 0.32568626542577456
Ni 0.49729219264099084 4.430600737164823 8.039960122032777 -0.7295448655879176 -0.3451808838152765 0.0294895248186847
Ni 4.71499390912313 7.921940266145734 0.5572574958826443 -0.17415778639475812 -0.9312697629676671 1.4138982222408618
Ni 2.1902573196499246 8.214576988748734 1.7245825008333968 -0.03672538044549159 -1.5654272154925104 -0.1885338526107721
Ni 0.8659924554516282 7.9867230108614224 6.0555099449373815 -0.35389589509077113 -0.7867801930613031 0.5614919065393169
Ni 7.128908829069743 8.222932442795841 7.023938774961184 2.6604811349300954 -2.452491744697873 -0.13900257864986384
P 9.099891431684298 0.14126965279580317 5.026167430336443 -1.2698696511313163 1.5738573485377347 -0.0041531029364251055
P 0.34857909852777536 4.443152568802554 2.2795441119097934 2.680250861357855 -1.0943170412715606 0.024559434506918994
P 1.0146281497115055 1.2308814748816261 0.5578496513870989 0.41515397057030434 0.5913753243623107 1.4533949947839033
P 4.977220882119414 9.230743810243467 7.749506448305255 -0.449934054363967 -1.0008263310105667 -2.9225451955195347
P 1.7531439792435324 9.399512791654802 7.624581219960753 0.2137707728006899 0.15379747757085124 -0.4593872293570669
P 3.0740330908022613 6.051055256992846 0.49923371667291916 1.3916813198241902 -0.5453199247651447 1.6537633781357584
P 0.21885787686136754 7.496735312813177 12.070811132329764 1.2750270269625397 1.414538684038338 0.2608708116122862
P 2.242208474221841 5.859122271281271 10.483954676548978 -1.7182013940051697 1.652183178132832 -0.8833161179065239
Ni 7.759512477538008 8.556190100476073 0.6498892673464165 0.06763981063616092 -1.1658014224647921 -0.43915084770553403
Ni 8.172902296632076 5.200244363135739 3.5335131237666757 -1.4704249536829967 1.0732638201456872 0.030173695369902876
Ni 6.0096789739493 8.547713417743015 4.758152253850161 -1.509689555610574 0.31622126335813283 1.300738829906347
Ni 6.136325649634312 3.3100933182001238 0.16137403156830266 -0.6913423863762674 -0.7524482525486524 -1.2169722889116525
Ni 5.615536540070891 2.460093724010538 8.106018565536015 -0.5820000537949976 1.1523699795502347 0.17459590237344125
Ni 5.053436424448667 5.051552717174654 1.5611149431115499 -1.1556273101452679 -0.07084520494733605 -0.39344331836609014
Ni 8.072478318246693 7.762319387881958 3.9515944930070606 2.7674752789941626 2.1203653800737094 -0.8811561341407277
Ni 2.415444266446306 4.180692463717903 3.716239257044423 -0.20447366376948012 0.07358240137284103 0.00861268136967549
Ni 9.250765193992509 1.8090304034671 6.578683529500629 -1.373551442992699 -1.3805281314208482 -2.5257869538475983
Ni 6.338432519682264 5.18002714843247 11.187985607569614 -0.005989899034847748 -0.4783961663594019 0.10277110712165526
Ni 6.6414855839935445 4.824491388387795 6.243040464292216 0.6082152787377847 1.369106519847468 -0.4903859917314264
Ni 2.5053493250045262 2.5343043303798267 13.16958318043174 -1.7416547399321038 -0.13537732319245074 -0.6653791295432864
Ni 4.300550332989639 6.515519654006568 5.037304616461958 0.8564388338997057 -0.02357213089298521 0.05846585744637672
Ni 9.207104216482955 8.938647954085482 8.853887654453365 1.903723713483128 1.7109745372394276 -2.787346049776161
Ni 8.312166080939562 7.71305391496804 10.271092957000434 -1.5953479143113427 -2.4490516086680727 0.7117649158966775
Ni 7.676461502377806 9.28794509944543 11.79225838544925 -0.9034182879730378 1.1030953016848226 0.7266834848797227
Ni 3.1626139590985516 2.8654451486976793 9.161224754020495 1.5681389579967189 1.3792688050924504 -0.9538759304029572
Ni 1.510192367313513 2.9501933254612003 10.742075727204922 -0.5819733143221204 -1.2319139978231493 -0.06579581544888669
Ni 2.9295471477153336 0.11176632074866096 13.613964646825092 -1.3907562369067596 -0.13577635840308228 -2.1470737426028315
Ni 6.968980216449322 1.2550805856542204 4.16171271413969 2.5265364304191134 -0.305644516283551 0.2925257195134059
Ni 4.1918734786760306 4.304159217717575 13.0716415925233 -0.3511458431494598 0.4594692475479119 -0.6015972592006349
Ni 0.5971370709188677 2.4894124154436925 3.7608290327940326 -0.660877642128507 0.3210297404903697 -0.04685167024621609
Ni 0.9197424572173919 6.461022697029673 3.3298507964251316 1.004286264534709 -1.380703737766764 0.4776793427980355
Ni 2.328392744649709 1.6109240800555416 2.7392805901714126 1.9816078275551163 0.24787465646293438 -1.448089780520906
P 7.873150382692087 2.8453211868297563 7.7999916683055135 -0.025753969035652424 1.3760096747252044 -1.6901118348578055
P 6.9330592242735865 3.299415868552871 3.2446428831833485 0.6595897765550189 0.10264615150801677 0.10277367822481655
P 6.971031778826959 5.988613158444371 7.900404456350655 1.0450914714765291 1.3232799484316566 1.5209998384170709
P 2.5518451887086324 4.516178864162933 7.726085066179456 -0.5364465335349148 0.6462730048414547 0.5617389895531165
P 3.6604721964500997 2.7363272728759673 4.9563145289629285 -0.47392296107939674 2.052604213368336 0.516450292918646
P 6.969931395369862 1.3508698981228482 13.807499716247932 0.7756403743943997 -0.1873614295692257 -2.744214251583693
P 3.5086845563554876 -0.17641478138145003 11.318369856895341 -2.68107669969326 1.0252243002389572 0.2633223584765723
P 3.9175516129352177 9.50983089587052 2.275463367835001 1.333608326940858 -0.7430223312490623 -0.9730465897941372
