# total energy = -381167.16652562656 ev
CRYSTAL
PRIMVEC
9.26829516361303 0.00000000000000 0.00000000000000
0.00000000000000 9.26829516361303 0.00000000000000
0.00000000000000 0.00000000000000 13.56508682558011
PRIMCOORD
 96 1
Ni 7.552631956191602 3.575328358572169 7.287070269076951 0.2550151241624576 -0.8143761004017006 0.3658132153536474
Ni 2.4857660899613863 8.999727987489141 5.8577026331876265 -0.29796154581699646 0.9945350986852164 -0.1813414486273909
Ni 0.47206116190243247 0.7825166181922731 10.746045374243032 -1.2361732873201356 0.8558798760724422 -0.006593594057117677
Ni 0.35702400644070137 8.002811599524792 6.647584765720607 0.016268912363352626 1.0015539532052107 0.1536619804342515
Ni 7.837937892960225 8.480193689806487 3.082964068804183 -1.6263279076326247 0.4290027035279386 0.7677046644870907
Ni 6.431659434528521 8.298757539392863 12.513928230693615 -0.44604731771505113 1.2845251962609618 -0.1559255796574476
Ni 1.3208803847746164 0.4197360734893169 13.092696204167721 -0.3808924782842731 0.7702809098546992 -0.0898464286401872
Ni 7.7962491003284065 2.349485074652747 4.851322388807903 0.7953761622604303 0.9480775785536254 -0.8688963429367681
Ni -0.0009509271062749141 1.1292861826214484 6.2535598704527064 0.6826366310721533 -0.12255420328585345 0.10350592840515077
Ni 5.1220771018255356 2.970748182456975 5.511860825126268 0.2266399154538742 0.26869750674555665 -1.0521527491986846
Ni 6.543499954912726 2.0804449962809324 12.305880950576906 0.5583448762699029 -1.6053068252962674 -1.9059564594683882
Ni 0.047555623609128496 2.7947617897284363 8.8173205197194 1.7191946111563747 -0.5398141644555671 -0.636168055196969
Ni 0.8129574075475298 2.474848038000452 3.3802437163778403 -0.022156738602697325 -1.5054618906824717 -0.03792762828370887
Ni 7.5352909755303905 9.094755820048952 0.9841975062105384 -1.2556329387066438 2.1078258528458025 -1.9078621611315336
Ni 4.680368680472222 3.2604380229416603 1.7533149497679026 -1.357848173324829 1.5504942483317619 -1.203628777725211
Ni 1.71768391499828 6.220935470705262 0.5602137729472859 0.8126781438739875 0.2710061002740752 -0.6702238592300973
Ni 1.3630974702432543 7.678374919650001 11.837044228638147 0.12539398672749372 0.8659223479101087 1.5203935722916397
Ni 4.924254605175128 4.812849694673915 7.666254769777918 0.7209360408729842 1.0144971436294399 -0.5264626828493256
Ni 6.463032614399289 3.455767348134095 3.366895517367537 -2.610424070372704 -0.847909456272456 0.27927322537887384
Ni 2.049006938342487 7.533492926226128 2.471464183356193 -0.9076081576846692 -0.13381897756639535 -0.11452207700999632
Ni 7.502953892939814 3.2330594783808793 10.03903292438671 -0.9121911490696611 -0.5510696827647283 0.928030430094763
Ni 4.077762651273564 8.327758035645633 3.358173124582787 0.23409431484939036 0.7274949250374245 -0.36597493774249223
Ni 2.277692858617606 3.9867665272052686 9.125641487582584 0.4610795294578253 -0.4379326590277167 0.5009581108203178
Ni 3.9280796808414014 3.4753512562779445 11.071241127509673 -1.4782189958061187 0.8253886494621204 1.6508302636493635
P 0.9413066156675713 3.8583172214950925 0.39089591874666924 0.7176812813811124 -0.21961103363155082 -0.10072219501242653
Ni 7.067538644151419 5.4565976870768065 8.665337158373228 0.626310959897231 0.38584056631816777 -0.6034543670140318
P 4.963023884761364 3.3206077965667746 13.148191049601753 -0.025275486737337115 -0.15182132768108692 -0.41675628206041776
Ni 8.37938244092781 0.66164599761661 8.485450666947608 -0.28605965217308804 -0.1407028491704222 -0.10805960921410422
P 2.516546098927653 0.8726174249265904 11.152821590298585 0.667268119035883 0.5806435397671033 0.01662321037897782
P 7.637687102919525 5.193257610365411 11.046226925101044 1.092969783215047 0.11676742140074729 -0.45594837887884704
P 2.948893541944341 7.777675436381283 7.610230704677529 -0.14575892353709088 -0.0006399475768440591 0.6227407260474694
Ni 7.63034661297635 6.4297223607935186 13.031965698671947 -0.540378007378837 0.9227087607715335 -1.6362721633295303
Ni 4.6902394150549 1.3608823476467657 11.048058340268684 0.44592390476330945 -1.669385143833415 0.10459581903521985
Ni 6.295322809447586 4.883566788444652 1.5523208424375028 0.6067438363985809 1.5384285754164797 -0.2848358070683159
Ni 8.388020492224577 4.391179327938208 2.9940588721742465 1.585019021581509 0.558535137903838 1.2438336320788708
Ni 6.683747800645203 2.552432938649841 0.9358095896760348 0.707127417124666 -0.4040604317603041 1.1659634019639533
Ni 1.9791888692238815 1.8127395524442405 1.3885630386370256 0.6187981964599536 0.7746803244739756 0.7912564836651018
Ni 1.3970843094119687 2.9111252382594457 11.067483760561487 1.0335148223825235 0.6038114932431343 -0.19393085525662732
Ni 8.873725511760023 2.3463431225179794 1.558940258999896 -0.7114730956878714 0.9527428452397785 -1.6704390390192263
Ni 2.085329387947666 1.5114272695495283 8.066710008382405 -1.0026469291590734 0.7353267623770174 -0.6932838263733544
Ni 4.210975860810497 6.746781477543601 9.339291452258193 -0.6971394526740187 -0.45347343497579323 0.272849067020085
Ni 6.152535450780225 0.9788988217401937 2.8531038555040635 0.016753822419571147 -0.028597352021718488 0.24403317122965712
Ni 8.8387191600992 2.926760852570223 12.456032896755437 -0.14142790026190483 -0.4846503747992298 0.6245546393277566
Ni 6.593798993955163 1.4510443251306095 6.628077784428435 -0.16749965764829217 0.0783721094520005 1.660099090545799
Ni 0.3203187762362127 0.15734692388419677 1.9223760721864158 2.1803299335528 0.7979025282267097 1.3559758960027808
Ni 2.365936298957211 1.9716352084869024 4.965174129290173 0.4800193037851217 0.19110109911731604 1.6386051823380812
Ni 3.9928279923856174 1.9616532543596308 3.2231729876960507 -0.19527888464408952 -1.1685111080864714 2.0093741990351073
Ni 7.1073737777066786 0.4275538806447057 10.44917260483668 -1.1921608862949276 1.1851844549770942 0.680676679132305
Ni 5.22878298656767 7.977490616538991 7.612116802787928 -1.4934103588345764 0.2824598506369716 -1.2406284948780117
Ni 8.648413251004241 8.038476000157791 10.77161474754509 -0.744355448238189 -1.7433501253566557 0.09663234121376905
Ni 4.189139756888628 7.333158721526983 5.491432575273047 0.09676732412973657 -1.8797628317921562 0.5810865408417928
Ni 3.6154322726935293 9.371080778591645 9.10252635889789 0.1913597520953414 -0.7299747540364848 0.9230841418330812
Ni 3.1757906812105805 4.464593495665339 13.444656014011263 -0.9104867647840448 -0.14321378851773403 0.6819043808918192
Ni 9.015845553159824 6.815932229394646 8.472970907214673 0.5123252150066789 1.0338297825197809 1.5491390198554482
Ni 3.991827016484275 6.2925237842419826 1.8139101381510876 -1.3123951831983527 -1.3514939489720275 0.013480808095254202
Ni 5.1662405293245595 0.7640374908580536 0.17999493048159812 -0.7182944894850791 -0.5101701163368891 0.5003117354855705
P 4.287726614875434 4.897626792540353 3.5035231669234923 -1.1613004492706454 -2.6651417736305585 -0.2458501698337379
Ni 5.611480171218718 7.866604730579215 1.4644323778110588 0.5971515647244555 0.49829059129048375 -0.17124935449871154
P 7.511712432076556 6.547327760905822 2.3945632829060544 -0.28290799391798377 -0.6841720938800734 -0.2585514194504902
Ni 4.4721749612884665 2.63548613357508 9.073727911484463 0.2873639728068083 -0.7921468566898552 -1.7544410930634946
P 6.5661424005328985 6.309549642860179 6.579650941053324 -0.7414979241847358 -0.14438749711086102 0.7941775139666387
P 0.791945255085192 3.1689784841042252 6.791835588228913 0.3594368795136584 -0.20883348340007263 0.6484512434396961
P 5.751079236274398 0.7817992521296446 8.646494713860003 0.40592833820697827 -0.2403688350041925 0.41832285521658924
Ni 3.3318780437522553 5.015380485378782 5.452907051855377 0.6831649927717977 -0.9123832104758094 -0.694660652116223
Ni 5.2478571384654655 9.220118783396657 5.208261126931082 1.34844410640211 0.926057108418476 -1.2927997775649283
Ni 2.171450388644611 4.455909102891658 2.311952185670575 -0.07654251244242946 0.028795841185769763 0.6469350639054858
Ni 0.055668162557690214 7.886262785086126 0.40673450872633005 0.2353022191145625 -1.6157539887715207 -1.1664454838066944
Ni 1.8870527448235022 6.826359061700291 5.574355087233387 -0.1208783582453273 -1.4184539599323442 -0.7873723181193472
Ni 5.568493817233308 6.450538952223279 3.5553690844653167 2.418054646065926 1.0281121633097132 0.8410646654364805
Ni 0.04993479503389234 4.921520458037202 9.761748697271898 -0.1621641043679917 -0.42794572301833395 -0.3766038782112482
Ni 1.7603551469406749 6.444653584655202 10.098949673547873 0.5662772437431022 -0.051125872141537756 -2.7447809227204405
Ni 8.784388412565248 5.444187439559242 1.0118364898715757 1.164357490929414 -0.49254571838690664 -0.09224989587535726
Ni 6.18622570449669 6.650242912836394 10.824600665418998 -0.8605464283101761 0.7838704756136758 0.744013234407422
Ni 0.889144649253193 4.098050949866505 4.832087895399985 0.13287589692683568 1.1322076456697467 1.2045050096825773
Ni 5.111159049864601 5.940578803671054 13.256413227468514 0.5661052369416122 0.6578848780487702 -0.7697494628312614
Ni 8.97079236930405 5.490454770110162 6.71138122332901 0.8778964895528494 -0.8651924117226196 -0.5739962096539147
Ni 4.2308656227019785 1.0178905404156182 6.850803263942878 -0.43855435177211566 1.10378152911857 1.2227251322350297
Ni 7.932576457113959 7.052106932339064 4.995424918590083 0.4003541865533105 -0.7647923759363022 -0.7024863188082289
Ni 5.497656235622594 4.563115475584465 9.997062375575256 -0.45857758897157797 0.3033343800931357 0.3344969217388691
Ni 3.4377497819099387 5.7699309490830055 11.51880711154491 0.18758100177919954 0.5759787873015823 -0.5183667932150685
Ni 7.259772358686001 4.688719414612122 5.30386730112278 -0.9983264474068482 0.040022820249840746 -1.0913430462449012
Ni 3.436897098734722 3.281625346186733 7.060559617728174 -2.181837371336262 -0.33195615759488634 -0.3360221001341439
Ni 7.37003726885513 8.419004403689264 6.8728191727951735 0.3613603217886163 0.3386484820133974 -1.100042888011744
Ni 6.973298616699146 7.827464719177665 8.981837396911729 0.2750872123219843 0.2930363406012373 1.7498197922413994
Ni 2.3134592104998175 5.666700675109419 7.578149427039517 -0.16112897823525799 0.28055080653971687 0.347777183787543
Ni 0.7228121129953752 5.486997695932379 11.92970771904581 -0.6210674521101045 -1.3437467009264408 1.6503888052365707
Ni 0.5659202624144736 8.386945369960172 4.098324364580297 1.1250011006189786 0.4611805738120638 1.2474097794659034
Ni 1.0821290957137804 8.692280093051018 9.01467867477113 1.2431695161323106 -0.8640554699046991 -0.5460346914439822
P 3.7412401142196083 7.645203690474973 0.08684948871403225 0.09737950379243875 0.08897662444072418 0.250489211267646
Ni 3.596228364660375 8.30527315104697 11.600225379164625 1.3577142188501263 -0.29178678446485234 -0.20484184574217626
P 0.8145765787509043 6.03247395239148 3.910624700146981 -0.1975985339162016 0.7259270663296724 -1.1531616222135948
Ni 6.874721027007723 4.286234419318804 12.747342835273036 -0.20040489301674516 0.20552961583782026 0.5988009274024203
P 7.43068899384015 0.26427061356782783 4.997079309315913 0.42643211458728497 -0.6861801254490376 -0.9994885860357496
P 2.472104622567144 0.5114087831205564 3.2601377301712575 -1.8858365487900617 -0.45056757418290794 -0.09047172092901193
P 8.276763874449488 0.597407442318448 12.550499997444591 0.14286643248064426 -0.3058178086366217 -0.3551590780739109
Ni 3.12544530069123 2.1380196471988637 12.960233726556794 -0.0811815538763376 -0.9306853512191068 -0.5923865392356443
