# total energy = -381165.22989116475 ev
CRYSTAL
PRIMVEC
9.33275470017966 0.00000000000000 0.00000000000000

0.00000000000000 9.33275470017966 0.00000000000000

0.00000000000000 0.00000000000000 13.65942987302549

PRIMCOORD
 96 1
Ni 2.6397416003363543 4.724445627514061 7.29067965390857 0.39761621879685716 -0.8824008051811061 -1.6974729032085667
Ni 7.386212528372585 4.9170643467839925 7.816239722109899 -2.599714654375 -0.18810190727967602 -0.32351548302670086
Ni 8.588868598918653 0.2984306894945871 7.061419607358942 -0.35499195636842734 0.2690078388971238 -0.2710714062943719
Ni 8.75385303223683 2.062193423423695 8.90958123968302 0.647647259481162 -0.043353684395286626 0.009390440075964474
Ni 6.722149717629204 6.152198402845801 4.912955134995894 -0.2790186861659065 1.1075656787513508 0.17218575027005184
Ni 2.7354583300632016 0.19718523602649699 13.640906973783922 -0.5890009105928631 1.0259136129964976 -0.515186595714874
Ni 1.5765542124187963 2.5845850214863475 7.565329551767336 0.04493568417042584 0.651946143966832 -0.3284897963128407
Ni 1.6161437568319483 0.3236645909996038 7.852833452341859 -0.8200986047077747 -0.10804932480145907 0.9769785778586917
Ni 1.3987652399834956 4.065935805673517 11.029524814420752 -0.21855919532826878 -1.859865321537281 -1.8762684454856526
Ni 3.797367130619939 1.2536782391709398 8.072367835470235 -0.43654889130631264 1.4610957058622709 -0.4757276183883032
Ni 7.46140653104509 5.445783552369538 11.69038182400762 1.9273621788376742 -1.2515502839968382 1.0481372002813885
Ni 0.9265493297163236 5.4862877067196285 1.375969053943051 -0.13225368996180448 0.4049785726991993 -0.774301343868002
Ni 1.0201260588458267 0.7923807183448208 5.446110198775588 0.79153287725494 0.7379462022777356 -0.054923905731389285
Ni 5.575256854972947 0.34818453678854167 4.843073336161194 1.9469634980083697 -2.2600541861573205 0.986634612891217
Ni 4.464173771174131 5.909957428119782 8.258190442943452 1.5334758593968947 -0.5022482903866511 0.7455625811724127
Ni 0.6073355293180005 7.553408824497435 8.53445210749721 0.33897629766646137 -0.3564058059968184 -0.12874336281570087
Ni 6.861049102235744 3.918254299121485 13.20297213719388 -1.2150863847428492 -0.759051616797783 -0.17649157673425733
Ni 5.710796447974411 8.287140647273862 9.285420594483124 -1.0286778060051962 -0.9401308129027227 0.09415662597976689
Ni 6.15233839416268 6.201167365489792 2.2897987726078224 -2.9726130587102033 -0.15196685212001573 -0.254194170923059
Ni 7.768519482012462 8.865192792927283 9.260205358487024 2.452173442126506 0.9714831019617591 0.5323073145555607
Ni 5.340491416568224 3.4634225105842464 8.034954689396816 -0.16307273222519011 -0.07256630140350083 -1.4635881332668212
Ni 0.11714846706545252 0.866418392739912 1.2774282327170474 1.694537731839643 -0.33607943573464055 -0.6481056871748192
Ni 8.316884135733249 6.313617723960813 9.65802241676156 -0.4601709016006268 -0.29032254121449996 -0.31076409689830353
Ni 3.4038328733664307 9.187340811327374 6.1370037453118425 0.40697349164204105 -0.03790191725209602 -1.1996613084370304
P 9.316207484890976 6.242726121093697 13.03470164103085 0.6994809563230018 -1.5784974184129072 0.004647011853708125
Ni 0.780922895696064 8.327504810307072 12.703734169667435 3.142483273473201 -0.4814719770712482 0.9899428513288434
P 8.246123191428552 0.8435018141669522 4.739112051145667 -0.8268058415246212 0.2938740060111842 0.4569966176377033
Ni 7.9011099246050245 4.2081296526039225 4.0326869346395 -0.18138232916765534 0.4544661379063657 0.03421829775292171
P 0.5129823150175465 4.157546123438603 3.0968524475123695 0.9328556193975482 -0.10458039241625214 -0.08969859020841325
P 5.528247770765251 7.862733638271484 7.316919626344218 -1.250876140747949 -0.06039649881018631 -2.598316488475893
P 4.754534427888414 3.7353136462250665 13.614790193707126 -0.9794452942316293 -0.33007796673556705 -0.04244865608251399
Ni 8.59858399631 3.2161791794684462 1.499027021131655 -0.4308454131636322 -0.2300484269147909 1.3579584736504484
Ni 4.248017845159748 4.9840828565508115 11.535402103469005 0.09651355624771765 0.6099996243317172 1.4271237197922002
Ni 2.6364378052580286 8.482839175515112 10.828717536388892 -0.7338234383586136 -0.007734649640096357 -0.2534922597600279
Ni 3.3985132033250594 8.13335551930594 8.248382651282967 0.06213919253290589 -0.5058861442495546 0.6377068604389986
Ni 7.881417812697492 5.373025398610715 0.9961810107315352 1.3854703059174718 1.0135939150888802 -0.5450682137656548
Ni 0.6684986689375274 3.779840217746789 5.622507657521119 0.6030360485296904 0.13317620177607387 -0.5858345970497395
Ni 2.3611215487309227 3.1447276113338183 3.9276187849451896 0.0824298244611419 0.3181745304297617 1.3542915663218225
Ni 1.8345675421797585 3.2072104024337835 1.2149930386648207 0.04774821391855647 -0.27863996267024915 0.477714566911345
Ni 7.956051850102485 3.112464279170625 11.366530577918844 -0.425948232972331 -2.709032561476238 0.9705006834438318
Ni 6.911763289963483 2.181988659653591 3.4721449029012037 0.00892069952839754 -0.9819654895503216 -0.015500666738760402
Ni 0.5249002424611098 6.1657588950740685 3.7426697232892927 1.7001823317199298 0.48006326964917967 0.7376975766020393
Ni 2.4510706362023886 1.2789513382446822 2.528661290219848 0.2913764364003111 -1.6876201787842033 0.3133745379379571
Ni 6.2220354044591 4.043313208866 1.7101059287205893 -0.8850307866047856 -1.7181173189317958 1.065270003306933
Ni 6.513245341829111 1.7423972591471584 9.56329402573187 0.4895149019803828 0.5713340894407192 -1.2368510301134505
Ni 0.23302674624909694 8.76488434800683 3.319855815472988 0.8488797906055251 0.36742246882229623 -0.4028337584420546
Ni 8.28458347255222 7.968875054728527 5.2000903917693035 -0.4746464695089826 1.225237100023606 -0.2778506339997344
Ni 0.26521541637662205 2.047513000660402 3.476407171862421 -0.6151827111945535 -0.28400096987184636 -0.06254388417049228
Ni 4.2261418687089165 8.111507541118485 0.7858925874452397 1.6256982444684258 -0.996310188307768 0.7456003763888837
Ni 3.1040834656668506 2.684874800897883 12.26126361441054 0.605326387225764 -0.5139190418563601 -0.07033818340393047
Ni 4.0580029643837525 3.309684046388618 2.4071740256066176 -0.023390096789166166 -0.4165256541068504 -2.6858021301933874
Ni 2.3585083774825297 6.266421984663946 5.397933586985128 -0.18788593461412803 -1.5851177519429025 -1.2671368255811855
Ni 5.975865340106033 1.1595294121931279 7.129238867458304 0.4514525478910225 -0.8629956611816171 0.21021982222463795
Ni 2.762028682006682 5.292091751946204 2.9238829094794614 -0.46449369734569684 -0.005246850221236125 0.2824912180955393
Ni 8.492853221049131 7.684216710988416 0.7196048323525251 0.04363573441207969 0.9216013866399677 0.47999462119477326
Ni 3.3548172469501467 6.949962253962312 12.660679373523823 -0.7003217070567423 -0.006254465550144067 -0.5217526789681659
P 1.3057456762951678 1.7625746742865347 13.22977207489704 -0.7386074900108183 0.2550367214290124 -0.19749491845880182
Ni 6.015865525715362 4.733937038798403 10.096817733312678 0.4057329343667206 -0.5815920197233015 -1.3940367074302442
P 6.15766739695851 7.9506761835343625 3.6391862753020425 0.5454579930049058 1.1470956185251728 -0.3631912043497681
Ni 4.4970903961494235 6.292721686728128 5.9472063177147305 1.2396825860249747 0.152937186453085 0.6366992451100906
P 3.75332586233006 3.0768691536657307 6.098717053421103 -0.45007469370688935 -0.5746610969314232 0.5107848671027526
P 0.5073135999594257 9.044614997392829 10.049229085053106 0.4465810787313341 -0.03332021141868455 -0.1435292628756238
P 2.330920755303068 2.2027260400604805 9.642737231509352 -1.2016662546822015 -1.6093650545260412 -0.46929934626445624
Ni 8.010928446318735 6.935543148323858 2.903953745608683 1.0865145145080062 1.3805893236760869 0.5182282107546752
Ni 4.616390996393016 0.6019262648338273 10.084374371793098 -1.9158300098283585 0.9624847551178909 0.8276357936250843
Ni 0.20364070228547324 3.8364153752744947 13.114896133542244 -0.9418318547542295 -0.06257628007032448 -0.26833112454507335
Ni 2.306244952514672 5.855099497412449 9.160231959451634 -0.7755046201474839 0.5019145611963163 0.8703492733332108
Ni 7.4520177800597915 0.11853624765343831 2.1213500208346345 -1.4968435528858415 -0.310868997907284 0.12096423309091424
Ni 1.8578900955716648 7.713372235916914 1.2335241559177097 -0.11918940057867862 0.037169924182077915 0.76511993447905
Ni 6.229940247485489 7.188516790677205 11.179683234006081 -3.4626707205679335 -0.49990575829640355 -0.7857792626006145
Ni 3.6328026712523975 3.688537880878834 9.78991756914696 1.3205124129888481 1.016255006860811 -0.9409342826406247
Ni 5.1401078455887825 4.564071574898407 4.001638727106809 -0.5824736509973065 0.06441667571317293 -0.5115119750767642
Ni 8.001941003775157 2.9095328662240014 6.475184502596269 -0.738914736838592 -0.46752914173791094 0.00759735273128369
Ni 9.141936960886547 0.6991950316271309 11.81167776715445 -0.3134634981073376 1.8631028546379718 -0.6127255079033125
Ni 0.2014913689336701 4.854376235085939 7.838067168237546 2.44243307491029 -0.45879124764428086 0.8169508031074124
Ni 7.838468476679264 1.8137834980005765 13.493248799118037 0.6255591693328709 -0.554929937051083 -0.6492724537894108
Ni 7.571430373356888 7.28855458571836 7.4641680930893735 0.26920555673022667 -0.11866798085756981 -0.47693449421221096
Ni 1.3062309795270122 7.904740366089399 6.248697217396275 -1.400492490357917 0.6128286091400801 0.2963134686906123
Ni 2.303081148753225 4.787665706216252 13.014458896610265 0.8385735235835108 1.13414137235735 0.966784153824193
Ni 6.0062714541319755 6.57807998705263 13.508506919382313 -0.19146696709716704 -0.5311050667173434 -0.3637758732086445
Ni 4.248717801744139 7.025352244478445 3.6891118452780343 -1.1486573065853378 0.6763636535792481 -0.4448155021904791
Ni 5.54012836719098 2.1067666587177105 11.553582309154255 -0.7607441740088575 2.0347766982686117 1.4512404103347458
Ni 4.6674411632812625 8.89968665340607 12.174772312465965 -0.458755766420655 0.1640116990996917 0.7825689831934328
Ni 8.227177699877705 7.57675004339826 11.717468277272658 1.6195941884532172 1.772028981348587 -0.016006916951217594
Ni 4.638341634879517 2.0712275297395673 4.188335813672793 -1.9271526339300291 1.9160938050127065 0.3159088743240366
Ni 5.710245815461357 1.3200714543890357 0.23381629727628994 -1.3135881750651894 -0.2901911578429583 0.5953764751019036
Ni 8.8315762113676 5.860512494998406 5.806814625670269 0.7862847414821232 -0.4937075999054917 1.1200864369261807
Ni 1.250281116548029 6.263864809942304 11.248075525229197 -0.32737290909957817 1.540329391983618 0.47070188303893773
P 2.2728336915530774 8.511192083560175 4.107144582985226 0.48353528735818013 -0.2205749402067169 0.3747334006614127
Ni 4.11154497671243 5.696386675090416 1.037248863450921 -0.5103032994806437 -1.0175950658284731 -0.24322327373385208
P 4.005412893009845 6.868552636820414 10.19997453489388 0.17208033504043913 -0.003629883443103426 0.8980233422097115
Ni 4.750278691855318 0.1890900048091542 2.411995326559903 0.6501173182882093 0.7319925557974619 1.169913901971269
P 6.612751169866128 8.588420626704643 0.04111638304257016 -0.41778575176619664 1.4894457177598734 -0.050567428534906464
P 8.385722532619484 4.111619638748099 9.759061616356115 0.6191666355429659 1.6267909633119724 -2.8426065129113622
P 6.1267573141918055 4.31437372936001 5.82062430244258 1.1825179638885248 -0.962505581053497 2.1284486713024764
Ni 6.810745555704181 0.1997442772990303 11.62170208394718 0.6103876037987552 0.07732052825903458 0.17247808469949005
