# total energy = -381171.17524329515 ev
CRYSTAL
PRIMVEC
9.21614343490429 0.00000000000000 0.00000000000000

0.00000000000000 9.21614343490429 0.00000000000000

0.00000000000000 0.00000000000000 13.48875749903387

PRIMCOORD
 96 1
Ni 7.7197366128334055 7.275905579872831 9.677145011075991 0.4315280410529536 1.6994739927989955 -0.9910083164788804
Ni 9.011360675447268 0.904192140689993 4.82109731526539 -0.4625512289073453 0.7674719796509943 0.8104723944719202
Ni 0.8861377158058665 3.461878370635121 2.5432380819661358 0.48951258798753755 0.52112481557618 -0.5438222571736958
Ni 0.16821950029734334 5.93933438598797 3.305581795030271 -0.4442161780435833 -0.3612777893771391 -1.6112355320758767
Ni 7.375974464707872 5.03377456962018 9.15371322611609 0.09388820280972864 -0.7454594799356452 -0.47806397983096377
Ni 4.139099018585801 4.198202146090601 11.041168331250976 -0.8785287238202095 0.38396443234137745 1.991241236879822
Ni 6.084497860388111 5.963849327382444 10.829584111501218 -0.4072545132175695 -0.8840013168990065 1.3357076326720478
Ni 9.162431697754874 1.4812646449725524 7.260512777197248 0.8125781279610135 0.23307307267372762 0.7563067070627943
Ni 5.163768272014567 3.028811793144001 13.409888600532932 1.1200247304503097 -0.0979366618474894 -0.5298418837342036
Ni 3.1036284451140563 4.8485669522279355 2.963978989298996 -0.6119204955035139 -1.0011888565563078 0.5016253120906716
Ni 4.269230963130909 2.2292744902356243 3.344510784673227 -0.17670703517917308 1.2580932273216785 -0.4433052361935398
Ni 2.083281562931159 4.936820741248045 0.8070715001226558 -0.5967322177988498 -0.1737422961238943 0.015503237841921686
Ni 5.402659924603358 0.16779002801577095 3.3176134702146642 -0.19176778616703746 0.43014633021407855 -1.7501882313244115
Ni 0.967897810199455 1.454012508993807 11.800720474484889 -0.3186851515175931 -0.7743769343009438 -1.9648504055911196
Ni 4.097985802961458 2.0982485797825228 8.201798051768625 0.2817489406128761 -0.04197145933577933 -0.41242577300586386
Ni 4.3979897023121906 5.147603156523623 -0.0400367700773978 -1.3931278224627297 1.179255748197485 -0.11459663900167362
Ni 8.43334259485378 3.208397563073602 10.526262400533186 -0.14984106402626451 1.3076844079862446 -0.6992796389454732
Ni 6.859234521457189 2.311021682028479 8.363906327389774 -0.3498394656332104 0.6574989554642612 0.8395130046786444
Ni 6.930456877508505 8.62787694934798 7.438941921132485 -0.22352528108429245 0.7115273459645746 0.6010393298146358
Ni 3.235880102636882 7.3453860848250665 -0.10834313836284543 0.034480550275372876 -0.4430771793431337 1.2782578751950116
Ni 1.416696344442593 3.905073489702379 11.12432651459552 0.24721876804649037 -1.8048601689459949 0.9992677282741951
Ni 8.062899711639147 6.242748258389813 1.2919761192910326 1.4218704418130608 0.69794960728014 -1.2032114876821345
Ni 0.34479527779858526 6.520725575059044 5.423357539409264 1.332452358959544 0.41813902134055725 2.167407311953861
Ni 6.574455690972498 6.302293760776919 2.869746688067384 0.9610197405365902 0.8225429524832092 1.6514434717533302
P 1.3604133568124959 2.758511523911461 9.087699834303928 0.020062575077829964 -0.586693602615925 0.012688908321578147
Ni 3.10905675356569 2.3291498360596563 12.41893752927929 0.007499393700838698 0.7483200893128918 0.62838841125155
P 6.080322947436344 3.7984058462062684 4.600543023162532 -0.0950750240289782 -0.10096542137148419 -0.09868331020552683
Ni 4.274281409703907 9.234852152445772 9.585205686317668 0.3110985974195868 0.7226363113935426 -0.03739540992932269
P 3.0954905905082963 3.044119807300476 1.1522013239259852 0.6220285304717932 -0.04540953848305083 0.8242010569119225
P 6.835244900235453 0.33625652095573527 5.415318297537686 0.25424507876565244 -0.16566337577050178 -1.1663886624268298
P 8.355659722292115 2.194575710404723 0.5505742488324111 -0.6727682229185058 -0.5388646560581043 -0.6530815431228558
Ni 8.63073395379621 1.0741230788132587 9.415894994643969 1.24773939489118 -1.088084172987971 1.732095892599075
Ni 8.145614598487047 4.3583602857722505 7.128120112680687 -0.21897185738565514 0.881900725616236 0.46619165387341005
Ni 8.309348601800671 8.775307595019942 0.03498448027572443 -1.0937166886834002 1.2148593563337078 0.6080023913960303
Ni 5.832749687782291 7.22406477335256 13.259705092832952 -1.3137637814111054 0.7809502166430873 -0.5169264612241161
Ni 4.375695851472629 9.04358031270858 7.148596540045441 -0.23956125150123256 -0.6996383078364725 -0.4607360300754775
Ni 0.7586526476398915 5.885226408195878 8.159956760817153 -0.9827926134373076 0.19553650918085033 0.18584087915964123
Ni 8.938700601028456 4.8014263788321685 13.054203527714906 0.5879652702394971 -0.4627620593665708 -0.47393093149919674
Ni 7.960489926385236 7.034322813416676 12.140057030558683 -0.0037160153990065036 -0.8250135255108888 -0.5517677372730174
Ni 1.2681136808479594 -0.007492724569063214 0.15233639879387034 2.1551950861583853 0.712473769038244 0.4096836914843525
Ni 7.422930715236012 2.284405459943049 6.227597840285161 -0.18561642185366098 0.4369296716844991 -2.8019897678312646
Ni 4.511044133171598 6.562041545837777 2.03216238043765 -0.5210080874926576 1.8364803669544372 -0.601797548136899
Ni 2.032242560885068 1.3570678967650542 2.258611317847238 0.39692407782583894 -0.21153262749879054 -0.26683731360836627
Ni 9.258537640935922 8.041601204284774 2.0476878955779254 0.3099038057805372 0.5082420460762408 -0.04573529725358575
Ni 3.27722372184576 6.233172685416559 5.9890084771992775 -1.557634458920969 -0.014944280014658135 1.2447013793958046
Ni 5.1059554045831606 7.295425371554597 9.154927913813754 0.5401658913680311 -2.0749069906305944 -2.0251654004310926
Ni 5.956780545408924 8.338167482154251 11.103743179967541 1.120670334454109 1.44288278239867 -0.4172818155465846
Ni 5.110388369549605 1.8386482530157668 5.77521146142365 0.3246958764880472 -0.5423934951469691 -0.270749761288895
Ni 5.305374315069494 4.467746691565868 2.175736991718841 1.0738608302997377 -2.271764789726029 -0.17803218174849986
Ni 8.454705615211822 3.8395006295438487 4.25605372132421 -1.7007515739598387 1.0939488592988644 -1.0077487691620128
Ni 4.1347029181928825 1.0847124275584663 0.8571400422706875 -0.11758657486793297 0.7196450899757025 2.170582881468365
Ni 4.0103494955479 7.178841157780121 11.211113093589313 -1.171773323777511 -1.1416644202072725 0.03050922433245068
Ni 2.9120248242151336 1.5923283888615818 10.281589461201255 -1.6445002076662776 1.2066657647793217 -0.37761123642984
Ni 0.4423453906474948 3.3569710105248545 5.909842727167548 1.542564451961724 0.443419650284217 2.4363202771443335
Ni 5.535446118442303 6.6418994282374495 6.765637212504554 -0.5783681134693652 -0.30548690765976416 1.4395915132419077
Ni 3.7809781190720764 0.11603585324328461 12.484910370060572 -0.27971185557818923 -0.8369652985561263 -3.0874657795867404
P 6.340549971953035 3.9126030788449677 11.575863165037267 0.4541660901674436 -0.8375029162271512 -0.17072150701969954
Ni 5.746799934607527 7.7622322499649545 4.758779596949164 1.4958719330011916 -0.2906830098777123 1.1325753134218106
P 4.249324093427124 5.23210597518751 7.965799346587249 -0.4676654102054591 1.8550717568033792 -0.6619626476625695
Ni 7.7980369670016225 1.5391881061245354 11.909736391314576 -0.14204985011661989 -0.45419000142684357 0.32544535305956207
P 8.125974996941324 6.805504405543735 7.3997705469185995 -0.023266169616792187 -1.1404022656653974 -0.18249484550554376
P 3.1676990739014212 8.68196649485331 1.9024000032421355 0.5122318839619242 0.4782141322555828 0.48961466078304067
P 1.974982662056544 8.663478911230259 6.299128015525415 0.8097267745551474 -0.6141270162365294 -1.1575237558370324
Ni 2.1770834702668607 6.914300978160943 2.191073575919798 -1.1974596728000215 -0.3891765726699362 0.3819844257968712
Ni 7.910261944956706 3.847279054557735 1.8755847124596676 -0.9143405913124963 0.4993884523403528 -0.4907194638114452
Ni 2.3837923501678677 4.213593105537509 7.571414766096464 -0.40347216335700187 -0.3245917468100152 0.8521414920759324
Ni 6.671354222484345 5.1888638304420684 13.408162416877598 -0.24395038170786373 -2.289945060179482 -0.7087153304370762
Ni 3.2348847591516927 0.7452109025181465 4.9450185007857845 0.07099535737195514 -0.43347102371193735 0.05098240458513801
Ni 3.641390411417671 3.7947378211404788 5.557786049998772 -0.7947758096722699 -0.5013813144006656 -0.5366625062004629
Ni 2.6664053869579334 7.252109497662104 8.374750963306646 1.2017986664950076 0.17789719883253235 -0.5846565175812383
Ni 7.276679735916867 5.905557220495206 5.47683974106576 -0.011935060874689122 -0.4719432116452066 -0.8753384990176859
Ni 1.4211016609788936 8.753649658073696 3.8037484445244556 -0.18603525455863443 -0.3243462064581124 0.5341713643474929
Ni 2.4120859103487096 5.5927981787046415 10.014148039645619 0.9438049193202003 -0.2720985620073056 -1.180245365804264
Ni 0.4257148599157917 8.516177291565638 7.8259342330170645 -2.9258369788969287 -3.075362568565304 -0.5587125440219668
Ni 8.76081981762441 1.2154434214233638 2.4463349423825997 0.8038345774404285 -0.22511268017607036 -0.967987687213991
Ni 2.180382849597395 1.918165138110327 6.705005126812783 0.6133256033811566 1.0334104355941751 -0.4933587012065052
Ni 5.1458152247076345 1.907253224346771 11.057044981454082 1.2673366002968174 -0.007635662168386851 -0.13622630145630735
Ni -0.051818687776156 5.6181702214335845 10.640255956403157 0.34518782579381196 0.32793263825779007 -0.10825115639962002
Ni 6.997817669483023 2.140688920053785 3.599205358318073 -1.1187684894457055 -0.4899548177312788 1.557406402070563
Ni 2.1501631154498453 0.36656012200805604 8.277645990183057 2.2281519381320853 1.3473986958567312 2.380089479676062
Ni 3.5862686578536276 7.766996996093129 4.288830935260093 -0.7365344095318734 -0.412451998258109 -1.3180829776117495
Ni 1.0939838678001361 2.8321669418154625 0.0526158841786455 0.07498853769174828 0.2508327106499938 1.2869417761222544
Ni 5.21742465878097 3.884088331222973 9.17516103499324 1.2022640361672003 -0.1995525723187789 0.17991242949034822
Ni 6.074433831815642 0.4515504746568187 -0.5461855213541972 -0.7729903383660622 -0.18883132924653287 1.1259009867254288
Ni 5.7959680595471985 3.8881526504541624 6.813711381224855 -0.6746016765828188 1.4197600803382775 0.10342108200082835
Ni 8.153116539199491 8.004460146457808 4.072539109471125 -0.7909739194276765 -0.10169201512486357 0.3996178226079182
Ni 1.6812180917750068 2.3929716289757237 4.4566181984328495 1.2955647419045753 -0.7196741434414251 -1.8503093024177295
Ni 1.618714207362477 7.639021629099265 10.643142452510206 -0.07225776902414652 0.7659010356194487 0.17434881935964167
P 2.4743593911767046 5.491724734241029 12.262980107750874 0.23867884889627927 0.8286763190744568 -1.074235440030337
Ni 0.9627736344794068 6.895518477949688 13.485061917251846 -1.163623440976867 -0.3845856108651441 -0.782237310885627
P 1.5310502515187756 4.699412887743656 4.45940976826307 0.2174597916165029 -0.04150737521516722 0.7853439748354087
Ni 6.364779212902687 1.6866648325134035 1.4491777201759344 0.7480182418017568 -0.3988446918873196 0.14435150166660302
P 9.167998248357229 8.72613025393689 11.321167669778081 -0.8424749155204458 0.6048381347354358 0.5709394251054619
P 6.588980332941556 9.775839768932869 9.462592271543091 -1.541366574998881 -1.3416517660706249 0.9117232082943073
P 6.550134288589033 8.213362468483583 1.4555718804539368 0.4294891562460538 0.6722018088920746 1.4206476251495535
Ni 4.836300265387317 5.564357160229698 4.424528508793217 0.9125541888360348 -0.12299669013991077 -0.32454778094595715
