# total energy = -381165.26523072505 ev
CRYSTAL
PRIMVEC
9.26124683678229 0.00000000000000 0.00000000000000

0.00000000000000 9.26124683678229 0.00000000000000

0.00000000000000 0.00000000000000 13.55477088680706

PRIMCOORD
 96 1
Ni 7.131669360204328 1.644732592719698 11.100760950461948 0.5054922512452457 -0.961621378676331 0.8886377872297534
Ni 0.5759828663995633 5.55064488382547 8.56725243936681 -0.9071823830011602 -0.5722828265072337 -2.0614752906057205
Ni 6.399373319037507 8.358515977414303 7.013224497241993 1.4358729267397399 -0.2603049118064871 0.09919495973462271
Ni 8.425474791361719 1.560881264714179 0.020867441159933237 -0.49237525424731327 1.564900396454763 -0.8773293041954697
Ni 2.9150515021384105 6.71197744157984 11.620843857649174 0.9259203257302957 0.4621678774259976 0.04294436477200991
Ni 9.177738080505113 4.951006940996517 3.6851223165180556 0.09626904433707938 -0.2520601552991917 -1.2156751673667838
Ni 2.7629818306285117 4.213098584303812 6.24419464699619 0.5416285919564866 0.00641978748341475 -0.4803049533463405
Ni 0.5396658134239898 1.6949563338036313 6.843885378931575 -0.09083296092317261 -0.4224741583808014 -1.9484472816427474
Ni 7.319737497801862 4.654508126539183 5.032642052656583 -0.31152874297846994 1.676240990412984 2.6841067447688354
Ni 4.588568049733429 6.246979503891625 7.916690605200199 -0.5928056290509338 -0.7978894156005871 -0.9835102083296222
Ni 8.064582528304609 2.7632226230438137 2.3792013223722814 -0.5210445971575478 1.491414154340154 -1.6153847783575597
Ni 6.990657617304832 5.9485913950988465 0.3497324607325399 -0.3751823152733732 0.9116522458470556 -1.8656914413007546
Ni 3.22020958229987 1.807156338087579 7.024977019358074 -1.0177670726299632 -0.2547364165797742 -1.0835397481503983
Ni 0.9571220670848661 1.5198076354117187 9.10475297330243 0.02963556347824573 -0.37101609971082555 1.7564187856151556
Ni 2.0623314695804074 3.951060868974879 12.253864890485714 1.7802840222685274 0.38224230744394816 0.8591896571719655
Ni 4.5465960794969575 5.691517708023829 3.029098199022789 0.2586411509508191 0.14383188171770714 1.1320448948396373
Ni 0.7685482654151979 7.812750706885781 5.288854443784558 1.785657370765299 1.7192982266137744 -0.4383620332556515
Ni 4.559913752312502 7.302141128991337 1.0989988104301003 -0.6812358940698848 -1.490162284210924 -1.6914300394485966
Ni 9.065056491390562 0.12499441665854738 11.275820740885134 -0.04729647109311855 0.8937571107341897 0.47507738639881403
Ni 4.745907370639743 4.580038441483696 12.793209338647744 -0.999451305039911 0.20606800483979348 0.10205376933965649
Ni 2.9262761331901763 8.381641310530028 13.199093664504014 -2.018217765468666 0.45859970045876497 -0.5589213175986633
Ni 9.23505593659371 4.518803078023073 12.9885744125536 -1.6178728348867362 0.0471817998921252 -0.3480198959259684
Ni 2.215790328101663 6.605315662847836 1.6694054801660758 0.26263535971187674 -0.6586518381217817 0.9751147851770753
Ni 7.78995877865278 5.844976566545085 7.938161879647735 -2.1469842682128184 -0.32832190327640876 -0.3454212819608567
P 7.4713718907148685 3.7912858401753193 0.44061677951422323 0.6422042340887197 -1.1116439625857824 -0.6224036544230249
Ni 1.9615505825298154 8.935186028322152 10.424133337338906 -0.40327778795800867 -0.9738788558874454 0.49812655490879365
P 4.76853259643138 5.120552585109288 5.176797062700444 -0.017255187536021895 -0.1653502154054572 0.5205871979051551
Ni 2.7509792548503857 1.6464922296007505 11.762803026090413 -1.108286358967459 0.27251739471227904 0.6785763449598506
P 6.881486040705642 9.12642151230558 1.434934791890515 -1.3815120926006723 0.48997332967404 1.3678142833986056
P 2.6701933995165947 3.5452145142302522 10.193418084617383 0.0831949847619406 -0.7439440717323833 0.5589264598049857
P 1.4877359379428527 6.145522545828839 13.056944640504556 -0.7953123989020302 -0.04853831392001963 0.6771236716737241
Ni 5.365021715367924 1.7494587708825444 12.640596031954068 -0.3650794225114164 1.0216319549020083 1.4093247439375665
Ni 6.453496044999982 3.7164271827566524 3.4741964958356504 -2.5001936787595263 -1.1309588608643102 -0.482713305677517
Ni 4.939513733789221 2.8888143901172447 10.52568568624314 -0.7773370453705323 0.49893850928712774 -0.19024029377891752
Ni 5.801495013089605 6.44489234677631 11.338741651252871 -0.5293070942766561 -0.5484425295545264 1.1011687740860714
Ni 6.070024862384947 6.978117889215648 4.963703184155646 -0.581626729615979 -1.5386023819901824 1.6760116480109974
Ni 1.8667061546410897 5.596867766316693 4.746108339694053 -1.100952544310207 0.627888588796996 -1.2391452254642659
Ni 4.958388154650193 9.146518417736546 5.330590252229099 2.243317333018614 -0.09179198240233223 -1.3685560466606366
Ni 1.1968679615048874 8.480912614361612 1.1597627764315372 -1.6211149959731177 0.9525096461830499 0.5928925323377854
Ni 5.699380506508111 1.9026305307547866 1.9996541300019943 0.43452517600806456 -0.6938780083139275 -0.17125963891135665
Ni 1.8165472422843536 8.974296273315227 7.723522299021635 -0.49015484955722677 0.431340864742812 0.06428760633447637
Ni 5.668216411219999 7.694901342088981 2.90419083808362 0.04665292397184869 3.433641423215119 -0.15446570728246944
Ni 2.9019190542577142 4.042200798166653 3.190047553909283 -0.3451790840430636 -0.5232973977474665 0.34447203067370996
Ni 7.723037009692335 8.248427537387618 3.921422101025237 1.1438639989617525 0.9262113746081533 -0.252878537435429
Ni 1.1607027929758889 0.44690701830164853 3.82451889798568 0.3863105639760508 -0.7915315917033593 0.15005420847833512
Ni 6.785048678377227 3.8912054312788698 11.793640199368522 1.2545265930163427 0.674542026989477 -0.08493536449181502
Ni 4.127543186897695 8.50638104290316 7.4906102785728175 -0.12316766850013626 0.7139531817972479 0.21862912933425574
Ni 0.23757413205893282 2.97607385692396 11.046907726779676 -0.3893591209943875 -0.5417396636130541 -0.4363938537856871
Ni 5.529844123642082 1.4049311308192227 7.253116719360543 -1.8676130838034999 -0.15280760285375616 -0.601183568701984
Ni 3.465595575986001 7.169992399224301 5.252040061858919 1.4742615538202675 -1.5535690306023437 -0.0635152469448261
Ni 9.105944895758174 6.445207229165551 1.1663910507250594 0.4924654999682745 -0.27832705941552066 -0.28447765239794875
Ni 7.560029805779684 8.638826132565953 13.0937191990692 0.424584776965901 -0.10104872511390985 1.8452740539866672
Ni 4.538853677220327 2.8595025441776083 4.978165547068549 0.5268840866574602 2.0555303858761955 1.939738698125156
Ni 7.118203507440906 2.6863357525885654 9.182923452556173 0.09696709884536849 0.06597219312575088 0.06945398102676426
Ni 9.058332826255594 7.498220245021031 9.875816593332859 -0.11824349172564153 -0.7407641313425049 -0.7082317059324383
Ni 1.533690244278548 1.4845222853232463 1.386232673646355 1.6638922390396442 0.4552760354021708 -1.4716649967376847
P 9.017342548173813 3.24183459344333 8.314794557668195 -2.9956925662374863 -0.4396550410354622 0.6023500782062594
Ni 8.855613396311611 7.880885699169479 7.397407869731516 0.499382795913398 0.29392157141966796 0.240645742814663
P 2.1274565566728314 2.4616856903586255 5.047607301267597 -0.2740618563812635 -0.6277741747063188 -0.047955959053988376
Ni 2.2266352480369913 6.992028281822704 8.786894019358469 1.2828375241458938 0.18957592072204127 0.36041415582526315
P 3.5986333854403068 5.144854096561297 1.1571149859878904 0.7416326499903872 -1.4794412982489942 -0.8490224868309764
P 0.28241523653619394 7.173150484363452 3.221589508064485 0.23657388673813445 -0.3478720574941944 -0.42229520960077593
P 7.721601516447265 5.685479375147797 10.652436961408716 -0.5061216572991284 -0.4618122938587918 -1.395747262363448
Ni 7.157072960018679 6.034720989802991 2.623295372137851 0.7299667836166848 -0.5009126022943631 1.2300044395052623
Ni 5.879650674348561 0.3465141774895624 9.171862745571747 -0.30040152271705683 0.5352198602166653 0.6581137062301247
Ni 5.018752960917034 8.726845021605545 12.821200530801915 1.8671073478116749 -0.273936900767625 -0.9363381786295101
Ni 3.546992673604789 1.6522064188407997 3.503826928663225 -0.9914222640878475 -1.9402130666584134 -1.7215651682710802
Ni 3.9794928964739897 5.270547737348894 10.09280112163413 -1.021349390664583 0.45983228731428544 0.23803118800995135
Ni 0.10517905312854864 4.284660237882192 6.433893690145058 0.3933458735562774 0.9143848142868704 -0.21821261062212743
Ni 8.276878087380213 0.2521078065717516 8.83841526111101 -0.8738583149277337 0.6121444385888619 0.3865527618938439
Ni 8.581665717671978 2.78296760109857 4.831313661973308 0.1824403381185245 -1.2875207885541762 -0.2513063078523027
Ni 8.663840760017125 6.818370644156316 12.123278533044116 0.7945994319954057 0.20902477347527226 0.749088077827168
Ni 5.980024066542487 4.286734757152485 6.9440003823413905 -0.7995459773674036 1.0795931047978244 -0.3962357935095628
Ni 8.759500177619179 0.7186153274789756 2.160671091989707 -0.7764831820106692 -2.1754862323072532 0.9425792744432154
Ni 5.75281790021165 4.34108901428352 1.4390829043064273 -1.4606707025097103 -0.36685708323712946 0.0951956087672425
Ni 6.748337096290428 8.566116084391519 11.104027392187987 -0.22567986553345007 -0.3341899320214115 -1.8734253196099027
Ni 3.334224790945324 1.2002575778125988 9.298992805729087 -0.6866331538260562 0.9760241843652224 -2.3898475875040903
Ni 1.3682102874856814 5.467339969377751 10.538332844794535 -0.3701948893611108 -0.2459766681092731 1.4893516153841706
Ni 3.6063016977429982 2.966229151636809 1.0096527847323264 0.7960652179076548 -0.7487301802671169 -0.5235311110248275
Ni 5.979931454075063 4.651174077711926 9.337122284692144 1.9859187962256444 1.3208703105488993 -0.04175600089086357
Ni 4.073522334649386 7.964764810915225 9.838472468093556 0.7705377630605117 0.15261554144760814 0.9493160789464167
Ni 3.993403289081046 0.42332232734750064 1.3330508903529055 -0.266282983766793 -0.034988857370359096 0.2193806627882996
Ni 0.8638242674021183 2.617997012876535 3.1678714985846512 1.7507839559268816 1.481381195584184 1.2167745710785496
Ni 8.36390602301837 6.539857170872686 5.638472991182168 -1.4537055840457866 -1.4129132326197733 -0.05536150748944014
Ni 1.7162386788176232 3.586214053558774 8.280514978975946 2.387077738068437 0.025767338772091107 -0.07833894222121993
Ni 1.4737144103748874 3.90271716097965 1.168306276551384 -0.32940947991363273 0.882772586698228 0.46847787880442543
Ni 6.436696143409303 1.547202403275682 4.839921064695677 -0.6781145748320837 0.6389152789248029 -1.1058340407722247
Ni 2.896454918679709 9.250383299952352 5.548198062436132 -3.6331533721039495 1.857584495922904 -0.36804467578732747
P 4.484564248816489 0.8214151663194066 10.861139156748276 2.72424552177125 -2.6551687215782467 2.3689362912727203
Ni 6.260278654213685 7.222587019474283 9.14349276842581 0.9236320439167514 0.19667267966782256 -0.014200459870098124
P 1.671340154610559 6.407124982560879 6.7465080000588085 -0.20903968587360772 0.024201536946867996 0.35137055756575614
Ni 7.314190011003175 2.513011519804902 6.978240137672648 2.961556029565093 0.009855295527524961 -1.889519654068604
P 3.4740140492748255 8.562198577019492 3.220966226158722 0.12235288590832477 0.3599271888865156 0.5837178078170527
P 1.045539189734379 0.6337461884564689 12.994281192796254 0.8727504265755356 -0.4111137390626597 -0.8104885924218365
P 8.150193493191182 0.6257898513800891 5.347099350672067 2.235279293205486 -0.6259481772411736 1.1669211378915323
Ni 4.034689927058581 3.7177144960538433 8.059950978808745 1.392796150154924 -0.33384000488116056 1.9901374622926822
