# total energy = -340889.17136589036 ev
CRYSTAL
PRIMVEC
9.07502327782027 0.00000000000000 0.00000000000000
0.00000000000000 9.07502327782027 0.00000000000000
0.00000000000000 0.00000000000000 13.28221388450477
PRIMCOORD
 96 1
Ni 6.892407719058717 2.1443191437446956 11.43404677063528 -0.7611840897597536 1.2526291188833136 -0.8602026718175122
Ni 4.67867372085462 0.8538979975969935 6.0549101038619115 -0.5303411919681253 -2.7065532466978097 -1.154519936013702
Ni 2.8210527183154976 1.7200254968111253 4.729145371339836 1.210459170383483 -1.157167143828562 -2.269002396489544
Ni 3.652742318496744 4.723622312060976 4.703669965477836 -0.662537032108801 0.09726997479776796 -0.9638070734737401
Ni 3.9405022374473493 2.9786949508706386 2.5713035351346933 -0.4068287385340606 0.05011414304757176 0.17248451245739327
Ni 5.6010046553724475 4.82819380741144 2.6005777458178074 -1.4512404103347458 -1.4804136894645923 0.2474949045260125
Ni 5.639509979920917 3.04339986815336 0.4402230356160895 -0.5641337150375382 0.9150291327390886 0.04555557714261187
Ni 6.056198757193489 8.324591621708082 12.45611312050077 -0.10538771880889591 -0.2368541369827147 0.09246946808533106
Ni 2.3533441591406175 6.699291219791353 0.1193383735275236 0.42806219399154016 0.14543727853161406 0.28410201422608494
Ni 0.6131557752020378 0.2384634840036946 0.24744866473323493 -0.09241110404356988 -0.05545252454134966 -0.4820916129331182
Ni 7.83719933664453 -0.14253322599356957 6.837471157030291 0.6836974682364999 1.2847499106772584 0.928112191175292
Ni 9.032897202902529 2.2923963015710864 1.4869044791193995 0.6827335616613338 1.786535659605194 0.043260353350531945
Ni 6.787482297793244 0.9922086151737818 4.929945692972317 0.6398642731016335 -0.48453158983317834 -1.7637921952610913
Ni 0.9253801424009963 7.719187731547124 2.199441743754089 1.2277002168521178 -1.3535302626757657 -0.02495924104849895
Ni 7.713642892211957 3.83449688838992 3.8060984174708707 1.0363841735105184 0.7955034318669139 0.8491150465447828
Ni 8.157611190010737 4.147576122798982 12.29870593105329 0.35391003615815825 7.559043294180529e-05 0.46642896669519673
Ni 8.524904614580663 7.163660170332286 9.371823919135524 -0.26556795997763943 1.6802943345467511 -1.310108186936389
Ni 7.2622784502918 1.1130244025208884 13.773257488236471 -1.5515093198598378 -1.1491553292676788 -0.04799246871887864
Ni 2.057779720012854 6.856570451408021 9.141709456716697 -0.35376836837397135 -0.21349232232832266 -0.6848639777407753
Ni 0.17909377301417262 4.973984059325454 1.3111457772274429 -0.6367092724124195 -0.9211619851097038 -1.232109144553091
Ni 6.298928409726582 2.2844193559481534 6.888514533993601 1.747588074697403 0.8569075460060082 0.8586404695367149
Ni 3.727910737830935 4.777119575368359 0.7810654893018729 0.780935561355068 -0.6413539702732826 -0.8521224659125388
Ni 6.501183457619991 5.894009937883981 4.617667783134933 0.1366477052644421 -0.21775469714910242 0.6023976436147431
Ni 5.545873887841939 3.285276468481042 9.235627782025338 0.14046399368673873 -1.1194950831990849 -0.461169003847838
P 0.6973057452563843 5.772449998613005 12.439776263264816 -0.9720145489851969 -0.9430410445709825 -1.1701797540381458
P 4.4389297510404635 6.373071351409588 12.445182254741018 -0.7947408426692765 0.13011221813876947 -0.2932679969960691
P 2.5495007912676897 8.720099294220784 0.8375919954408092 0.5786265093370744 0.31563119518261773 1.7567499437023295
P 6.567285928515832 7.8922665790108075 5.574147123437214 -1.4602019904034078 -0.3791266446331019 -0.629494242721219
P 5.177155684588506 1.3953030073005588 12.530972081534914 -0.671204992196444 -1.628111224785293 0.22697750129895106
P 4.173639590181306 6.553337617455027 8.097263191492031 -0.7479714477242215 -1.232748835019619 -1.852365156505494
P 4.7644145425218225 1.151429901811278 3.6683214112736375 0.26136009254387893 0.2577350941967819 0.4742083535302995
P 0.21328029389716557 5.9506108592153035 3.3740274754305273 0.015705840771031016 -0.64501213585116 0.09667784973972383
Ni 0.7299340846109842 0.34531734775480305 4.722544199273713 0.6819285492615352 0.023768306064191322 0.003750982401999992
Ni 1.901680241446221 6.802592211857162 4.7784227487374755 1.0176698849304668 0.7437427543548546 -1.2000780842594752
Ni 6.244886645011489 5.962363014598351 9.009139698981851 -0.47956936073189665 -0.05859646948697005 0.7563396171832588
Ni 9.159965681414825 2.512202444839641 9.965725217058635 -0.6910366822103906 0.11201113766268452 0.20550184792367834
Ni 2.4583240305468617 5.469661840809639 6.753568027614106 -0.14233832789131615 -0.19723960791488612 0.7789491270526585
Ni 0.8052041442079474 0.1807608548241075 9.158962891322293 0.098167804021689 -0.8206866160007608 -0.031409110438900746
Ni 1.9319545197148267 1.257389875751398 11.154775628630855 -0.9647776649171257 -1.6340988098272953 -0.0836115034740689
Ni 4.990781927753267 7.009103445754162 1.232674049353152 -1.554448862104136 0.21660849935980114 -0.18178702080524178
Ni 5.712101092591953 8.054428173249931 7.726689145940657 -0.13539223559078617 0.4019909508257851 -0.0174845299380086
Ni 5.464870228421802 3.2109520263288 4.769045526994385 -0.06469641173712085 -0.31658867399988055 -0.4221622835673374
Ni 0.7329851074988454 7.729306382707045 6.8678080529607834 1.5024763256915865 -0.17468666231503466 0.2714007646093326
Ni 4.954527209023327 4.7351385168340165 6.8403134543785304 1.0255935106529175 1.6132721028899313 0.8760514659243107
Ni 0.7718625080092492 7.769336311197098 11.482447500766511 1.6271691725869974 -0.40149395658470854 -0.2578741908778075
Ni 4.81783013061805 0.5859978599902184 10.450433110182182 0.7992919523750686 0.39910334486534493 -0.9997243561956396
Ni 8.576051446811437 7.516351882152159 4.654513285892238 -1.413644711469159 -0.2238692946872725 -0.1114794335289306
Ni 7.561944800024302 6.442468055822066 7.128896477957122 -0.2389704119947691 0.6562802525658117 -1.7126863777242116
Ni 2.127085674190714 5.453154373132603 2.3425711987891003 1.5461485697685566 0.9408998298582635 1.7294697678301376
Ni 2.5386561382308237 5.477112435071787 11.11470304753053 -0.013694980988589317 0.31908778627265044 1.2633961275918306
Ni 1.2643322686996843 3.452147999896846 3.560722488096314 -0.3495149924142561 0.19885066115574787 -0.15427107477316013
Ni 2.116985173077717 1.2309543324071388 2.331719285733465 -0.6074953698526248 0.2904158722592547 0.11841652696839605
Ni 1.4863799427633064 3.453890404401514 8.073447607421198 -1.400364449420485 1.2953107169122402 -0.647141266379021
Ni 3.8166190921701504 2.845564356685853 6.666874328483414 -1.472151192345484 0.8660017949977925 0.9720456593334486
Ni 4.365431136023247 6.924070475916981 5.66652450976204 0.13584500685748863 0.951415898898239 0.09764921251405764
Ni 8.510983528590243 7.199996564273383 0.3140312043702053 -0.11713097538775312 0.5537212614549625 0.1768445891983019
P 0.4390568951012467 5.723916773139233 7.822334448214082 1.2608468788074156 0.4337517881771498 0.8381359218254597
P 8.817791921787194 1.5371002488913754 7.931182094619751 -0.45287668193205877 1.3838283994386746 -0.2321238213865809
P 2.1582946798758864 3.5413736305733843 10.243070639084463 -0.7882891735066618 -0.552048758848546 -1.1781550589341387
P 4.084631760067851 6.279417109283686 3.1680208128380047 -0.3688720567846292 -0.6455638945895721 0.8614828240815163
P 7.117150675090499 4.2731109223462305 10.314542801362657 0.9836392777083188 -0.1103023825016939 0.08822560520731257
P 6.563329218286482 7.9852220443301505 10.160096792070767 -0.42546512268832537 -0.28495330648278666 0.002324791478434706
P 2.6987214020502686 8.622706142428614 5.735259644964152 -0.7683361274235025 0.38490802720156936 -0.5788823341016225
P 7.325259113116777 3.9354292993321964 1.5488651093072687 -0.002987364763098081 0.5550993727494117 -1.1734800220559727
Ni 2.9529763343798625 1.6515181446979044 -0.0177933985015753 0.28718271003393764 0.1906480707402975 2.2160219876377703
Ni 1.7005958715793852 1.4363674884652593 6.752039793663137 -0.48277604059465234 -1.2908022875189253 0.8179319360737591
Ni 6.918516561558351 0.7572680552779627 9.076148764721527 0.12777997046116704 0.9757143664342873 -0.5725587058764396
Ni 2.8096091137301524 1.7826613087445533 8.959052829491416 1.08493894249077 0.21691934573200058 0.6459122790679264
Ni 6.488723450406923 2.255288530635736 2.6313393528463123 0.1213244446438104 -1.3072483488900906 0.29632323888262513
Ni 4.312278723607412 7.096069395588708 10.144410614017024 0.6308857237521072 0.7931781261678469 1.3288067917871567
Ni 7.6759633947985115 6.549562407694913 11.513275355466286 -0.9789061338987076 -0.6231425894715784 -0.4747385150021566
Ni 7.848089364798706 4.323849378521222 8.033973070367006 0.3462761737619843 -2.0515595741539054 0.8193324159657115
Ni 3.5044655101541937 8.665503953074522 12.193563616727081 0.597296574942752 -1.3876786264227003 -0.056747846314005486
Ni 0.1390266369279253 5.148959586692656 10.105746476557973 0.7824237158648202 -1.4971808816206023 0.36547922905299635
Ni 8.778551520338317 2.5609171707826492 5.948784964494786 -0.39962090793171173 0.7220529280862469 -0.37074561965825825
Ni 3.869943930031759 2.808674386313586 11.52156357439396 0.8190884182757054 1.1809146239571469 -1.161810299027528
Ni 1.514594190706081 3.1783454670305082 12.177877438673338 -1.5507315611535486 2.5683531093445833 2.5189552756377456
Ni 3.2367250929603464 8.765066035474064 7.837356334550419 0.5148361543539908 -0.6950995394258545 -0.011471748085025404
Ni 5.62330198801812 7.899363247357944 3.3979755548439035 0.6880086940173441 1.1451271819448923 0.8384215713866786
Ni 3.149105741436549 8.202024354832846 2.9812595525009464 0.44834279861744725 0.4692034441165403 0.32873816487822094
Ni 3.5525449844548747 4.541368615877401 9.035557999781531 0.4585133113925458 0.8464303006237681 -0.8853370049912946
Ni 5.1285044838097305 4.877344134480614 11.010251342489763 0.16037358812647218 0.06952957145970605 0.6873533198215324
Ni 8.427157536873484 9.131560857979352 2.5506496892379547 -1.936568013706658 0.9389020827019443 0.32770149608359045
Ni 4.876354956923277 0.6791765708867219 1.5479621444728184 -0.0674181815436581 -0.86802422474446 -0.7706092397283955
Ni 6.2212280588465445 5.421981667541278 13.298020289597671 0.671440762356334 -0.2636064653758944 -0.2923737673165739
Ni 8.188039743678193 9.310792571350143 11.112617607139008 0.411000353413247 -0.5221226607130749 0.4171432330861912
Ni 9.348998420124373 5.2764545913076555 5.535402218269353 -0.8803755472209611 -1.569444821292336 0.10375995339748582
Ni 7.310167349099783 6.20127208225402 2.129178374601008 1.2679991735814808 0.475441197496136 1.4699441573918361
P 8.792418156187965 1.8650080716370379 3.611939198007744 -0.9431708852806273 0.23517237840491756 1.305083737138604
P 1.991214422920461 3.415548430275357 1.420572410129975 0.9454617381973328 -0.5269871878942278 -0.7696743866189519
P 4.788200179015233 1.4415584018854157 8.144799979389695 0.7571243178680832 -0.7660146783791776 1.1536532171380325
P 8.798879572892776 1.9171894565424583 12.525579702593905 0.5089089902362784 0.361279589149352 -1.8874044074978138
P 6.780412854516493 8.139896744213278 1.4377595970643013 0.2757587844677122 1.5629358165292244 -0.8373975009975385
P 1.9418190702178169 3.4152671045480405 5.607777345381998 -0.5965555830116693 1.4895920135297507 1.7237493204065923
P 6.931085469052962 4.289600239976343 6.086946751686801 0.9065992568041804 -0.2068714745776953 -1.0018128632935521
P 2.8159434801064975 8.773605632551629 10.021510293780741 -1.0985516481781983 -0.5886201302146765 0.578107917829443
