# total energy = -340857.17355525016 ev
CRYSTAL
PRIMVEC
9.40333839703936 0.00000000000000 0.00000000000000

0.00000000000000 9.40333839703936 0.00000000000000

0.00000000000000 0.00000000000000 13.76273624807872

PRIMCOORD
 96 1
Ni 4.471823319264716 4.8937793157180645 6.847030389452686 0.06329336074200713 -1.2568539555979386 0.9425929012899702
Ni 6.825460071883896 2.890858869111867 1.3043125973849161 2.1669350003031327 -1.9117825792318626 -1.2939758001509005
Ni 4.801410324271956 6.549989278397815 9.165225019944256 0.5711284011878165 -1.2559157600543853 -0.3536580680483522
Ni 6.603766969742649 0.08139153439488361 10.194155215222466 1.053172705822767 -1.5267308273635771 1.1371729600948224
Ni 4.0956521766595895 3.239045677140629 12.108730358811728 0.8234004153874981 -0.8440656570463334 0.6139763495912781
Ni 7.285461974821105 2.347665632842302 3.6875190874062582 -0.6237910216888547 -0.21159227709213235 0.5408773156127588
Ni 2.7033092880884886 1.4217095138674665 6.1158155245805315 -2.1831797442967695 -2.249762574423325 -0.3219805344394132
Ni 7.045526396511127 7.127561119241032 12.664579548006808 -0.37865407587205757 0.26910939747199464 -0.08965539567530366
Ni 6.671198308199338 5.6197452371895045 7.663765794537091 -2.107903243050957 -3.377174341366326 0.23054979203124162
Ni 9.41763130541659 6.331878848122696 5.6574751915087935 -0.1598531968466279 0.492772489685732 -0.6592753306383936
Ni 2.4417742418612023 4.494099827534677 -0.34361020331158565 -0.8177311329168627 -0.9012189663288737 1.8640245951212928
Ni 0.2064465295330089 8.374105248535749 1.800344331089194 1.8384164076348855 0.6662126811881751 -1.6280628880458605
Ni 4.343872095951348 2.707813487101284 6.050745364353724 1.727957187840353 0.6236619523101582 -0.3136105652081631
Ni 2.6179551869629334 7.105397451029845 9.321088172129604 0.8011223207155881 -0.20916952658325264 2.523740612841531
Ni 1.2525716691009834 6.444229933310328 7.7849325093165715 -0.6418692193468043 0.022730094607664078 -1.0951451935998107
Ni 0.6089441981843191 3.8402198969444203 4.206209104912689 0.9079927947175975 0.7793779870599609 -0.04582091498885657
Ni 3.3250203985894506 1.6502764562557972 1.962758789020294 0.03072262589483741 0.08004178384493957 1.4906492511496716
Ni 3.180387653253748 -0.04040520404609449 10.815391457142745 -0.010860853973903876 0.7969977570242532 -0.4015566915018439
Ni 1.9785940106018116 7.010085214717338 3.3148102539378996 -1.6870388523594366 -0.22112927004829014 0.1843295847214374
Ni 1.0843553514811681 8.802549548368699 5.157309750318034 -2.4388746681350706 1.8912458927310913 -1.2827207960623717
Ni 2.370233644597434 8.342086881858155 12.831907250163766 0.8015028439834583 0.7362986393719835 -1.7837123312237861
Ni 6.58071938773772 7.891695190593339 8.336268096160625 -0.8451691745231573 1.9853855494299935 0.9678653027035138
Ni 5.418532605716041 8.6095272244947 3.4037037715737184 0.3809030198072343 -0.368649656361178 0.026834603694340882
Ni 9.284263759281991 5.548101203205193 1.5878204240572928 0.8337786732980285 -0.04179173922480544 0.12126170972667505
P 8.635659101439497 7.1926416231398935 3.035358087044685 -0.7789622396787811 -2.9220219760262127 2.0283517685788746
P 8.41410704937172 0.5867306922805072 9.108564265097703 0.22891354197939928 1.540874980074443 -0.701528839990966
P 8.852960844626725 3.3035337707309185 0.6404030662371499 0.9324802383360005 0.3546816242168601 0.6847631904968529
P 8.140761410325915 0.23581315482937443 5.593037875944953 0.5849892183303086 -1.2161904164403055 -0.8604309857782343
P 8.260813829524986 6.717519152326746 7.708948834738512 4.0287600166699455 0.8270362123678725 -0.5875448948726268
P 5.84517146460858 4.142950967963054 2.5319306278214855 -0.18221253837843457 0.4226541356020914 2.564727082556222
P 8.46187600758675 8.66385030945695 13.649455103671354 -2.7972699937580923 -2.668296002988824 -0.21945933854503497
P 6.167950452736355 2.502989973746998 12.946908196064978 -2.024818815724952 -0.6287977308748267 0.5312696173196657
Ni 8.498812320159315 0.9078612752163351 1.185095194620785 -2.2663253638780128 0.9761203436234543 -2.4180497609699194
Ni 1.356581993277448 8.926824066433625 9.353361369273268 -1.12630799235586 1.6140719730834074 1.5242880222500392
Ni 8.237324290623187 5.1854896743296095 13.145216136358792 1.5748971026561587 -1.0186854706791746 0.2806299965170844
Ni 4.159613683308926 6.7813772222555375 2.535508598018497 2.167012390508287 -0.7312160826427536 1.5332845693216948
Ni 8.666163530661851 7.9424732170423855 9.55581148005797 0.4801527440391924 -1.662552180071982 1.3690592115493003
Ni 6.6424805132409315 6.5371913350650095 3.532247405195658 -0.611814823163585 0.33432902870243714 -0.04903273705793491
Ni 2.5369736381149344 1.7139840727728888 12.141251804084698 -0.8965197610809915 -0.43273285999433214 0.10167478873368296
Ni 7.772761768643793 9.141624521651327 3.21456220538778 -0.30847015865780425 0.8664586800295531 1.4274803318006704
Ni 8.145632339529731 4.29935669276435 5.537450982324416 -1.2354094125709176 -0.4536140743187156 0.48370395172556047
Ni 0.2265790766862329 1.8655940950762193 5.5100628193919166 1.2278575683655888 -0.9208331410153754 -1.8872293153725306
Ni 0.5691502111232594 2.9567104467456957 12.646385028863056 0.1687471569021481 0.18450004886103064 0.013925608942156662
Ni 2.3092341894909585 8.792093036255487 7.320977442986922 1.2944655953031254 -0.7583929001678615 -0.7285002263734872
Ni 6.091764606386323 0.9009770912971967 5.317714714869104 -1.3757075701037533 -0.8116371042039828 -0.19546271852012143
Ni 3.87797429994311 4.080296525327868 2.979081928731794 -2.272147626986745 -0.12012888167381247 0.37854248999485773
Ni 0.40808607256217466 0.2498805488234067 12.604464006694077 1.7056382126281788 0.6449445158380183 -1.924158327188396
Ni 9.284132112546754 8.672896320835465 7.314701655051348 -1.19474484497202 0.3581608410147122 -0.6062599547836269
Ni 0.7832557596456662 6.901015894572432 13.373043976362144 -2.512298946663493 -0.9906517044704098 -0.6569034879721074
Ni 3.3804248674482995 5.6600573481871095 11.859501461327751 0.7943940008528189 2.5976875966426425 -1.6462778683919908
Ni 1.5778801552129802 1.3426462460186541 0.5727940046878901 -0.7898830003563427 -0.3790279142717085 -0.29664514099841816
Ni 3.927125548878141 9.573726720056253 0.18773482678653505 -0.7611558076249794 0.4734881875348233 -0.43393099406749136
Ni 3.5467793240983165 1.058054214448208 8.53101123093095 -0.04221211459167569 -0.8453702347903699 0.15664394588071087
Ni 6.710899202211906 5.32637048771102 1.1581188979028172 -0.17413361802504204 1.974072181299703 -1.2399342970244644
Ni 7.938185294808911 1.594984827455724 12.378438786629665 -0.028504535197596072 -0.3539411465064098 -0.211583535341384
Ni 7.73807285390851 2.1528566747043563 6.536818022537227 0.9840138874389183 -0.5635906980498745 0.09111115428522373
P 2.0668725499173033 7.146856769291669 5.781863489966319 0.5179646726806435 -1.9813067513749296 0.1917184209863408
P 7.101720745781405 4.1731262803473115 10.473978813975815 1.3118403391361473 -1.4042385876639105 -0.0889164606267501
P 1.776083718452427 1.9858910010693043 10.040810277015458 0.29849864926738917 -0.08015774059751357 0.09005314533435459
P 6.263356722431176 3.490631991519194 6.912760664023331 -1.0809347064273835 1.5569376899642606 0.3239505136815905
P 2.3206686487802255 1.0977080917696214 4.020865547038374 -1.2062307341244323 0.13662585088757115 -0.3532826869868045
P 2.9908539678635644 4.967200580628094 8.705604892539236 0.6701027602712007 1.5709646003709719 0.7582795145184488
P 1.5688341438344646 3.3590040629573865 6.180541522628074 -0.45490091145093914 1.7308707619427224 -1.314597075945678
P 5.097577865205138 1.385431434971092 10.00083010385742 -1.9023785123091428 1.50277894453367 0.23683022572331472
Ni 6.732799576952616 7.816571921463443 1.2516736502998937 0.18557914085782232 0.5201076871655752 -0.011428039331283545
Ni 2.8280351663885184 4.973961580816403 5.011232652230003 -0.26053656820131904 0.6376261277997342 0.21377642922764475
Ni 2.7421826883367033 6.909977275906866 0.8639429840070251 0.47363268353248755 -0.86380170202268 -2.176987242332812
Ni 9.1564253760274 3.119651491617749 10.409638352795758 1.1273821992566457 -1.3022133575693444 0.7404417150060797
Ni 3.3365206812463364 8.628785261192412 4.543974193179695 1.2605131496170807 -0.10405743003324659 0.6152238488451339
Ni 1.4631688321292904 3.2477343616663545 2.0225856478493256 0.8627262095703142 1.5002497503539132 -1.0774380061280349
Ni 9.008407428928427 5.327179174798912 10.99766482508454 1.980967622867956 1.017308644936306 0.24607822668414392
Ni 9.419323906298226 1.8477371557749713 2.8001382828577057 0.7465925650988239 -0.3421210139430302 2.933745178000412
Ni 5.7642087224370435 4.133105672834877 4.759980156358648 0.0460703119955013 0.9819834872724506 -0.40256096439664213
Ni 4.114477659798663 7.048328591304056 6.763448817583732 -1.6001965006528958 1.7283924756055589 0.18994487402568577
Ni 7.932176561679107 4.686445111056021 3.3692283126162845 0.07875443249208372 -0.5791286457844735 -1.1593212140570872
Ni 6.341329203045158 7.398800410523025 6.123165173742119 0.8524140290110288 0.7743419672979502 -2.035784827818152
Ni 5.627014017642304 0.7941767966675038 1.5183053058485474 1.6899118030318574 -0.07943783171235351 -0.005909937726531757
Ni 5.86016038574928 -0.06490466147393655 12.809102274285205 1.068069163318625 0.3047232900208623 -0.8018365731737932
Ni 5.022689679531025 4.501763548193191 10.528066815482282 -0.95292539356423 0.4673764182101306 -2.8089165768580853
Ni 7.089402372698396 6.18434047127352 10.183103471799212 -1.7825769320677622 1.8472234644035543 -0.28389272642875624
Ni 9.170464560006739 4.624655775538115 7.489929101656425 0.6239023504557384 -0.5363565449242699 0.6307165451640944
Ni 7.853555250727166 3.069766782300676 8.672932053520745 -1.69873454352981 -0.5781585685617204 -0.5766318475045488
Ni 5.96651214114534 1.481533551695029 7.904242064795369 -0.8848065864091214 -0.929046015843471 0.6227831492496306
Ni 0.836495580043669 1.551851714988728 8.05987107385876 -1.1166889812088574 -0.21293670693516875 0.15254637877256955
Ni 2.0982044729040115 4.137995408715156 10.789255818862658 -0.5144350622608301 -0.945865658503971 -0.8122078891057882
Ni 2.61339456792075 3.030225745038038 7.880652850508318 0.9806480562904789 1.4558755951139122 1.6912294934020162
Ni 4.5748462929268925 3.2874446590171558 0.7523093735264414 -0.33023249003556027 0.362857218049117 -0.7871517174681089
Ni 6.039594885879042 4.615299453997967 12.471832741942988 0.39607741355482756 0.8105086470264944 1.42259240758075
P 2.154887795762318 5.231876341824637 1.898238724080018 0.096780179645543 -0.8621214861067799 1.0646441967974762
P 2.3194650214866184 8.835668105619355 1.443738714341945 0.21509566225970053 1.2736383741451291 0.2907457447948477
P 4.7170059603077625 7.997322888945589 10.722919028976094 1.5724851507805564 -0.2742732010611212 0.6235696497066681
P 4.856006106042913 9.113282860222172 6.909471376310021 0.07858216858027757 0.6702881368091295 0.49981499835481014
P 4.779923696413424 6.488942806600184 4.732647473121715 -0.10680491087139671 -0.4624715247093455 -0.5472523659011672
P 4.828379098319338 1.2311414612718392 3.4601717579865277 0.838782040049891 0.5167724521447551 1.1463129747228775
P 4.628830857712815 6.1630889268707705 13.474778692686632 0.9459505049082934 0.296232993161664 1.1430127067050508
P 1.0565590836694305 7.218472593261289 11.133213945688802 0.07423700423770441 0.21460998087253363 -0.46511950385515377
