# total energy = -340868.80752078444 ev
CRYSTAL
PRIMVEC
9.20429658968926 0.00000000000000 0.00000000000000

0.00000000000000 9.20429658968926 0.00000000000000

0.00000000000000 0.00000000000000 13.47141844356615

PRIMCOORD
 96 1
Ni 5.11204797370918 0.6599609587757095 10.70837633610813 -1.306223764280318 -2.270676955978489 -1.3782596471016455
Ni 0.972682461437861 2.942282297501561 9.659923183878492 1.1934163559685833 0.9695480897225753 0.18526623760309383
Ni 4.514753548525961 2.405496918766409 12.02029051553819 1.2360653009873614 -0.8282556865972704 0.44073439014257
Ni 6.252626011091553 8.216556000393462 6.393211518323549 -0.5677090910936223 0.22913799928537956 0.5359618805890124
Ni 3.357129153671454 5.971002145230352 11.390488355300924 -0.07917686474148299 -1.3870975571082498 0.06837797435376611
Ni 8.021461727726402 8.520260974016896 11.561858553246369 -0.1705926947513191 -0.15549337721603543 1.0456134054182702
Ni 6.140876644963472 2.834923380895192 3.178217875446894 1.9556869939242965 -0.6442451757781485 -2.032192482481203
Ni 3.182293538021765 3.486661221006967 10.686378067016118 -1.2143986146472052 2.0592183762507443 2.009074151296185
Ni 5.656693821818633 4.871143916409928 4.180019970326762 -0.9522743902437923 1.0807405881387064 0.4181655037031185
Ni 1.5441036086220665 0.49356844448087506 11.435644634868043 -0.8282531154941091 1.2780069355264698 -0.7172421369611647
Ni 8.523418047781984 8.665090582453214 5.011071316428503 0.12335613036185852 -0.06572973809764164 2.4081900945670203
Ni 8.43497396087607 1.894354710612991 5.724988782837803 -0.49514021858696017 -0.2819512864316693 0.5542977027837228
Ni 0.3527040470591341 8.28680319274084 0.5877642963891325 -0.7360014198465389 -2.1146464753120613 -0.1854590703401903
Ni 4.818762263940206 6.793470484667531 2.653572964047459 0.15086821973919823 -1.1505342118930768 -0.2823032704544493
Ni 6.168922136981615 4.907105103582518 9.012540816961 0.01586910582177267 -0.03205574288396414 0.38569375632765834
Ni 0.6372723674318568 1.0941239519817934 1.387556010068159 2.3243407640505325 3.59766109273461 0.03484744669648837
Ni 6.384928571731122 3.6259038213517156 0.06833085777626535 0.31144569634636043 -1.3213629339146018 -0.14673414296616663
Ni 8.060635214444227 4.191691938960895 6.742417932640021 -0.2612107114502082 0.40023977246263326 1.2082253959569578
Ni 5.5688019927141905 7.186254641668576 11.324519320055625 0.7463310839073212 -0.36754022534708314 0.9753652106249847
Ni 0.326007904935925 6.941576822725923 3.6949673411446016 -1.1622723262656112 -0.44603034843418665 1.0036753704235875
Ni 5.438947774994486 2.683908485082376 9.492917663424022 -0.11671368534467641 0.0992900905515903 0.35961608540400003
Ni 7.890871166271399 6.509563953226908 7.993199014306347 -0.552134633694133 0.319926737234178 -0.4351173010661087
Ni 7.864049845713189 9.11093750987913 7.689620139547582 1.3494648343571405 -0.34576940932889483 -0.548123712762527
Ni 2.611682368946387 1.173345333603108 5.894028452861032 -2.16977426952414 0.664416765630017 -0.6969252797806836
P 2.1803045959190657 3.4613586094028084 6.045056234689216 0.4640658657796588 -0.17362376826815903 0.21064868223194042
P 0.8551122980822551 4.77526275777751 3.4575876090484168 1.8106132693796884 -0.06277194102089835 -0.5168279879730389
P 6.975172505648869 7.896255679835761 9.7202343379477 -0.1078786035515497 0.7803915159261399 -1.2044389323313323
P 1.6767099110524466 2.52556696910335 12.535814889346295 0.4256708109412282 1.6658871579824857 -0.061725244923938855
P 3.976743998330878 4.611131739179706 8.925730492717777 0.5749104939380679 0.27942749156855096 -0.971144487675418
P 8.007876185810163 6.5871929915206415 5.766440332986704 -0.0968647689395493 -0.3362144186506081 -0.17700014093955968
P 1.764270385476005 6.64633980205841 9.682945891192235 -0.22537621825010218 -0.6553682822745035 -0.16294649105997097
P 7.756635703326673 7.122680564422331 1.7796148684899347 0.1998780739789977 0.022969721422295926 0.6139686362817942
Ni 4.455321404790766 3.2394798333643036 6.8709623789405665 -0.513129198965213 0.6417326937689399 -0.24822766892697892
Ni 8.569964176149474 9.273881174203765 2.7773891631377254 -2.3384370942425985 -1.6746785310218706 0.7888321904943254
Ni 6.831502638595645 5.8481063758092064 13.403158777301512 0.424854742797836 0.7553970507643313 -0.9855773752712963
Ni 0.9072942173137782 7.455314642546264 7.442676222759553 -0.1705235320762805 1.2097068655984908 0.32434877756127367
Ni 0.2544711906221084 8.159388113644306 9.816717457583723 -0.9966449459393674 -1.6359628596192277 -0.10987300827375916
Ni 3.448104422167454 8.307411613032476 7.376154009283112 -0.734766004777541 0.14556197703493642 -0.03980401937081532
Ni 3.301295889942525 8.334058051953553 12.023617868792064 2.868998115531014 0.3881815557465186 0.4938140435763689
Ni 5.464682988543131 7.200097903892168 8.262964064310584 0.34642966862071306 -1.2794269558024483 0.9563354476870433
Ni 0.527751361532721 5.061700470808217 8.504048525824984 0.5070210291849462 0.3492712518345662 1.0192192316954576
Ni 2.7074530760185116 2.9068089380536057 3.793780068273174 -0.8926543645883143 0.29621113878479305 -0.09920935791232591
Ni 1.0464180822312097 0.7327871950559658 8.865029076468861 0.7956381576725653 0.5663926862750439 -0.046219178868539754
Ni 7.38621798728529 4.850425044557997 2.0550644921306676 -0.3990277544324031 0.6715554335573273 0.47851366577387267
Ni 0.5975144078741399 2.7200629624854806 7.4941236391151165 0.7885493691465838 -0.06860114610816573 -1.8857051654185202
Ni 7.300737683913947 3.9064323759066624 11.046522867520434 -0.296578806536857 -1.1216296130435846 0.5642031348228929
Ni 4.759044787007583 2.001382272538476 1.1665884594020848 1.738649634557193 -1.1420727113892848 1.279750657690454
Ni 0.9292105681652377 5.487169085359778 6.119217093989699 -1.9230802636328685 -1.1781149497248227 -1.2191006481085649
Ni 3.096988116287555 5.132426286583538 2.377086016169626 -1.0184453296439104 -0.5003068503895642 -0.4869574256658517
Ni 7.2879068943263885 1.0110643786402407 9.54268161391476 0.36516529735700337 -0.21933026916633838 2.0324485643560672
Ni 2.980986365088133 5.118647454436785 4.825556875757663 0.43337949243939555 -1.0906221089184767 -0.47607111777065103
Ni 6.649082682472392 8.179784835112045 0.16662078085277668 0.026268446778225728 -0.41285283324095345 -0.0311910808908237
Ni 5.394380570415607 0.3815788462091546 8.248482023896623 -0.690623763042688 0.6424353762629195 0.7578025748820304
Ni 0.3949821430509065 2.196642222545978 3.8691264409874857 0.19898384429950247 0.4585709041033586 -1.9137412456201297
Ni 6.72077494940029 2.24584839265723 7.382242651544352 -0.14770601996113272 -0.4471683186933718 0.9646915329612225
Ni 7.769052299563127 6.038552478647201 10.45449422047426 1.1042821229040725 0.9987663631577444 0.8953051719476
P 8.918144311384875 0.8301732561973995 12.966860387263063 -1.05138733178757 0.1932934787829445 -1.7193676463991292
P 6.139164645778907 0.22183735670339438 2.6578032588067426 0.13255733724515234 0.08865086567018925 0.6495061670667717
P 0.6211676095112323 0.4229816135855921 6.817130129312308 0.013108512357500005 -0.10321410819634481 -0.830916521258885
P 8.251421876259796 2.8594344229839064 2.0622051855037147 0.28253595529054565 -0.7067888028383248 0.004376788911456978
P 5.377389438723618 4.835808621412342 11.39839668701802 -0.5343806521448216 0.3945882306038107 0.7302992272554392
P 4.310086807300035 6.638967160408743 5.719062136198327 2.0213609390833382 0.27241763590962115 0.09242807332443437
P 3.0436676255553285 0.9029120516590892 2.1504016768286363 -1.1813933633657783 1.42286802983964 2.1566750131380212
P 4.533014873161338 0.6841047494264438 6.32880537265642 2.3464131704695395 -0.28893620238993467 -0.34205390815052056
Ni 8.908949218990347 2.194534438603689 11.209082712673043 -0.33401766810960537 -0.9245537844000723 2.0418747427659736
Ni 0.46612399303666985 6.038948263404924 1.522270096440828 0.5632011759209398 -0.9964338583698258 -0.21905567534871306
Ni 1.32198552086959 7.466221734125358 12.030704256814634 -1.7921944005528683 -2.6718166145475726 -0.23285941400102478
Ni 4.088051558217779 3.825305704870266 0.12679655035888307 -1.9277020786755963 3.524053494550789 -0.869983662463676
Ni 2.365541066829831 7.507466187598706 2.8147586077040714 0.5897197910367586 0.6039331064226632 -0.30346730612657413
Ni 4.41500658528323 8.664869679332623 1.3521397172596898 0.3553981906679105 -0.4676731235149429 0.05931920658560751
Ni 6.71472772647416 1.4928448803486727 12.063292069249892 1.305973595942725 0.08997035581256117 0.44271696779023756
Ni 3.7924279570892345 7.603816765362378 9.804875209460802 -0.8883814482445732 1.0566156700660447 -1.1576939628663094
Ni 7.281371843675624 1.130600579769091 0.9072610818456898 -0.23184331403168462 1.4671959052227377 1.1765005540498512
Ni 4.112682256163478 8.987581525623424 3.900635509850533 -0.08540253393622066 0.42232117774270495 0.308387626246327
Ni 1.6915932588021463 4.865271575120931 13.167867500124562 2.2900360772313917 -0.07333351858682854 1.285497073255928
Ni 4.644442088905225 2.1895365055003575 4.677815027848244 -1.514676210191888 -0.27196152220880904 0.7823992903847881
Ni 4.315600181018074 6.361439206575134 0.24123909369881313 -0.007937252569205685 -0.13002145819717606 -0.21037254575241837
Ni 8.178560663652114 4.620428078837838 4.446133675833591 -0.2860365122446364 0.1395697640072435 -0.03471426355273376
Ni 0.9006422720950348 4.790937675042653 11.097175032641875 -0.027555283910449313 0.40797107966862 -2.105188158112639
Ni 2.3293589765366525 2.917034911677549 1.3724416344715098 -1.0464544132623268 0.26278191259207 0.09072600303166312
Ni 6.5280185680928 0.8945932083095662 4.731229402406722 0.08338267529271447 -0.7022353791396874 -0.0037119016339484463
Ni 2.809252597423385 5.940489901698962 7.345573653956208 1.5057169441160714 -1.0024309564935252 1.590937443948473
Ni 6.128137898342827 7.661748608736905 4.331693893782669 0.7903884792378516 -1.202530916675342 -1.799283703299482
Ni 5.880569930239132 5.314183533345023 6.742013864015276 -0.35310193843456605 0.41005547300147444 -1.2949476771458666
Ni 8.754169765830824 4.022351288435864 13.486102376504753 -0.2104208824918505 -1.683031016751624 0.4864892277801816
Ni 3.0329630285034415 1.0282764134528186 13.516413045938604 -1.5380465094867122 -0.2646930135718539 -1.8665478757637788
Ni 3.1467005227168245 2.630275048262648 8.713677303397146 -1.244581565988489 -2.2775950232545616 -2.317910435044156
Ni 2.3412417235650147 7.238847992962196 5.345485505532518 -0.9403979505211806 2.698528319510804 -0.789189316723428
P 3.087967905530162 0.5765865984873172 9.667696212434224 0.5861572704964808 -0.4573329179311995 0.2123744066737955
P 1.2245396317996633 9.273697088269941 3.9300303517636075 0.38077009377379584 -0.6013715163430741 0.1532539463625554
P 2.4491160807860917 7.449589570004326 0.64982518725934 -0.2569257109216091 -0.8418586220926857 -0.9163229118498476
P 7.984211939017042 2.988607522748462 9.117496491701292 0.1422244280212712 1.3094530698508933 -0.451811473892338
P 5.0815541387711765 4.373697701733043 1.9120656183062332 0.8643953697426209 0.5977169503096221 0.7155279824835354
P 6.398845468328244 3.199772497438388 5.495045202038452 0.5592486190310949 1.007613014915097 -0.45101520324328775
P 5.086460028907595 0.22096847109574339 12.889251598422051 -0.1327797376686036 0.7930007200497182 -0.9353220786601698
P 8.90927136937454 5.880754016172957 12.510664148637543 -0.5435605188718767 1.3447026370818067 -0.08242313959292256
