# total energy = -340868.87426813215 ev
CRYSTAL
PRIMVEC
9.28702866120318 0.00000000000000 0.00000000000000
0.00000000000000 9.28702866120318 0.00000000000000
0.00000000000000 0.00000000000000 13.59250519291279
PRIMCOORD
 96 1
Ni 1.6484290353064406 9.210067177606826 4.977181548876161 0.3842822206921124 -0.28759357231911115 -0.4031415194904605
Ni 7.774738304804423 3.1508009689088374 5.489931409944557 0.4004518884734393 0.8577796641983163 1.4004014733060075
Ni 3.824482036983572 0.9509731735417241 7.964977517250936 0.936727957868761 0.5201812207159879 -0.37786988940786537
Ni 8.144705670518418 4.527352236530031 11.300210519506932 3.51410615353009 0.23665873314245695 1.437062576172467
Ni 5.6910355173668155 4.3174839600432255 5.767843888934394 -0.38145606409722693 0.09673287134737535 1.0119856900614959
Ni 6.734832543616108 3.987813012227994 9.904233573775842 -3.151913051427533 1.047844608741634 -4.015591854719104
Ni 4.969795574883332 2.3261871090178556 0.23330037881461554 0.2308426406813121 0.7361495153886289 0.8325589419583147
Ni 0.7011864612277113 4.822475437264507 0.0629939162496681 2.0224156056000977 1.2320975745888652 0.6059439662051048
Ni 8.602584050712636 0.8887407936524382 5.620487531903307 -0.5773635834642508 -1.7260792540913499 -2.5840190980166144
Ni 6.942518368338403 6.925495244575224 2.515986116299953 0.3818499571015359 -0.4729351432448307 -0.650988408039253
Ni 5.1745095503943785 1.4489436570014325 11.559786688863372 0.5346763290083695 -0.7475333317455384 -0.9822210572045534
Ni 4.032158574677082 8.909111722795275 5.894770640043908 0.5401193544008117 0.41532931980590404 -0.5692216710834068
Ni 9.014148018355314 7.888838740458766 3.9733475361922452 0.31396203501031095 -0.9424707738898092 -0.045858453095011346
Ni 2.1154179907388913 8.255982849422077 0.6343570020897765 -2.483819351166561 0.6684785944042164 -0.7165592519615273
Ni 1.3473157010055432 4.308178357200506 11.389812701928932 0.8873512072078461 1.0913016514840044 -0.007262852210000395
Ni 2.1434276695549017 2.057457644090774 6.1777668385907365 1.3945907801615014 0.5012651005377754 -1.18257272838586
Ni 7.022665426754242 -0.1286002736965987 3.7044471899355167 -1.7926543709084224 1.2447085784846563 1.7700003809543323
Ni 7.326388416143766 6.5502899946264055 7.570644702816223 1.2101457529081223 -1.0824043489943747 0.853450440695343
Ni 2.3074644589869946 2.115408703710106 3.5017280682075196 1.634701990628933 -0.5987304791758011 -1.050515727815894
Ni 4.316258072243586 5.514219776326358 2.0703833307539448 -0.0838704135624104 0.5449859384644937 1.1001806991411889
Ni 7.823309465350753 5.722629989293893 5.406541321076943 -0.8572834412881881 0.6711335155285604 -1.8197594546553306
Ni 4.550114744082432 8.817541618973703 10.018397161225925 -0.8844024089921673 0.11873920041513746 -0.12116632179939131
Ni 7.1417808579525675 8.961899194410066 10.124309223600406 -0.19267050048696496 2.8505980157572712 0.8615532723081355
Ni 4.121453356446294 7.621558052022169 1.0607737148685448 3.1124525314390654 1.0205063259379972 -0.055946433458632684
P 6.14518979901819 7.012161797198238 0.2262023027141259 0.6500782375201579 -1.2458066966448416 0.83505702578982
P 0.7825436194942552 2.7385590481648427 10.217839819198524 -0.82917485597743 -1.5769326450289487 -0.1679187474635818
P 6.144976197356131 7.243445962063597 10.069735856350231 -1.4069793836338413 -3.553883433428028 -0.3907470024808496
P 6.1423479682099345 1.1449884918922792 8.817703213274564 -0.3648981597385457 0.34161733483373424 -0.04908621600368966
P 3.71491367137638 7.622941819311156 7.578664052172199 0.599600283375264 -0.7901277693772973 0.545698391150486
P 2.1969209553573616 1.1616401345040521 0.7326769184323958 -0.485504495269409 1.040163952267925 -0.010617113394213973
P 8.231752991321622 8.97218922230401 2.1040924591354013 0.28555648728442434 -0.8866760355176924 -1.5662913632650186
P 4.6340787713289675 3.477286465850763 2.3693504327025945 0.6379642278654432 -2.3480566196102335 -0.13817854008667171
Ni 5.363351993711605 6.646828658848032 6.184440497475745 -0.3406349163158069 0.8753793795579505 0.2883798156658324
Ni 3.5538951662994602 4.417607417375921 4.403319323589969 -0.08133376318348573 -0.0739780941493629 -0.36575433709125393
Ni 8.993642258797705 4.969535538077348 8.899379845331318 -0.3377370259427216 -1.5759913641616021 0.8359918788992635
Ni 1.0908079659597179 9.543629390483035 12.199436368657805 1.2523753510012947 -0.36051417173823713 -0.892593686553708
Ni 5.876785380098588 8.386604909285202 7.930765031909324 -1.441345519818537 -1.4230737180925426 0.9980827068271585
Ni 3.6627670047477667 3.534856757289904 7.985352329702675 0.7503684872014883 -0.6875073289008934 0.11623340327414822
Ni 6.035955766447263 2.4547195874043233 4.369731855285598 -2.775719521280826 -1.1332283736247772 -0.9151299199830111
Ni 3.193604884579591 2.6778776020826767 12.377634019581492 -0.4694320151875786 -0.16650824026930033 -1.288220385724362
Ni 9.080698866629694 0.8539645856635679 0.505210651100611 -1.4892261455498996 -0.3580399991661318 0.21342315965328407
Ni 8.558739987817946 7.3028736592597685 10.211899835587543 1.0584596652533191 -1.9179655681141228 -0.39871767939115205
Ni 7.526663191895512 1.9799573888787025 10.39167442399895 0.8036684841762094 -0.18129671143238452 0.39364694973646397
Ni 5.229479473773678 5.47680233735099 8.403593671041875 0.10822030316168459 0.3605519669547081 -0.3307919620834561
Ni 4.3500814310791 0.9045148120440143 1.9815426846923274 -1.3080626172612697 0.3475020757492854 0.3763891910972808
Ni 9.423176627139647 4.500791334204504 6.478608991651108 0.029938953651277474 0.14559334449350408 1.1959638049807855
Ni 0.2994063784101872 7.384710956914504 6.331565607490082 0.013409331427370455 0.4721224175355482 -0.22296143816102246
Ni 6.163578116012786 5.791363289332784 11.915815153073737 -0.8538404770449102 1.0525808378750388 -0.6831248835624815
Ni 2.668748452786875 3.641973347297817 0.8835837065680446 0.5650395146812591 -1.6470998500726535 1.0054185783669394
Ni 2.682762579223666 6.64880679597927 5.917117088706735 1.0432438767448289 0.34408430831698805 -0.43383483480925933
Ni 2.0938163617846337 8.673314061940333 8.67621811584145 -0.6489009293826051 -0.5775186209848764 0.40920469496540496
Ni 3.572153464891064 7.0115860014135585 12.40210069691597 0.41926542163551667 -0.08950267214752328 -1.336231366386002
Ni 8.487174143999585 1.9649681244194714 7.519836297035549 -0.916597762777789 0.8119980870878273 2.373758138141396
Ni 5.598313821975884 8.286583609269144 12.206803768593064 0.6994169358542858 -0.6102171396591619 -2.4984165322544456
Ni 4.276518876071932 5.492952480408365 10.550448254218498 -0.7167461711613528 -0.3694976061837701 0.06442310347107615
Ni 0.21783654718446335 0.5973435488665637 9.943909618151759 0.6596676809808059 0.35394397471988726 -0.05570192154799439
P 4.3174003767841596 3.3327895849826246 10.589771391500577 0.2332682194036692 -0.051264711712247196 -0.5008768639604213
P 0.2956683493241646 6.317362025666074 11.878204543899638 -0.19396787914214983 -0.7537451169832052 0.28517982067129594
P 7.336446268318083 3.9883795209838877 7.537112027981683 -0.4029391736716673 1.2620637819336522 0.520457100085194
P 5.309255051038111 6.036986626642414 4.183895623186124 -0.059344660506904255 -0.7430490707219396 -1.2928622553717477
P 7.212705896784753 0.5807940635714276 12.16970951821942 0.6694476431857052 0.29622245163870276 0.5862179485310872
P 8.260607789757081 3.4269879179503944 0.015734084167800044 -0.876556173474871 -0.9167620562697953 0.3235031417315267
P 2.2047963557671686 4.284682174374078 6.176216833486496 0.6948090047686292 0.6344988950246622 -0.40705011051624734
P 2.592325492913881 8.25375396251364 10.982322953814299 -0.3833013448360818 2.477296462446379 -0.07402720221974349
Ni 2.8443290189989088 1.4796372871363512 10.133933371530457 -0.5643741131831183 0.3048767848795911 0.48794292950757256
Ni 0.8957701457399176 2.5516947419788525 12.989351102898834 0.34946794122640457 0.09416305373767009 -0.1734661596443722
Ni 1.7805834549191162 5.095671963037247 2.430176756433809 0.5602688327654931 0.8319889283874575 -0.17250122462794162
Ni 6.007035958810308 -0.007789959744983282 0.571926808487367 1.536253936362664 0.43645350337902894 1.0604820949999865
Ni 1.8844310107946562 6.446851068017411 10.150230249642634 -0.853718092534433 -0.1650311415031416 0.6415619725190306
Ni 7.200224130097512 4.330875855551411 3.0879184970045914 1.1090995988973738 -0.15309865173161374 2.5229152887267583
Ni 6.1322529679204765 0.8929663917496811 6.677590084293083 0.5937777631562161 1.7700667154158936 -2.0249419715663772
Ni 2.200422165209363 7.418673621181796 3.0506069301573753 0.5514525200254438 0.4302476316786333 0.38141235534348505
Ni 1.0434348321266709 0.2109260690654337 2.5239516008889757 0.47120350526570465 0.5396984648133093 0.08943890878912339
Ni 9.372190839109177 7.151875858242025 1.3663188193057159 0.0006270920610376296 -0.32127322395974345 0.8157876360372467
Ni 7.909233055670955 5.51595645070918 13.353603231098447 0.6946490821519973 3.463719730657738 -0.29869662421080817
Ni 2.321413576222289 5.441205156017513 8.046382968067162 -0.07631239870949438 0.8094465243105672 -0.04624797522394616
Ni 0.5844940158394311 3.10337211290308 4.50293849525963 -0.04656653490562949 0.6002240330021921 -0.027198929012295092
Ni 8.277686635692971 8.751408686994655 8.052921036331908 1.3038470365180255 0.5325603111066312 -0.8419653228738789
Ni 8.60966076664692 8.011353224192458 12.894081975512135 -0.6569222570251847 0.1408100641722478 -1.0542934496907714
Ni 0.42735005917167584 3.2793148732377344 2.008455565408812 -1.6721534506071718 -1.176700071655167 -0.15040722094237965
Ni 1.248557436904265 3.0210147416363755 8.163563911169541 0.3245308116650927 0.04128985988772244 0.5147147982847781
Ni 1.0965566367777253 5.758450059318215 4.570072568941717 -0.4072478283493502 -0.5618498040993678 0.8070104040652488
Ni 6.47595661623007 4.732781313257535 1.1117362853270518 -2.670363941261446 -1.3132426188003123 -0.8167345733315483
Ni 4.207785576033041 4.733329247955859 13.198975130528588 0.9494968274986549 0.4846789140443201 -0.8838048846174843
Ni 6.215037542511298 3.422047218636695 12.100877775675405 0.13839219875937459 0.4433669426694106 1.2319499932674074
Ni 4.804207851644118 7.9971254960936085 3.1755629737586815 0.1690286926983089 -0.6025107721538397 1.0505069860651455
Ni 3.703360607567654 0.2573194213616473 12.883112137111118 -1.0433572623942418 0.08883624220811798 0.38416574971890616
Ni 6.60471198330738 1.8416642432390435 2.0880667622637477 0.5826235463116095 0.661697566926641 -0.5106858796310432
P 4.35691668426497 2.386376342574409 6.077861626434493 1.0787909206115034 -0.21091247741628838 0.39142963037017103
P 2.7402864355188803 6.138428842062601 0.5166318391005877 -2.1440755792064556 -2.2990359667371565 1.329807208027213
P 0.9245032840982913 0.5734062321728413 7.034352223777473 -0.22527106013080558 -1.1590322220617588 1.4180970908135577
P 7.230184084958404 7.9913768252756014 5.684861500630449 0.6443297650721548 0.3285869840123373 0.7079833373670581
P 0.4802684778923354 6.798671579485224 8.341312998602907 -0.012957331491616396 1.0840017753884814 0.4910413659272382
P 9.023713658004018 5.715636856618676 2.983785829345347 -1.366295532761234 -0.5467571714323036 -0.22962162379001747
P 8.140526507565099 2.0666889507032127 3.611026181277064 0.38315530617652077 0.3246159151797312 0.07608151364561092
P 3.656591130605642 0.3092562011397166 3.9119231278072673 -1.5861791033278811 0.3239937082147001 0.1898991083894149
