# total energy = -340893.9507257326 ev
CRYSTAL
PRIMVEC
9.04671374471300 0.00000000000000 0.00000000000000

0.00000000000000 9.04671374471300 0.00000000000000

0.00000000000000 0.00000000000000 13.24078002123009

PRIMCOORD
 96 1
Ni 6.458394515581923 1.9077619045003884 11.554103378147124 0.5586804052324507 0.3778858302474653 0.44397809389084825
Ni 4.261436319363706 0.3459345650236344 6.006587166676643 1.245463711483126 -1.0074286668184327 0.26083970126403466
Ni 2.6947717021573707 1.5428808073109377 4.759080651759671 -0.27085106275344967 -0.11070244615359 -1.3909917499563333
Ni 3.208842152327042 4.524026226561807 4.631518372167027 0.892249672950728 -0.9544202329422015 -0.01579454383009538
Ni 4.968509356185492 4.4523581619017305 2.5712795389861562 0.18527240825068092 0.9141310464048515 0.5454430806065703
Ni 7.414994005250742 6.2052674707461595 2.6114523751297476 -0.7432480741066232 0.07824818227962653 0.11521601775322739
Ni 5.330034122651781 4.370467310941998 11.620081964662196 -0.7481658231232148 -0.26419113423477086 -0.2611356352378987
Ni 5.838694638124819 7.687001541243483 12.375269947443918 -0.5552292134590566 1.794838780154251 0.31994499206662314
Ni 1.6793323876275144 6.359975318985486 0.3462539140115795 -0.870037655630063 0.8236338715545428 -0.08515519381210496
Ni 2.7043883586498803 1.711647248390679 0.332737219312183 0.4772031744925653 -1.8648833435771626 1.1698786778579593
Ni 0.463699253852979 9.190284883391943 4.5115444758913315 1.1469583216163604 -0.42760325207725064 1.1466359052799349
Ni 8.534497665625695 2.289732243565992 1.591422758149939 -0.3462684604525004 0.5597296724325715 -0.43301516712144134
Ni 6.5482736145970515 0.8311957559267048 4.910395982421679 -0.16787426737889152 -0.655603023993129 -0.5493784111052346
Ni 0.7885495483014087 7.364015774455549 2.581369338596782 -0.828703058547334 0.48094541514381695 -0.40051616605247153
Ni 7.555815148206908 3.805608610961463 3.757958666077459 0.4116364443353492 0.3294832705743616 0.419360038231852
Ni 7.556348904305739 3.9570777357536424 12.727381608472337 0.9081735432698359 -0.8082357918319176 -0.4207782587356172
Ni 7.666782136482657 8.82243646416153 6.845046528904227 0.7885144021435904 0.7572942677870442 0.2179660418289601
Ni 6.943795930544856 0.7169864255183915 0.44744321429381595 -0.6309777692452812 -0.1820829547791058 0.015693242365540715
Ni 1.8468051486711041 6.5157868662766365 9.217291132650118 0.7190686486469423 0.12849216603684321 -0.26181260670026524
Ni -0.0432559561178598 4.672636589875498 1.4615969908297066 0.5119292651198408 0.7515023436956154 -0.41740368583642956
Ni 6.340452511167203 2.0573583595898874 7.107597535234109 1.0885464573363706 0.04349740906200251 -0.2234021252428669
Ni 3.2573234901853283 4.582567509876039 0.6490175620246256 1.1756672595152784 -1.0714344802464324 -0.6201171723816933
Ni 5.89536325173637 5.492205509561212 4.795386922536472 -0.2938894326301519 0.5845583014404772 -0.3860033171482771
Ni 5.221464513464004 2.520740073797629 9.64830461048481 -0.16206023180027573 1.375187435934225 -0.4105702078543638
P 0.11031652957225796 5.490631381405335 12.26453726904884 0.6404368577756517 0.1641453964640786 0.3796848311294171
P 4.250661683538138 6.013811872109303 12.525314214853623 -0.7889723156166154 0.9235333135553578 -0.010667507016175177
P 2.223854075571209 8.41778601425235 1.2349370111251627 0.4439063601126484 0.2708698318065271 0.46533084853501144
P 6.103428616431786 7.690810207643621 5.803089487647331 -0.536240845282012 0.07931570431219244 -0.7456571977687481
P 4.711627925230828 0.9644791771617416 12.678258858624098 0.7743486521661697 0.4361223452918553 -0.39230766209975015
P 4.023335865717085 6.143261296146291 8.403168334515195 -0.3986032653004748 1.433495427646499 -1.2713272095134491
P 4.547520541623939 0.9330418476119104 3.611859670442338 0.4431990496329787 0.10870829854169665 1.0095259156670935
P 0.06898480942425401 5.61862428456246 3.7674251471252123 1.0522455660228072 -0.7519376314608212 0.4857546636070021
Ni 1.3718165009921586 1.1483445831389412 2.4614081077200423 0.7136407927631516 -0.7054112057645077 -0.0413299690970385
Ni 1.8185884491413422 6.595560786268122 4.8931303296315045 -1.2304009036127326 -0.8043961063708533 -0.8214278650421595
Ni 6.08620367385254 5.5536598346351695 8.990714382710136 0.13104809968947753 0.34856419846521264 0.9016023178102214
Ni 8.727255991012242 2.326751395369707 10.074776638122668 0.6269084842719138 0.3563932075913282 0.53088215207326
Ni 2.4680972477111633 5.137619572379735 6.876453099628025 -0.8791948966492987 -0.47186247900594214 1.4373826785160473
Ni 0.7824982016148239 8.991031017684021 9.275258854325944 -0.8174927916538115 0.1972761175797764 -0.7698754468861644
Ni 1.3684420768419177 1.0185061504197537 11.456584329547871 0.9013606341130606 0.39863771808283605 -0.5667557260414176
Ni 3.882324741776591 6.86157035118416 1.4113614952161075 0.10735307006538286 -0.25277929285340334 0.5071938073173845
Ni 5.600476577202184 7.947899713009694 7.946374437106931 -0.02183869314164626 -0.2997811155242386 0.7196821138612252
Ni 5.256601948851499 2.9813082600945804 4.842457877753947 -0.41909881415066536 -0.1237461667114256 -0.13223003581272066
Ni 0.7518931697106285 7.499001787178723 7.027212962078706 0.0838794124234749 0.9485023247958697 -0.12198778925942218
Ni 4.946896757539579 4.727884869461345 7.023757117506609 0.39378218976274765 -0.6598412304441926 -0.5439508123317599
Ni 8.058803374290667 7.349224397818434 8.745640722267256 0.6295878308762899 -0.879083567882415 0.1851878189566746
Ni 4.7962508836794955 0.19880605338771656 10.367278598967836 0.40934147765358536 0.418378391044873 0.34803377988303935
Ni 8.143589173583047 7.3205282224710775 4.908886990603287 -0.14105920406857642 -0.5591105507913339 -0.6438813646808266
Ni 7.206313464034641 6.062121322410339 6.75278452554279 0.6833426560002424 -0.8235526246946462 1.2361324067798711
Ni 2.0500667084770345 5.337868576577004 2.6049776422495134 0.6837344921220224 -0.12025075196365742 0.410838373914086
Ni 2.429377313762019 5.3705724460223685 11.483013398482225 -0.21736388946858695 0.011443980170883515 -0.3293446881139683
Ni 1.040353963617694 3.300792948742721 3.612402473254709 -0.4921520824929137 0.1757518703547554 1.228824303154232
Ni 3.5589499663064568 2.6243249438251306 2.650288107012198 -0.24269079826914977 0.07171989424280552 -0.1759058794341164
Ni 1.4142365407789665 3.2668044459747447 8.25079363369771 -0.9250062985564586 0.3507470650491443 -0.8049064703483686
Ni 3.8794659802981024 2.5867901293496627 6.982684133365835 -0.40204237288901074 0.7293497188579762 0.20145930242318855
Ni 3.8137596998605705 6.801011650750616 6.152686162311762 1.8569021251438986 1.294542471287648 -0.5868242146565184
Ni 0.7685318852525133 7.443427825905453 11.292848765867458 0.35644977186087645 -0.2792611411940158 0.22079194131352944
P 0.33710768662312496 5.607623480898405 7.8054130700909035 -0.14613481881927087 0.037213375825503645 1.9178910061224455
P 8.829755255415002 1.4033352509638455 7.8933055108127546 -0.26486296349081484 0.15859978405550104 1.0988352408568882
P 1.8873344253281528 3.334681937661762 10.33309106850199 0.17138999384163386 -0.777022599453907 0.7388771987324371
P 4.056627771542518 6.204344705965129 3.6523762817004313 -1.1634244375921834 -0.28463114725667754 -0.3794470040869981
P 6.906776778741142 3.8501546284300585 10.246125915917942 0.5453412649213834 0.10826015526068451 0.3502297590930936
P 6.684372373085587 7.874992248594704 10.201359158638981 -2.047128020745113 -0.7403355284455184 0.17772647758262292
P 2.207144795663716 8.506461900366723 5.750629405174364 1.0363512633900538 0.10004316666753094 -0.161694878041057
P 6.880957458299352 4.147673896604245 1.616910968876182 0.3630436230283102 -1.0309102948801405 0.5790229734445448
Ni 5.376606603953228 3.047638763766339 0.49291290121479625 -0.74423717749277 -0.824536071653838 -0.38865669561072425
Ni 1.8312086145289723 1.1671074670199053 6.989185101715334 -0.9344011095077972 -0.04684112872325481 0.4649266711180574
Ni 7.087729142958615 0.8314798227318457 9.280621746112173 -0.5847045972103543 -0.5443493333217593 -1.1940575890970082
Ni 2.913548375683577 1.5472956035182233 9.247334363643509 -0.12081562332819193 0.5770026005804062 0.43978153931099745
Ni 6.259158743301079 1.9653804230335898 2.6168279323149304 -0.18443011485504365 0.059617968772948934 0.10000537145106003
Ni 4.34839332990557 6.935454860661418 10.498773484936109 -0.20069954143902854 -0.8913706127798843 -0.5803326933949038
Ni 8.122700312020296 7.072964906462119 0.08952537251573363 0.23655820300885066 0.7218112443890858 0.6017376414332412
Ni 7.925870965540963 3.9412731272001014 8.357580135646847 -0.20802255746300302 -0.37894178231580544 -1.8231180867149182
Ni 3.178662315959204 8.244043880725872 12.439792013079126 0.19660968764037107 0.0835081451269852 -0.10747262636238264
Ni 9.316396070132848 4.901907451107547 10.118828705032005 -0.5067376936165725 -0.024708815600589705 0.22404464392287218
Ni 8.694226439879456 2.3508156533848292 5.92777762634847 -0.5150824660368419 -1.5567857377674286 -0.3346756134085785
Ni 3.680881571392104 2.6440829661954415 11.700122762703097 0.057121427603340325 0.32963368010929683 -1.4069601003601317
Ni 1.439513058408385 3.341177477983137 12.48105045484746 -2.0313882414123534 0.8360900950400247 0.06546002937602276
Ni 3.148165844617483 8.344408120733306 8.111381064039648 0.33755550605953477 -0.36893170637797107 -0.3831015701204499
Ni 5.512506334743895 7.750636124280466 3.549786550162277 0.15489713839293323 1.0578438860461912 0.6595051872610126
Ni 2.890913498407699 8.256392644707319 3.4343405340131112 0.9496752620580484 0.5407790994719976 0.10247440181684286
Ni 3.524717202272914 4.413303499551624 9.462258041873232 0.8007191717398984 -0.8727959351014904 -0.1432749807729726
Ni 7.092415340572087 5.975571413977753 11.327738321303968 0.9372866585857083 -0.16713070434464763 -0.7792643443002321
Ni 0.4404790542110936 9.247098244420126 0.30071366272499095 0.0033979699379554384 -1.880828039831877 1.200478147911371
Ni 4.553988941804696 0.13725130979347014 1.487098771626259 -0.11969539368081966 0.49783473469998774 -0.08424245218984845
Ni 5.958771666934864 5.784667664866808 0.5757762738800275 0.4972297541261372 -0.024915018074124832 -0.0602453179443027
Ni 8.001130575476228 8.992831313678385 11.360191596784288 0.880289158154742 0.26335655414861747 1.101257734255452
Ni 0.22464437192793899 4.514852859032733 6.029136100173895 -0.5323505090886703 1.4133086682859788 -1.4361668038310749
Ni 7.933153569940276 8.803103637327578 2.7688850934871785 -0.14852080255294423 0.7569271142556125 -0.27445626360620473
P 8.309216405064575 1.7071781719021564 3.7802425308680037 -0.3527946916067924 0.3102866430412527 -0.6607961381582942
P 1.740126302613087 3.285395442298458 1.5069327863903021 -0.4053950914113277 -0.38344018440679123 0.6450275624701279
P 4.8784945564672695 1.0186237576957675 8.182007851971324 -1.0150591867804968 -1.0743233717584528 0.1580256567195859
P 8.686835274917668 1.8079766541594855 12.558389904225459 -1.6717215052760757 1.3135699202327442 -0.9561292452135082
P 6.446706161688863 7.921184767927492 1.5574595861798737 -0.342746563342171 -0.9912769967592346 -1.6297482461680837
P 2.0003912044315313 3.210181065930891 5.896397291093938 -0.42027303696442453 -0.20496885823834377 0.4572748109997544
P 6.908007131782515 3.858278577188547 6.133394045688737 -0.023899689435733035 1.3515147749076335 -0.7735760356662033
P 2.655056629718879 8.640226606762063 10.215063120308645 -0.39430849457986283 -1.0874845917307594 1.3860259213106259
