# total energy = -381164.9818606253 ev
CRYSTAL
PRIMVEC
9.20204165287010 0.00000000000000 0.00000000000000
0.00000000000000 9.20204165287010 0.00000000000000
0.00000000000000 0.00000000000000 13.46811811560201
PRIMCOORD
 96 1
Ni 2.603110411542154 2.3211506466913208 13.148452547376843 0.21265979912469826 0.1056430293528116 0.47377100888256474
Ni 4.003651981677985 0.7635891149514732 11.850246884845404 -0.38482498056945985 0.3977794838475988 0.3974413837818897
Ni 6.545292753547687 6.484586883350209 9.963511751842834 -0.06623007477282788 0.020860645499093104 -0.14826986288440272
Ni 5.467172326352476 7.227256076320941 7.64543366693095 1.1971364851326478 -0.11024376134961658 1.1214794606189653
Ni 7.340505605579751 4.591837295783282 5.208121044729872 -2.328203589440048 -1.2490714834390422 -1.9144038189047934
Ni 0.6196664195369473 4.492538061995046 10.663948173664357 2.20429158657472 1.283998891443847 -2.1436107237548954
Ni 1.8264212697886295 0.1464532569279876 12.594401287373492 0.7018965077430298 -0.43716621317533744 -0.45001710099607656
Ni 7.577642224495778 0.7534641082850664 10.33791246867833 -1.0777092575115503 1.3817002973520784 -0.6298462267439991
Ni 1.8574597570064706 2.368642384767596 10.967775670808248 -0.013169704612738609 -0.0637931831965611 0.04654673741128758
Ni 4.360737216332095 5.23728691642775 9.310954474060193 0.3796259528670236 1.7794311873499289 0.7629411816601763
Ni 8.86371039380447 1.3336059175943025 12.286439312818699 0.4561365836302531 1.7419424463758515 0.6416187938988951
Ni 8.327332575411132 6.965034691275109 12.364756050741496 -1.1140168336933332 -1.2766041416416725 0.1550948562260361
Ni 1.036665228583776 7.216673728173738 2.624922931584007 1.0089975539674496 0.31654445102550643 -0.20358046253124937
Ni 0.5054561971072082 1.0991470928616116 9.080366948341005 -2.962019856575389 -1.2761102327243894 2.016222075194876
Ni 4.0726580936396175 8.24314309436873 9.288947790934943 0.3863123637482637 1.896392469929037 3.692593420538137
Ni 6.7106902540675435 9.055655785111004 6.5606169138690245 0.13134043411891574 0.41463357929046013 -0.5027424564142503
Ni 0.24169807106956473 5.654774353897723 8.11167260200881 0.687102894373623 0.4360403271010103 0.7456667108504449
Ni 1.7647491851951018 8.553454350212201 6.078000184676042 -0.08648316859490912 0.4212806522933325 0.8337946141376285
Ni 4.9508181510620215 8.490438767506072 0.20571992777744674 -1.322757500269283 0.7350984484162952 -0.49525926066332776
Ni 1.4481989449657142 3.6140099228979565 7.618497449977477 2.629952113103303 0.5744680070840106 0.33683636850532317
Ni 2.83479021963097 4.688559957848721 12.991225539830815 -1.9905933188831781 0.8370588867111971 1.0003298509901224
Ni 4.850460682459065 3.0277846437103584 5.654414554060719 0.38993864764694136 -0.5845966108775803 -0.5643322042015894
Ni -0.0007370835535573823 8.595019973326043 11.163400038453263 1.2606327059140805 -1.0612817080831465 -1.6110511839792123
Ni 4.1190639907755715 3.3178514074461365 8.114905279316732 -1.1416338240796533 1.2879869295573174 -0.10386279752393725
P 8.173244384345985 7.204048526732031 2.184555537215593 -0.31730935421598905 0.4443876706244411 -1.2491941250598357
Ni 7.109111060788815 2.339214254876503 7.972304917318514 -0.39723466708772237 -0.9251983599626067 -1.2041291144003972
P 8.263212747680948 3.092649836831782 10.973203035101482 -1.732851539818177 -0.887925334543761 0.10835580029828436
Ni 0.8672243508675025 1.2646918260513407 1.2056984558453354 0.520743006756729 0.5588146168174698 0.16830981225441338
P 8.811231149036209 -0.07634934137160551 5.764543670922385 -0.6017240145864863 1.1582971436679472 -0.020993571532531587
P 1.556865857374692 6.426595615503534 6.361073396592798 1.3979018468126052 -0.058163495714609506 1.2291377206295928
P 7.693799598984603 1.9961621340697717 0.4929414201679069 -0.4713649705442334 -0.6897475310853218 0.2911056992374277
Ni 8.755356350818975 2.2532395777118763 3.448161522326612 0.8767472064397546 1.2348872215188602 0.6453661767564692
Ni 7.825499222187015 3.653992794810651 1.7918390762477558 -0.7135016960821261 0.378884960935941 -0.18964585472802822
Ni 4.073118195732975 4.938947517053419 3.8673973477513406 0.43618225199551336 -0.0645064072135018 1.0581369918065777
Ni 0.37993298440601553 1.7233307947511347 7.067503108282385 -0.6091822706367443 -1.7091457115608049 -2.4682022134545942
Ni 9.092353528077131 7.054754599479659 5.079392760846355 -0.013413445192428514 2.3472631771746606 -1.2618159275889045
Ni 2.573921534739607 1.5493293850855099 4.0071423161581885 0.16594156913255292 -0.15977503531052484 1.170645895041287
Ni 2.686582133318921 5.4223859885851375 2.0282450530395324 -0.7903599399927614 -1.4338582103025563 0.06674198141223989
Ni 6.069556391058759 6.832543692472123 12.384109785196452 -1.1712423909747054 -0.13030196555207238 -0.3986053221830038
Ni 8.943206833494635 3.192215929834165 8.833954671222907 -1.4648626291038707 1.384802590426486 1.860853396482163
Ni 6.294316263663492 8.146089158796075 2.052864195850861 1.3488354283032575 -0.17449151558509304 1.0706191834339884
Ni 7.7960158800447195 2.3318250152571953 5.592379909017626 -0.3784720417682385 -0.7524821911103814 0.20117776662702772
Ni 7.228811221396486 8.895475842329814 13.103711299614654 -0.8365742337652947 0.9180722904407868 0.24308880503851685
Ni 7.977185680324841 7.905556986431075 8.233114709141928 -1.9071620497407156 -0.049036079492044575 0.9353917555558408
Ni 4.905019588689298 2.1224141484868415 0.630353670961436 -2.075401670878826 0.7463025446622309 -1.4471017055760238
Ni 2.7726672349859536 1.7794172399313124 6.4857067718454395 0.9061133183066975 -0.11846074994277017 0.16118965626986434
Ni 1.9275517099084252 6.600219741452607 9.967862477237615 0.7255272597880924 -0.9804819630262597 -0.5221460577518426
Ni 4.8946580895469065 1.4815563467340727 9.814702772196862 0.5549947288507473 0.8345530895702079 1.2847226569837489
Ni 3.7948024394615256 6.993515010853886 5.793149138270555 0.09197144540298999 -0.8127452496664971 -1.119819042197407
Ni 2.6224070933375323 1.4873536331103667 8.776526568338502 2.352029745325369 0.22846874113249682 -0.4456115157292132
Ni 8.678353664474802 5.456065461818846 3.2122947851882495 0.9281217042569887 -1.801667115929994 1.2118362532366678
Ni 5.379927767410184 5.402113890351843 6.052437832573332 -0.7583610184886617 -0.608109863508172 -0.05413663394340354
Ni 5.042194426802656 4.41021659545167 1.748175387588208 -1.031938993254971 -1.9888663088897425 -1.2351972965601115
Ni 4.472072720882541 0.5076757296055608 5.389913823244397 0.6986926560937515 0.46436514218763253 -2.3516373949829563
Ni 3.560380422896303 7.169770920776959 11.63454182143793 0.7155904602903547 0.22829622011037456 0.7369663548629695
Ni 6.84295120182385 5.3963810182686185 0.46541075130981735 1.105812700615986 0.08661532329739922 1.1635591633978346
P 8.766923317445961 6.553924268819059 9.981411563682782 0.11552532146353008 0.5887743964043537 1.0643726883036444
Ni 6.25984541482921 4.50266951009076 11.52901924673495 1.402831680014055 1.366393748901995 2.509386401002388
P 2.730825550616098 4.0744340877199745 9.896588982159921 -0.6075755882712569 -0.19458622945243906 -0.18980372046213118
Ni 1.1204774259096266 8.967408203605196 3.9703875205324843 -0.7772964219405839 1.5680926781398155 0.06776862290454135
P 7.793945420624614 4.516196511635446 7.337606042187417 -1.32444260128119 -2.3244713760911258 1.2069077055867987
P 4.560651575895567 2.2634446421425274 3.3766322104850106 -0.49589895112985566 0.9552933795757742 0.30594944911847954
P 6.196093668773711 -0.003090965863170096 8.847476151542473 -0.16067157898286524 -0.7340242415155102 -0.3921389977323698
Ni 0.1892206667096766 8.44418930508186 0.43650437719259133 -0.4270016139375098 -1.8618988070275417 0.5871700280317114
Ni 1.3483475886654501 2.9919887008472097 5.3064927126979 -1.2484893856833272 0.8581481032813286 -1.04773662240886
Ni 5.007364698335556 1.4448309976423435 7.586443057337505 0.6342710952845722 -1.256680920355184 -1.7317313101708045
Ni 3.7935969719769314 8.769757546341038 7.137618066289008 -0.7942747016661352 1.8103265913772049 1.2224091436565077
Ni 4.183469081803637 3.5670979134593104 11.61657575489654 -0.14278184318663797 -1.425925328608725 -1.3050667678577397
Ni 1.2837216486325724 6.3993299654512175 12.039393935220142 -0.36248903607642086 -0.1992160149149666 0.998155726156939
Ni 7.383111059424579 6.396449726346805 6.508306986671119 -0.27541785618852566 2.1898805533557124 0.564167396488951
Ni 3.2106016094846974 6.853763601017732 7.996991235035473 -2.6739251762501435 -3.7559546584036023 -1.2234959489627832
Ni 8.73694306504284 4.6889740497327415 12.509148050291246 -1.7951642818144695 -0.3271615644197204 0.6100865276185687
Ni 8.438309200328762 0.25431223006103115 2.574403721733445 -0.9881451359984724 -1.6796500160945331 -0.6921116604421241
Ni 6.170696033220423 1.2443093033156405 2.0741982097156226 2.2000196986722433 0.8155932606382533 -0.245070611355236
Ni 2.3307115681912722 7.037086679094763 0.4421893986581063 1.7843545927934752 1.9622561625013821 0.27314885764869085
Ni 0.42203692696908424 5.794148480017325 0.9835887712983375 -1.3377902262326897 -0.4133050902870237 -1.2634346941392498
Ni 6.317523813252403 3.3491751579618585 3.6301558255580284 0.4089100465431216 -2.088483700873765 0.13728431040717645
Ni 6.136298800721078 2.1463946695925906 12.146303257632498 1.2348028893351704 -0.6769218400755632 -0.5132798656104643
Ni 5.683052228555424 8.552460529690551 11.102456755575611 0.4376770913734849 1.0387310764761402 -0.7815986488603636
Ni 3.0427563658281844 4.542146269700762 6.214014645309953 0.17801598379858377 0.8758156957644206 -0.2797411661542279
Ni 2.69117395221062 2.6442527407301073 2.0297394646387543 0.7929480124349118 1.4860847717074404 -0.7002615432427682
Ni 1.716613304188127 5.61783735784305 4.258995760632321 1.4964195779745453 0.4211808934906746 0.23692304254743712
Ni 4.253082528528502 0.23199083710392573 2.9172478763939793 -0.3137905424294531 -1.2560042060031336 -1.4781441767041252
Ni 4.641335078986592 6.69834111388185 1.8900487882789234 -1.286894467824087 -0.14031949768907448 -0.5093311653753615
Ni 6.170051890289724 3.7671411016089227 9.551387264373027 0.3975601687479411 -0.9263898091675465 -1.6795906236115072
Ni 0.8996339423235462 8.003825591530193 8.514840742129337 2.1320142771665473 1.1249062269123273 -0.6168888952523827
Ni 0.6114057465528216 3.483000452835579 0.5401709000509689 1.1903947955334402 -0.6908878153373521 0.5963681495912116
Ni 9.283940039750847 4.985335010105639 5.82933800832143 2.661225726405604 -2.142892100421316 0.8906756435953888
P 1.266007718038341 3.829945037352108 3.296348996215206 -0.4035390120391954 -1.326586129986754 -1.3619038314514416
Ni 3.1942035708774656 7.541634634669685 3.7600021575284006 -0.21962646025051852 0.053586674977204485 -1.2301327375530104
P 2.269223524435087 8.87298605200654 1.8041891366376355 0.5325240585520571 0.01552869176321842 0.07122161445014831
Ni 6.405706980465141 5.493665004887953 3.1421393381974116 0.29960370940610986 3.079278101569626 0.5047728565807177
P 5.95999688058867 7.414655658945112 4.384545659254929 -1.0939208342744062 0.21982726340741499 0.285695841075766
P 4.793444831050307 5.319277109463908 13.186271099042388 0.08823537539932545 -0.010600915444297872 -0.17053818736429985
P 1.8932096896602837 0.21566089360651092 10.320403743617735 1.7128429579067341 -1.6066543404630975 1.4315465314502442
Ni 6.624172656432755 0.608079208417853 4.220557911549118 0.3163284783599585 -0.6321237099242661 0.751661494981299
