# total energy = -340863.41299413954 ev
CRYSTAL
PRIMVEC
9.32375169346926 0.00000000000000 0.00000000000000

0.00000000000000 9.32375169346926 0.00000000000000

0.00000000000000 0.00000000000000 13.64625306265667

PRIMCOORD
 96 1
Ni 0.8197796680002403 0.5972375684807685 8.822138394287569 -0.7644139095509609 -0.24229510549262787 0.5902003302176029
Ni 0.729329954051681 2.4971710583577638 4.393697649412287 0.4405454140602154 -0.1740271743541648 -0.914736026978702
Ni 7.445975972421527 8.677046834282363 9.906032905292884 0.058628608276486124 -0.1500056146285868 -0.006427243682582479
Ni 2.6394608310171765 1.0729586827927324 2.7533084995223702 0.2601796990825326 -0.04299835793839692 0.5478529755996435
Ni 6.934400371459818 6.022845152038233 5.339001120004699 0.08666520269872816 0.7744275850332211 -0.028077989183138738
Ni 7.801126993348707 8.371591409205696 5.59171581196917 -1.0873534654695338 0.5783693990209458 -0.8593020143801136
Ni 6.37600089013014 4.531902686510328 12.089924978634363 0.3099948228324468 -0.9492024361866879 -0.7460459485667345
Ni 4.7594488434956475 5.573039405205912 3.9548072185391026 0.5156247116935572 -0.39385006688620555 0.6960215370194915
Ni 8.649150169594796 2.029836658580047 1.7565733505377255 -0.35025161346996453 -0.9357275416287045 -0.021726593043814194
Ni 9.398341579233861 6.255015889800637 6.311186831114223 -0.4418091112639875 0.48238574713476917 0.3093718445364672
Ni 6.382257127431395 6.613737907577862 8.415344045807593 0.5350339694581044 0.6943762881065848 -0.36826399088698514
Ni 6.954502379837623 1.7555318874877253 10.334225263618437 0.06931077058068064 -0.018446893851277908 2.1867540919115886
Ni 5.2575702709466094 5.13821692714128 10.090748544706253 -0.46744378111295626 1.8982727176708856 -0.047992982939510896
Ni 2.8693192783910377 8.109295630131284 1.2241675562008507 1.0481292298615885 -0.8994711303998315 -0.31258186683333267
Ni 3.09092620562837 3.634706044501462 3.2111951418375497 1.1097739992565792 -0.10452588502923289 1.7392114205979339
Ni 5.4585250884637 2.3971178802955033 12.566765875509487 1.5490713998423062 -0.6922389300486078 1.3397038983156346
Ni 3.754684079661761 3.3086637759655213 6.72884428254456 -0.718532059417182 1.6103413023963815 -0.6724239522052097
Ni 8.326128796566465 8.079832575180511 7.701454224350368 0.7639359414732779 -0.13604323891122377 1.468230260024523
Ni 1.082590118161134 7.249524526911153 8.82679187869451 0.4371029640375699 -0.18388195566105753 -0.269210184715917
Ni 7.060271017610271 3.898074055006045 9.775725085771837 1.845531421413112 0.3189988261032699 -0.7494457182769028
Ni 6.27724371353565 3.8200622256474634 5.761024884293723 -0.11195457339313622 -0.6739038791848458 0.020146135930571754
Ni 3.430954101514361 6.615863722935069 8.051070666347554 0.3346429603984301 -0.9861823558451466 1.6143681641675875
Ni 7.662725225092609 5.93755147270606 13.21968488834659 0.8092079259372 0.880440853241258 1.4590421657673518
Ni -0.18060386497245404 7.412270610507906 4.1305981629528254 1.2946872243956284 0.614782133322025 0.9074793454162887
P 4.3728208372792885 2.06687059980298 4.267934226404851 -0.05684297713097307 0.08629187851970946 -0.17148101089354337
P 0.28928151323391227 9.423329233432618 11.083800811822051 0.37303955789875753 -0.17190704268736848 -0.4465800502900696
P 8.580471415554483 5.083775541743317 1.4961749549071375 1.5305021214805512 -1.6959518385783503 0.698245541254004
P 4.676877699620951 2.178839532367484 10.40485827598713 0.8026999496153531 -0.4076646041717947 1.1660631607666112
P 6.726974870355437 1.4922011719894095 0.5787923907563653 -0.21835324996504973 -1.4466949570559084 0.14256098542508353
P 5.918670875783492 8.737166384384446 6.691754398812227 0.07419740924902059 -0.08621114588044507 0.16155449580845083
P 2.8083885619026514 8.475970807994905 9.322491927863599 0.4779369673347963 -3.7358835986853403 -0.1711467674825762
P 7.667368453372825 4.818505485919127 7.39285762737088 -0.30725814062757406 0.5721103054851114 -0.5032749318789526
Ni 8.163130971677411 0.8498310516748719 12.557896190644087 -0.11984554610543874 -0.040120265059653486 -0.33077113614784964
Ni 7.071748555788879 9.305402423616995 2.5296335641875443 1.8720140410846728 -0.5654259514864004 -0.8197090825788398
Ni 4.9499144405002005 7.559837626554071 10.148608949803725 0.7181319957652859 0.45599080208100823 0.3655432495217124
Ni 4.669633144653625 0.17063118029671143 0.2603088876155479 0.7630134296590085 2.3765331297833714 -0.5283305892959997
Ni 3.091075385653437 1.0493789150805475 9.566200808189793 -0.11204790443789091 2.9007155012389525 0.18890897656200367
Ni 2.3796451698595074 6.4233096055795755 4.829914028336142 -0.9285197110263558 -0.7456129747943739 0.5053888928981619
Ni 8.41252267858351 7.167578074391424 1.9787341086181194 -0.5458559997742728 2.261272117724822 -0.8376085885670801
Ni 3.3502663554561374 8.648152528177159 11.90935747629302 0.4985978381182574 -0.8986563478080201 -1.2011888008251506
Ni 2.772585355886523 0.9892593649784642 5.2266377927489245 -2.9991244747371706 -0.9120988464661711 -0.899785833426773
Ni 7.20432297931579 1.6574366972544716 6.65868864625608 -3.0940886842198974 -0.35249927185356067 -1.2932903440481016
Ni -0.04128370718703541 0.8588070273081343 6.53827425952246 1.9350042687639646 -0.6774980242940073 -0.492688414612358
Ni 5.1055465016515615 9.382025013992138 8.563856490262621 0.28914009087062464 -1.619933059849875 0.4222923813872986
Ni 0.08618502998195052 0.3323656368484775 3.907140471029504 -0.3884684908593181 0.5479943862735144 1.305877693794809
Ni 3.322155244482536 1.6847552893449034 12.176414895292545 -1.442080855322665 -0.2792539421051642 0.29292758293751486
Ni 8.886038725649948 5.102628167411185 11.484863850213976 -0.5949877243039172 -1.9437568181456137 -1.4735182478963396
Ni 8.876220815250214 5.260330101410353 4.030147793073824 -0.21327789232467137 -0.7746965224238915 -0.6077812765241597
Ni 1.1811142009664557 6.440157624660603 12.17346765742231 1.274989745966701 0.6572076494760876 0.4935497341713887
Ni 5.387478101525444 2.2768974275944704 8.398831681782967 1.38330672260725 -0.5559766331480425 -0.2215761277777216
Ni 3.632412401616054 2.6469198322705365 0.9657262160241128 -0.09976625885706045 0.2673332794081783 -0.62580496679509
Ni 9.06277976034832 3.258474021281973 6.398946642735789 -0.4513229642916937 1.4107949007251896 0.3749627430633994
Ni 3.3476184100111945 8.629085456223256 6.953488888042323 -0.39393131374610224 0.4823716060673822 0.1062284695426364
Ni 4.731402998783014 7.963267033093624 4.905704940071535 -1.5044038817316028 -2.2829429178300362 0.9764679567708602
Ni 1.110580020364368 3.5673139681773525 2.1046345907735864 -1.159874772567712 2.138963197680555 -0.06938661812393856
Ni 3.406824232459741 5.641093467891258 1.9449317796882042 -0.08852231051212496 0.5723607309330208 -0.26009202446473273
P 7.958763661086909 1.7469353885432275 4.624060511745907 -0.582596549728416 1.0404534584838856 -0.8126074385370521
P 1.260850924364876 8.482320282811827 6.206234021603661 -0.6816542125542261 -1.4172280579450431 -0.15444333868496626
P 0.7242559684490828 7.434507757994486 0.43636649132407884 -0.28449282190660036 -1.1474139210965402 -0.630382044642811
P 6.820734516110175 6.402265898293534 11.052946653137527 0.6510228608216143 0.8960230239502309 -0.899146142960245
P 2.805153220109007 7.832799777420788 3.3839027216081656 0.3650233724625004 1.2326665597184576 -1.6049491848465327
P 3.9586691164380294 5.856686575368069 6.192723905583512 1.1987549945726774 -1.3045564038802242 -0.5516507520791789
P 1.2782490447883388 4.464603847701886 4.753630822518027 1.769156030676166 0.4986983682518637 1.0300204360760197
P 5.349707583928741 4.067244203432254 2.2546201879761534 -0.8626614177706499 0.45789444686162434 0.1515513618491519
Ni 1.4811898213891368 -0.1393900859221689 13.188462441475181 -0.770948368235369 1.682417037316709 -0.8877458715431034
Ni 5.495726857214834 4.4103209660805565 8.03969009518524 0.10132434737279968 1.7536828747412312 -2.32118499203037
Ni 5.649121217990187 0.2673222135440198 11.280102144932203 -1.668320450014327 -1.042575389922895 1.3050387428332815
Ni 5.849414049146042 1.889514197501208 2.6143631565499326 -0.35194339935009067 1.1329743486324422 -0.09445924482185022
Ni 4.085742526540587 3.915425556671674 11.49568499628229 -1.757670655744386 0.9498015032232674 0.647017339206647
Ni 1.6152560451667197 4.617970237222538 7.2037747427236685 1.3110795497107226 0.7519890535240469 -0.871817373238305
Ni 3.370219183808876 6.4212397327317685 12.989800334468342 0.16471695269683245 0.28640880798239066 0.12467973426928851
Ni 8.70799236573224 5.585206901000456 9.211220411916285 0.10838022577831657 0.5723617593742852 -1.2446018777034629
Ni 7.351246656503853 3.819801160603596 3.3262744779247044 -0.7460621465166506 -1.30442784872216 -0.3820430469489485
Ni 6.5856920628652285 6.0139036742857686 1.660871567331644 -3.5459505517341965 -0.558944971747747 0.7834238749945603
Ni 4.806384608882418 4.808249359195758 0.2408949721033646 0.8659244047926377 -0.9815384293152322 -0.12473758409041744
Ni 6.0235164621510355 0.40430024493588335 4.621739829980955 1.2421583012589767 2.249271750829836 0.2287788161737479
Ni 0.5446758513986525 3.6631341630283316 13.216573552448782 -0.012929563577474507 -0.30167499011284177 0.7114509842006844
Ni 8.520780758024467 7.659797567100665 11.913069261791723 0.0562074004295032 0.9154168550958105 -0.8972491830478484
Ni 0.8550225165472106 -0.485599629096883 2.0413020758816183 -0.4725803310085732 1.375688801050676 -0.36277777096143327
Ni 4.7185268978694 8.99041812443916 2.7522446594686096 -0.9105865235867027 -0.40198606572977863 -0.7800649858246566
Ni 7.189274444287135 8.373857080836403 0.0541681994770585 -1.6623328649723241 0.06446706933513414 1.2695978855271683
Ni 1.1161649475528215 6.38899819981412 2.4236150498729088 2.2008193117554034 -1.127163655487936 -0.06740866846196132
Ni 0.6864668033492466 3.238427955413568 8.805203664316972 -0.3399116649965372 -0.1791431554244915 -0.051582242952665995
Ni 3.4947472097337244 3.49631359999693 9.036726401345488 -1.6789707306393213 1.0481150887942012 0.941834425857391
Ni 1.0759422832940766 2.173394461452531 10.791115196891136 -0.2479034528183408 -0.2513142782721026 1.5248940312651544
Ni 7.143299025311737 3.7255287085126896 0.5972636749851552 -0.3143844672597102 -0.5489102132195643 0.26344088633230756
Ni 4.587015382021093 1.3458275961437822 6.348974131463745 2.5282487851245294 -1.309820480492641 0.7165183714212628
Ni 3.194401200515609 6.1254157430235034 10.591921636044995 -0.9608996700189579 0.369163619883119 0.025236663079601703
P 6.527260111796718 7.466684024651169 3.540315180765659 0.2399592582705996 -0.6141514417165616 0.29005437515477783
P 7.844295963102529 1.5781102189249858 8.574241284757612 2.2911683910636214 -0.7001520142480974 -0.5160057491820597
P 2.698079257117021 4.303293621846405 13.15112547832633 -0.18106402659628815 -0.0620466328190996 0.621230202940214
P 1.5014503335435765 5.0410074933068625 10.058284174126161 -1.669920190401279 -0.39847239614956537 -0.9347209547410612
P 1.5145035857369566 1.7997451174170178 1.0592341204865496 -0.16065358126073623 -1.4073125986035442 -1.1734998195503146
P 8.303574641526618 2.853273101944747 11.827329907134661 0.007178262915994089 1.805036546622859 -0.5381015526398346
P 4.900181549643422 7.487513285651177 0.4842579412464348 0.6551978181349103 -1.810799417248565 0.38362916048914575
P 1.8294599136600915 2.171697538667391 6.904963423013431 -0.6921908504194917 0.9803521223166148 0.754076789291011
