# total energy = -340855.5421780925 ev
CRYSTAL
PRIMVEC
9.35953955183788 0.00000000000000 0.00000000000000

0.00000000000000 9.35953955183788 0.00000000000000

0.00000000000000 0.00000000000000 13.69863221086553

PRIMCOORD
 96 1
Ni 7.8649051030254284 2.6345979962614017 1.0591441853753365 -0.3993699682631703 1.4541843234544183 -2.4607223601377815
Ni 2.3687777208257876 9.277970907193142 1.9863563048888928 -1.2765771450584789 1.2024985207755097 -1.6570183947379464
Ni 3.6683684706157895 6.4174149133412834 8.420685777638903 1.3391205150083387 0.07239840836706886 0.39980757002122114
Ni 9.613931570083933 8.863773855359486 5.739370576954793 -1.000928918026702 -0.14054884009106117 -1.4106915423781061
Ni 5.7819770717204 1.9473457451193201 10.272398558133087 -0.9088014066618221 2.691967121353519 -1.8552663893126884
Ni 0.3621917077108978 3.4554857494164293 13.101097488096345 0.4445825602440666 -1.450581179484192 0.8094866335198834
Ni 0.7217683601435761 3.427528805550855 10.709548944126748 0.37215072753590106 0.10004059556436966 -0.2012839531875888
Ni 1.2795519761655645 2.2173871727756818 5.096712786723966 -0.2904456970559256 -0.18058554429797288 0.17398140871789392
Ni 2.5318021762160035 2.0657439171646885 7.076630664533807 0.08667574422168943 -0.8280320006222385 -1.6261013934441155
Ni 1.385324129705858 6.288318787885016 2.303027893252546 -2.1782221431811775 1.3159088527785658 2.112496261738278
Ni 0.2377659923614013 1.433104577792151 1.4530956177661987 1.83690588452763 -1.4638025632704725 -0.49094032157299966
Ni 3.1251408101009126 4.0708473792557065 12.509658840687736 -0.1900502892552985 -1.680707767935086 0.9253495408284902
Ni 3.289016983566712 4.014484233638536 4.607069424610429 0.49629850056111946 -3.2157923665799966 0.500218404440816
Ni 2.967516808882252 0.4520479646849343 4.376123728531198 -1.3935571966906646 -1.5989011788802399 -0.3964918753844269
Ni 5.409495486511742 2.084799939163453 7.210521681969428 -1.6324201365732918 -0.5806941904993806 0.12255728860964701
Ni 8.834806081250363 1.8931820912357986 6.804315804783388 0.8479428806135525 -0.36679229143746506 0.08054340607170644
Ni 5.8382934196411105 4.159641328520086 5.5955210097123524 0.04281221006951982 -2.0184759042260594 -0.8465979365498839
Ni 0.4084867969115308 3.751752606169322 1.8212465441443917 0.6214052950654976 1.4301658490526339 -0.06166662377186154
Ni 5.996366678745793 6.671142664011472 2.5995483935202555 0.234785427379144 0.3844485710666476 -1.486017665914931
Ni 4.423177876368422 4.646571360192837 7.2365486888329675 -2.0690456467538105 -2.5505217375901172 1.9542836858188666
Ni 0.7719925839390428 5.869479404562468 7.689768467837275 -0.689747788195638 -0.04407796415582086 -0.06346151088875522
Ni 1.9068750972201758 7.560514166166972 8.851494139808219 -2.6013437053379906 0.29939467871909725 -0.031963697390790115
Ni 7.78827855484081 4.6957089414764885 12.510508686855461 -0.6509192453642144 -0.8815921932368818 -0.8463590810662004
Ni 4.873175165994452 8.32063043069824 0.2565683708453492 0.99436283477341 -0.01963114396736619 0.409756710814133
P 7.925040142977325 6.758401648831946 6.901288119481228 0.23866522204952445 -0.9986730321129897 -1.0207333543471389
P 8.699214435525363 1.4441956318533178 12.771740916130074 -0.08825157334924157 -0.4245068725401141 0.9992013938126341
P 2.300790027407799 4.7453238592640385 8.871247447484247 0.19906637671097974 0.10124618583669659 0.13214570362903047
P 3.4395090158447736 7.666763656211163 10.66109741707321 0.5268138955411572 0.9838987020172926 -0.4311619159627865
P 2.518633304431985 2.710747207942122 0.7736866605509173 -0.9393062601188985 0.3825582960224702 -0.6719035609253654
P 5.280165372573172 3.7904355820636706 8.986234067457637 1.4572380226790773 0.09865965605644299 1.1928332297716036
P 6.4262690375116325 8.123827398002748 12.194891918570029 -1.0748373352803942 -1.1374987188653571 0.31212806712536567
P 5.306016420098019 4.2721149121935404 11.754110967284955 0.6559894607982703 -0.45565064513277015 0.19298983149959664
Ni 2.726068773763329 7.922662819997126 6.14605566255259 -0.3297473228690257 -0.5933203639038234 0.20534963861653022
Ni 3.2900933305853055 9.051123753369932 8.110000550606493 2.6292877400464265 1.4478704654212482 0.4604285261373877
Ni 7.857716976849077 0.35764952329243 3.320164594376971 1.5109776782943785 2.176920907871251 -0.07146586925047047
Ni 5.89077235645205 8.824772655129207 3.2041643362982444 -1.4203318936813474 -4.118580220057887 1.5329320710782823
Ni 8.350627754129496 7.602491699892148 3.9157953794345213 0.45953069691346665 -0.7508847647162745 0.7881184522567523
Ni 3.115678315876575 8.89996719380213 12.446412689875137 -0.705447972539714 0.10753124751445996 0.4834033897660061
Ni 1.30729365062742 1.2146529307139768 9.612741036685977 -1.1029346077372424 -0.8391476509194257 -2.9289423572951296
Ni 4.351128142897651 1.8929387432142033 12.28800155140201 -0.9877836388939956 1.7689886518603664 -0.6990806355607896
Ni 0.6062323352137391 8.756204670275105 12.91735756439087 -0.425396474233919 0.8948182050088526 1.7968897491460085
Ni 2.2078778808548836 2.190937114736139 2.880904568226866 0.07250382359668157 0.9511029956435104 -0.24331506211671
Ni 0.9244753902245395 3.237221293124098 8.243959892678946 0.29144559907534967 -0.05395382850863611 -0.11113259171247312
Ni 8.392361939833076 7.296949539700759 11.166590223024029 -1.2114511019831071 1.1601748203066342 0.8108395480033519
Ni 1.1607513439306347 8.23770491257002 10.86872756482183 1.82201816878252 -0.40187370852163046 0.1964137695794811
Ni 7.257592676977378 5.296703678502355 0.9823809879170522 -1.672179675859417 -2.6471324815373314 0.4881571024009077
Ni 7.222372730621116 0.15053508615880562 7.242330076253712 -0.7726195852902048 -0.7685706120318119 0.2998873020847997
Ni 2.5857131225386376 5.0868160098764745 0.9908523069303536 1.4649446472947156 -1.6057464839368474 -1.5752346885012354
Ni 7.320367107009654 3.595860119719705 10.491714090687925 -0.8439805535316949 0.5564851973533449 0.9111004871086438
Ni 4.777642348439743 5.209950108803658 3.637178741878716 1.1832648693568784 0.14505598393279534 -1.5800711906579303
Ni 8.351217405104899 7.584015969329495 8.802919066836026 -0.3492576249878114 -1.5967249971645274 -1.014361389382524
Ni 1.7876439261778083 4.33860507932479 6.1556173678934245 -0.9741688763240385 0.17481084659772475 1.2005719931767582
Ni 2.835229080527372 6.602995858425518 4.218534357607918 -0.19422010436227197 -0.16230242971806888 -0.4640548100360653
Ni 4.141334069664691 0.5833856998016644 10.538685874579377 -2.016805972722804 -3.639590385978545 -0.5521050660077782
Ni 4.422157686585581 2.995324000119153 1.8881644422212907 -0.16181854810311486 3.5769793960155427 2.065672873626836
Ni 8.096797048527094 5.267876297482613 3.323781120359448 0.6369884942157352 -1.1834173357743423 0.40837757107841927
P 6.974756759108683 8.744130864588266 5.176561824286864 -0.6502273615035125 0.18393517749649613 0.5849686495050184
P 7.121607930602109 3.069039731583921 7.458919175012754 3.042975153373533 1.3340713826202057 -0.2009589657480023
P 1.5097311259767703 7.0789190718907316 13.998083911419915 -0.14799475484614513 0.1504182766859732 -0.692553118854917
P 1.650648349558989 4.4188350501368765 3.410479468776322 -0.9106729126529219 0.5703141328166372 0.4205183202060113
P 8.916149837238212 5.434569692275342 10.534329944992823 0.04267697004323618 -1.2594386856059794 0.9671631344301665
P 6.678602216827295 2.704139373201883 2.6763424774582036 -1.08590259195562 -0.13941472648661798 2.199096929747658
P 8.997587188618983 9.1899631592293 9.889863891770759 -0.3961411769132274 0.20494828941305346 0.4955994176115659
P 4.835194155547013 5.306821340477142 0.8361260190765349 0.6483820807646575 -0.13953325434235325 0.8395505427847992
Ni 5.798730647053302 3.1995210688554216 13.758220446303149 0.47447086316306664 1.1460507222004264 -1.1853783161554552
Ni 5.003740739119582 1.3318343626513693 3.4106994179496866 -1.4170614504601917 2.9597770832877996 0.5221751112175652
Ni 8.454097461003926 4.475366667461305 8.802960248808912 -0.37862193708254144 0.17904416795278197 -2.3249388026458475
Ni 6.330380557463822 5.732034570057627 8.362384271434333 1.1834039660379037 -0.7177252472451704 -1.6510176970698214
Ni 4.623294185973325 6.24915847548677 12.540988026560264 0.7850984344835059 0.5480044135758433 0.6796502947503198
Ni 6.654426526835739 6.209389793034536 5.036000263197745 0.24665621067480104 1.0869665144437601 0.9108022391419346
Ni 3.6963441335599483 2.3278671745799135 8.89095957318739 -0.5177294167413857 0.45609518886935646 1.8974085698983774
Ni 0.13796428893555387 8.420122333373516 1.7935891055361655 0.6517309426322324 0.42281894331472986 -0.3830560615944952
Ni 4.265273088970998 1.3061611463730731 0.6398003228849418 -0.8708444678020744 -2.8179591466763276 0.21117884370379758
Ni 7.799079463183921 1.4172120800741244 9.471370811402018 0.8932503463011003 0.7407474191719565 -1.1300085811358989
Ni 5.393050775975479 7.512892830248646 7.006041955146538 0.224162143337343 -0.5123090170567628 0.05796269255771309
Ni 0.5147147600153505 6.188255953312919 5.303384517649073 -0.6588462135207751 0.11019079662449409 -0.22699241369728648
Ni 6.400577102154752 8.463045180567198 10.043522256191345 0.725172447551835 1.6321110899733051 -0.20050953691540951
Ni 8.166956155060856 4.039081102898237 5.763370307607658 1.293548739915811 0.6715420638208885 0.03596022014469291
Ni 7.656805106404343 8.849837501353514 0.05331567962365517 0.6523786035185603 0.5965440130474435 0.06735133286146465
Ni 1.017896695714946 5.471848737275872 12.127878553192351 -0.3173965146131566 1.3066683080169044 0.7606953230487932
Ni 6.4731884079830495 0.9865609581649148 12.009603927065639 1.9186718501525282 -1.155159883590546 2.600029871622574
Ni 6.474554900719701 0.7078862914654979 1.5152055205087336 -0.8760730631908653 1.477487516956733 -1.6065486681231687
Ni 5.4616655585260405 6.426559183229688 10.207206559101655 -1.4690586694630894 -0.37060163788122624 1.9167476365466216
Ni 8.754426357809601 2.5589822783203315 3.7278633180801055 -0.7840036587574305 0.8034818220867002 -0.3248187752191567
Ni 2.9874245489566 5.684338357824963 10.99071324827787 -0.6613126727833966 -0.6107874103403351 -2.708823273678909
Ni 8.439253231686617 6.642408878384653 13.394892490522187 1.927079614600249 1.436338553522249 0.3011605123702684
Ni 4.708175847813598 0.08891936709089489 5.918342751344859 1.7633733625561179 -2.745732745110749 0.8154122549756989
Ni 6.823469165990791 1.731935948311086 5.237672128233 0.0017082409403583482 0.11715180132335952 -0.4335252739886405
P 1.4288366278749423 0.1141910591335589 7.287165077324773 -0.32286113727215365 0.867270634407887 0.5956847503709418
P 0.620032975899976 0.5756762472867418 3.5986576860141213 1.306375459366834 0.05996558192035478 -0.0690667728906746
P 4.239506277299781 5.823683178806105 5.670795104469259 0.4762881188774636 2.959688637339051 -1.3679523516383667
P 5.250823216892363 0.4135942975032429 8.70305559045085 1.0110672920122845 -0.13754656292962764 -1.3732686216449574
P 8.081428685009426 6.960474102148902 1.9156992708647904 -0.7036106622206593 -0.5113181138984032 -0.5435196383316123
P 4.1938785232506754 1.892779631046237 5.402398147866524 -1.0832654114430893 4.304511602048806 -1.2454050903310487
P 2.3544014684730854 1.8130363562773406 11.168425628679216 1.8348860258841238 1.0827193091316323 2.3023010106416737
P 3.743197987256321 8.117472270823395 2.795959261519407 2.2344588541867196 -1.3711335775798257 1.319147928541154
