# total energy = -340891.38383548363 ev
CRYSTAL
PRIMVEC
9.08533741870275 0.00000000000000 0.00000000000000

0.00000000000000 9.08533741870275 0.00000000000000

0.00000000000000 0.00000000000000 13.29730967225376

PRIMCOORD
 96 1
Ni 6.250602918369407 1.8642748368252477 11.508581877878774 1.3203347497604037 0.3760801444972942 0.2511805809077158
Ni 4.770419793866154 0.2688323999454572 6.076019080163818 -0.6443462201323871 -0.11811956455326754 -0.8985439905998719
Ni 2.853658964466297 1.686174973152051 4.7372192464080625 -0.29237685264036745 -0.9650036648850026 -0.4581003922248433
Ni 3.327304844835362 4.316461839048271 4.840685791195568 0.7240321632998047 0.2697362324227161 -0.02299697511580556
Ni 5.263381100964251 4.854895258460012 2.54574326127392 -0.5818822972702108 -0.2288556921582704 0.9332443701955346
Ni 7.453874052621402 6.170806402395234 2.628226311436133 0.15481897685683013 -0.2650578531104403 0.2438117992474704
Ni 5.075696206623542 4.420906874644204 11.779886398056108 0.31385919088385944 -0.34560485872657254 -0.5739162483455987
Ni 5.449975754849887 7.845025071889991 12.402786196724579 -0.3807778070832797 0.6713559159520116 0.9611943184412414
Ni 1.4774756940398226 6.594610123293242 0.5025463377656083 0.5272149876343178 -0.30254813674641445 -0.514928714067797
Ni 2.697509275288557 1.647307900928721 0.3551485538409618 -0.07580383450419204 -0.07653788445673915 0.32410889363632567
Ni 0.4031654690834866 0.17003753550793685 4.534715258681783 -0.15188277704664166 1.0710709262594262 0.5962483361838956
Ni 8.545023041406331 2.1530341066882905 1.3976001356326582 0.43371142185751754 0.7940589861109034 -1.1227770963844663
Ni 6.793179251510422 0.6227099151225471 4.706023832853592 0.6844541438968664 1.3956688437170286 0.3145906697332453
Ni 0.5796127099335364 7.501935486015843 2.5705562254976546 0.08017342432679742 0.49312524503946037 0.3532428348878045
Ni 7.614566410361944 4.039886006270662 3.8118731174968272 0.861785957144232 -1.7754529194284714 -0.8708372687132228
Ni 7.473107711316304 3.8626401642872716 12.791267035411954 0.21934672422657064 -0.37783080863981383 -0.8689955875187937
Ni 8.342765266316157 8.910208167169948 7.060445339335425 -1.3725263441622941 -0.1793642702963621 -0.9094531813132078
Ni 6.984234805924729 0.603756084811114 0.1315802119889716 -0.13042435006254957 -0.49695927407357 0.8117723442302665
Ni 1.8457952611117714 6.467588024940185 9.405785142826506 1.1663236135168493 0.379644721920101 -0.15271195781615635
Ni 9.056273132138267 4.841003777994964 1.2960578652483554 -0.05054017484139683 -0.1465672783709992 0.7565633031582906
Ni 6.452842522785331 1.7581308431868272 6.99329470410638 0.7074878857878784 0.9734026875819752 0.40819810807776147
Ni 3.4360745009030818 4.325256445385854 0.5641621856177358 0.7947734956794248 0.31698436677640246 -0.8794180684036983
Ni 6.456821900446345 5.584902096502218 4.853397994901712 -1.5827165987005773 1.9092287024617574 0.7680931581747611
Ni 5.436692991972255 2.7299075874784577 9.492710014309425 -0.2132313553574521 0.22019210294600142 -1.1155430405298723
P 8.849027506966136 5.651388593587381 12.316738968807995 1.6963503595683496 0.0011557108709980095 1.021987024248582
P 3.893057872983791 6.121382168431953 12.572379459247074 -0.7093244247759849 -0.10776058991644666 0.9972093030832695
P 2.241143706132389 8.505211094121938 1.476706165985284 1.2708057897923404 -0.5334447705941135 -0.05165191984833685
P 6.630578972973503 7.857744543865836 5.78310599416695 -0.730968999628954 -0.5117685711722606 0.875430287400544
P 4.589512561021146 0.8718026030952065 12.832036577229387 0.6863241072260696 -0.1404591085907323 -2.504790296991273
P 4.042884167522111 6.1144137148566164 8.402556778473462 -0.6016206562394026 1.1121586974386717 -2.0654502160930686
P 4.652346752581816 0.9455746320213909 3.5648091853043145 0.7867526822574774 1.2937677979051525 1.71973351437898
P 0.2720622372936091 5.656612662434603 3.6451117545563827 0.2594219949809016 -0.6244744209091245 0.5448429851287262
Ni 1.3470556796017907 1.0186752545339932 2.6145038182416225 0.636230275893472 1.0951423653863335 -0.7361094061793129
Ni 2.030909005045934 6.6681105006393695 4.712846012501208 -0.5216457210766565 0.17082949335247355 1.1555422066306293
Ni 6.060301446936524 5.555838103037414 9.308648352414409 0.08636104119474805 -0.34308543473882847 -1.136778809980197
Ni 8.671427336834848 2.397738576829284 10.213024614706038 -0.6589809393264263 0.09025009183650909 0.549417491873286
Ni 2.2127520276148793 5.178905636370393 7.068942855149001 0.4415972523634975 0.37452102754029043 0.10776161835771118
Ni 0.4430610014694348 0.2299298949073374 9.289008579149991 0.8096673820721216 -0.13629623546229427 -0.08247687564899343
Ni 1.5667663873102498 1.1414908417978955 11.337232419689899 -0.140572494240145 0.9666908227794384 0.8107361896562681
Ni 3.7566233653686094 6.691532499749174 1.4435828438927605 0.62840435209115 0.958198469037711 0.051100675330557156
Ni 5.776875269966211 7.921787085264212 8.131451227179179 -0.7709565957654851 -0.19229203410162368 -1.2914530337290469
Ni 5.0476770269281825 2.686397907983944 5.1187061925761475 1.3139771829734919 0.08775149378437144 -0.6893734355753547
Ni 1.1508759950486436 7.702848631211428 7.399673656931192 0.19236171099729452 -0.7196265780329413 -0.9875848926196281
Ni 5.036556574286444 4.653564187756648 6.992974900239559 -0.5701482966627343 1.127046927404414 0.5778176402825339
Ni 8.310167076709492 7.3193020391169705 9.36556072123661 -0.5793309916032667 -1.0215051995161568 -0.5918085552449872
Ni 4.6825918398729485 0.26655652299549365 10.513770169838889 -0.7405036785922666 -0.4566803719488651 -0.609167358238409
Ni 8.583363164076376 7.321646056095376 5.063788055253014 -0.3661356316900727 -1.5726232190203173 0.0018511942761258442
Ni 7.314414127743396 6.223246968284215 7.171185605025688 0.45989219401794346 -0.1820132778834349 -0.3377084866976313
Ni 2.3497861674803504 5.170238224752568 2.769270719108845 -0.43064075335199375 0.21580580095284768 -0.9305012602327587
Ni 1.8394900371466028 5.3421600591803555 11.69458416778382 1.8418976813152665 0.7240195648943144 -0.1342977169750268
Ni 0.9680335853958818 3.434738956345618 3.767792878830826 0.3134300737662409 -0.5402239982994761 -0.4303059957203944
Ni 3.78110834892211 2.900530218697283 2.653610743365068 -0.2478800557795731 -0.5065286629295599 0.04009146870424708
Ni 1.2966411438918193 3.182938837909529 8.380562994359803 -0.7313387242635468 1.0939987387001933 0.20836451418345406
Ni 3.6814785420027465 2.8548945703153787 7.144670957158328 -0.6914241474567963 -0.7126056666304178 0.4520685842084667
Ni 4.529940005488566 6.923144999092174 5.9187518945196285 -0.2810166904325418 -0.1357007679701405 0.7500674110213017
Ni 0.7371706263657448 7.733438961313334 11.353109954850604 0.066776177084285 -1.4170910181465466 0.2923796808538448
P 0.21834427300476839 5.706264029826024 8.103486559506573 0.16094540146954217 -0.09037324767793468 -1.05030746845983
P 8.509372178525465 1.684476015109563 8.047611736184114 0.6050242826043127 1.44060015701208 -0.4466013904463083
P 2.0324080856716584 3.3363720112867137 10.664428681257915 -1.0033773795671945 -0.20642307418636707 -0.3242996694908931
P 4.091990414685996 6.156478825748159 3.9493542559488777 0.4312765871637798 0.2030973522472438 -1.0252754651918667
P 6.958096291014368 4.021887953424843 10.559659299126599 0.1934102068664669 -0.6809445880817111 -0.5353242470050135
P 6.189994634404508 7.767227330083452 10.191749480759015 0.6778168410860068 0.13416916181696248 0.39186029014968643
P 2.2564434138519047 8.781686988191167 5.48673593739379 0.36308270379636176 -0.7310587311292829 1.6290661324993942
P 6.948138761524707 3.9074308763164947 1.589693235546709 -0.0016905003285454757 0.47891450075671715 0.3126011501070423
Ni 5.417041407769576 2.5624466535793418 0.540527589619192 -0.6293525749370323 1.4080780160146589 -0.5711543693297454
Ni 1.6479893012131412 1.3120680463310932 7.141705503120532 -0.4898874548284531 -1.4684845421271742 -1.6118896207201077
Ni 6.969080463599223 0.6169407260477892 9.189930252194152 -0.5773206460414574 0.5262783347526613 0.36548000038394474
Ni 2.82447686161886 1.5822296310980262 9.314791857378742 0.2914571690395754 -0.4139977454786741 -0.20705145179898532
Ni 6.334596860095607 1.9563274725818582 2.5922574617558705 0.08923810563222695 0.4126844259838892 0.7312777891186245
Ni 4.3039604151634405 6.585833687629909 10.508956758229745 -0.9510361469613171 0.925968662469728 0.3375135970780058
Ni 8.28308368673807 7.439528305300075 0.22317948942301435 -1.2969690784512695 -0.8461379661943299 0.02843357275034458
Ni 7.835994246787142 3.9125368357810837 8.109603716993242 0.027343425009959364 -0.48165066874095763 0.259290868719676
Ni 2.82034303322671 8.247814408016477 12.442917039342081 1.7276201162159084 -0.10083403799994248 0.12295066739332372
Ni 0.2955033156113776 4.687288959166885 10.060531773721353 -1.3252370721580276 0.5524837895034356 0.4891413206910479
Ni 8.658753291544631 2.432435479311962 5.680224545090333 -0.2052254543338401 -0.446193099264296 0.8275303783954716
Ni 3.8490030732617417 2.448770915463796 11.376606453724838 -0.2479232503126827 -0.15732348844623872 0.898408236352956
Ni 0.9078841109558266 3.4776944302754695 12.846490440062507 0.11398188823581015 -1.1607492047528656 -0.9420411425515584
Ni 3.3532707383403357 8.509999066787131 7.913282301180935 -0.6248814265395561 -1.168174036462027 0.6893351261382515
Ni 5.721836297659308 7.89583936243349 3.648448798882616 -0.1438146553265265 -0.8951581048467744 -0.48343450011425776
Ni 3.3523985459762775 8.271481711228674 3.4450135641009627 -1.2659582318920521 0.2871297453088152 0.4610016250320383
Ni 3.465074897008007 4.272888562193878 9.279925967625527 -0.013564368947995993 -0.3984243165204493 0.5521441467758297
Ni 7.0205034717301364 6.216823634936414 11.414835735281951 0.31862781591709644 -0.9624035082579941 0.5719328993669828
Ni 0.7522859017416107 0.04214597039196009 0.12319989702431534 -0.8881287088038188 0.6195222191101718 0.20036761202090655
Ni 4.560839237052742 0.2570932358454655 1.544482780942283 0.2254824048106633 -1.3154249711636121 -0.10568853787876635
Ni 5.862904327208546 5.684395623364697 0.38292788063620575 0.553522515180595 0.477398578332823 0.09760653220158029
Ni 7.828989451863302 8.756675055084381 11.265547292701465 -0.7163214249191082 1.0688893452270753 0.8281093908273932
Ni 9.151569233248718 4.821025121655763 5.764901704168379 -0.17286966371095389 0.5529188201583252 0.4856654463273055
Ni 7.7118158589544 9.002724155119964 2.4878869259243674 0.7699651783864933 -0.2880653697492071 -0.10898057836647682
P 8.381332522414342 1.8718883493365033 3.5261801489136757 -0.022981034276205584 -0.8738475162944563 0.7889309208557188
P 1.859214304046287 3.333273911326883 1.544735353314375 -1.1042924073167175 -0.6828811429827916 1.0031164125963241
P 4.625163423902012 1.126945217059805 8.114257226668975 1.0961013868654927 0.06578090305055123 0.39647696298609136
P 8.689270938949532 1.5693829644024235 12.296354197899277 -1.0810205812729705 0.2851674793761218 0.7250274373335385
P 6.429057110190501 7.55831000288021 1.4394208509555217 -1.2116040826212038 1.1975833428620795 -1.0453547524402447
P 1.867590984876093 3.2075419308456623 5.90001611229921 -1.6752997095456372 0.5584091538489351 1.1594160877637387
P 6.765441717265955 3.920413823068982 6.168648634827903 1.6453774680649083 -0.9082529903575197 -1.1156636252681367
P 2.3512307360833216 8.525271518495272 10.174063963510315 1.128912776968559 0.03192513084337082 -0.6905875104881138
