# total energy = -340857.9062024406 ev
CRYSTAL
PRIMVEC
9.37918116678551 0.00000000000000 0.00000000000000

0.00000000000000 9.37918116678551 0.00000000000000

0.00000000000000 0.00000000000000 13.72737969974830

PRIMCOORD
 96 1
Ni 7.304112464395716 7.219268390430602 12.497021867598908 -0.7106467431318342 -1.0236279022861146 -1.1831165167044722
Ni 0.9779203373836536 2.7803926396683685 5.800188881808494 -0.14928082064742032 0.5605930488741313 -0.5599597861655067
Ni 4.777492332938056 0.9857144370370925 9.303470664520455 1.6171369851619761 0.328480283231144 1.2577150180466532
Ni 1.7333102194393968 0.7874995092080277 4.536514903845544 0.47855377498318874 -1.87270823893822 -1.2518971258132956
Ni 8.11732499911506 4.791532967331796 1.378174085254427 0.8212077786115535 -1.5143648495990565 0.9659827409688203
Ni 7.103979493992489 8.332211421690198 6.478746386558531 0.20247257417905132 -0.5482029027398946 -0.3195145893974239
Ni 5.063604258242697 8.174228492012068 13.077045445370402 1.073823035083267 2.0648048691995857 0.8251865607536434
Ni 2.46024366545599 4.851578485961539 4.425858385047423 -0.43810877959426486 0.7892211984026278 0.18752829416439318
Ni 5.543630756754138 2.028079129076317 11.77901177466328 -1.2159240501527964 0.30984904128320184 -0.8071716122334615
Ni 2.867290754336373 7.619947015213892 4.526905932612153 -0.9554551019646191 0.8132381301425156 -1.4660977870625524
Ni 3.1947554899563118 6.318050997650829 2.3374983198909405 -1.3194451480665985 0.45808290872334656 0.17452031194049944
Ni 3.346895189689686 2.2291875343338847 5.37034287904414 -1.120199308354961 0.6850704373246266 -0.6720619408801006
Ni 7.057364962972523 8.199692969219152 3.488277906399559 0.2880021206114395 -0.7752307976608068 1.8790665770560802
Ni 4.591887714355741 8.216059640573244 6.97199940652759 0.8220798968038616 -1.0344669018831474 -0.2946844177276215
Ni 7.460369624716165 7.384145018358164 1.019087439909375 0.5113525666807645 1.4189206151561176 1.217461312732929
Ni 3.1884526801282598 2.112426106432968 10.835638713649633 -0.5382717596691117 -0.5755676679060926 0.8918290404735416
Ni 1.3311309256494284 0.5942630508086204 0.9428909710952493 2.337462646144471 0.020408131342706786 0.421873548682325
Ni 7.717790634449362 3.1911726427028655 11.158726185360715 0.5227070724616353 1.4640326770034076 0.5250873997683537
Ni 6.910580775756735 3.876790795129328 7.793884870187408 -0.22803345336729114 1.4698485123542364 0.365136501001597
Ni 4.434430018829948 9.092553511467981 3.348203585479884 -2.614280210894001 1.7090639504802758 1.7946580316020124
Ni 5.3976625583107305 7.5493311592683545 10.048675693611495 -1.888669904473799 0.7596457987383561 0.9727123463831701
Ni 8.870107468771698 0.9390905268358348 4.8578859853802365 -1.1842318612558378 -0.944070257166445 0.8031825456787264
Ni 4.800959044529999 4.184690558574689 13.690686822645894 -3.6073600651899294 -1.3431350354843705 -1.0511901281750993
Ni 9.227060350372877 7.2366198758203275 10.547912631244685 -1.4555927737661705 1.4402610285051067 -0.46078436681490964
P 2.7771099262162577 1.1539675702296823 2.5850439896420605 0.634008842762121 -0.228453057403213 -0.7637428516258653
P 1.310581139439218 -0.5569854947645853 10.792164332526145 -3.120123160610446 2.2810742400524133 -0.34616355944351995
P 3.718610902644071 7.039385072436251 8.58116396863508 -0.7681967736321609 0.13110697795187096 0.0030043340439625675
P 4.394380914714202 4.274533736168301 4.857927253777921 1.8036080417064486 0.1974640652208664 -0.39528705644304823
P 6.454658773165074 6.195371306354822 2.764927307636412 0.62448933330746 -0.5961724886406378 0.0977217176232059
P 8.19344643447885 6.247875963226003 7.32374965626624 0.8950902277233165 -0.5842381990968971 -0.9679213527524299
P 4.99181600463569 3.391071133573799 6.934098134927653 -0.9138045163033681 0.28911180873585046 0.21325680927874888
P 8.579718636798022 1.7606317745422462 3.0094397501577816 -0.5043411683599379 1.4348987357519287 -1.4038729767943758
Ni 8.66868017135021 8.967135099234786 8.850330527099926 0.8858576533814551 -1.0789657556264707 1.961003006820571
Ni 5.413372686974402 1.8779090574142092 4.599591773868779 -0.27055307189705663 1.1252299288003331 0.14786105748175826
Ni 1.343877233024908 4.109356974439404 11.070253306153827 -0.1667722925639644 -2.1220890476330356 0.17009415784834578
Ni 4.585125324644394 1.5288628256419685 0.9999614134192513 0.11770047473797793 -0.17285577975388294 0.22006200512604038
Ni 4.991075049313642 5.802233543330094 6.578627163970568 2.564006145229797 -2.222682430377082 0.18808673777102444
Ni 8.684043270306086 8.78749563995402 13.183281556025724 1.458540800650901 1.2996792782935809 0.43354661414487916
Ni 2.9543670734489216 7.8337266943966055 10.706230397694931 3.4490963243176083 -1.7194074984981293 -0.05662854712732183
Ni 2.536796543159202 5.55579555488953 9.81815136206863 -0.1960712986383978 1.0902559838283095 -2.629670834417458
Ni 0.6756199451694634 7.961527418677905 6.435656551868003 -0.18208526877195091 0.7024477522608096 -0.021969048071923455
Ni 8.628124591444712 1.4373876705035924 0.8547266669528588 -1.4054333793029603 0.9448115062078438 -0.35214600227919995
Ni 4.340328692929884 1.0044446620767047 7.05386934210509 -1.6272725309340816 1.1652998002380255 -0.44810085780997017
Ni 6.811302141783629 3.133246819045057 13.301927261448153 1.3791965570936182 -0.03557506889113228 1.977657070437484
Ni 6.9076450920124195 0.11819831847481205 11.517010910705324 0.10365299550597633 -0.6020029792794859 0.3553742794085106
Ni 1.4895734352108543 3.2442400504515514 1.1463582404476906 0.10549441959008929 0.14908001749052388 -1.323300774367263
Ni 5.359911353611462 5.5452627342989 8.84674767984648 -0.37867747291082526 -1.3104815111154076 0.3629937436269813
Ni 7.430337486220003 1.688665316490697 9.26550092489709 -1.5437875257355476 0.581366791086373 -0.2097076584749098
Ni 6.374194776863206 1.8125830597172146 6.8601479800329 1.4784329115891377 -1.4244808828527145 -0.6662039394374268
Ni 6.365837926332262 0.7607219466200996 2.824724277961924 1.7132180818579656 2.4204779107954377 -2.1877030860884195
Ni 1.3533502061295692 7.5779657997520475 8.691518477795606 0.6705997545122774 -0.2932044907479854 0.193114530002919
Ni 2.8767262107158675 3.9209292222882732 6.910939998400208 1.3212428633969697 -0.7314042873941596 -0.23295017394261816
Ni 5.140879332905373 6.70905968652233 4.443278338460579 -0.23151729815083352 0.08417380373544213 -0.8774773997375598
Ni 4.059506625873786 4.074785312198037 2.671197397315501 0.5829395348901316 -0.6928253986796972 -0.29678475190007597
Ni 3.9508488106089357 3.2882471690724127 8.926805557598417 0.19257434122873285 0.32952440822494217 0.42285545297962013
Ni 6.291657981495862 5.703864689942287 11.047260243217117 -0.3288839464274659 -2.487340734056258 0.614752051415038
P 5.559997428108231 9.355752096876893 5.18135800352428 0.7022531197515002 -2.4169267031090698 1.3710212203716776
P 9.1291135601432 8.12615080871059 4.468014991199423 0.09062470156710845 -0.2770718468521809 -0.2881605005661747
P 5.973206639097289 3.3671823588237273 1.628932124597969 0.02114629506031197 -0.12171088144895167 -0.4138277955597131
P 1.591853407197319 3.6506962509105554 8.894738136761944 1.6366922815860845 0.42118834968984237 0.6753334125425208
P 2.6175419148998227 3.9747000686338403 13.065583147913761 -0.9638484682346368 -1.7209254778045522 -0.7202886370969724
P 1.7719336879987975 0.921664007995775 6.643132483304535 0.2571409122562088 -0.553816135161614 1.6321499136310407
P 5.952891332419373 3.447890213839182 10.028866862723332 -1.2096901534279425 0.43046026191007153 -0.9055294207787695
P 6.542626114500339 9.112868818145898 9.43643462810286 1.1503318660742834 0.3606802650024562 -1.2225166157686493
Ni 0.13658901715166305 2.1468101850485 10.146840080847142 2.0379057308158965 -0.9283790716834334 0.45138029989219036
Ni 1.3559951352538409 1.7116536898367607 12.675601479393707 0.03868584660597209 0.5149924774261969 -0.9293550624434574
Ni 0.5876103975183866 5.967879264123579 5.05409189257661 -0.6322170409690209 0.9072790564800246 0.33001806003190903
Ni 7.473960058407902 6.935454364542439 9.183823262536068 -0.894659310833485 -0.514354843842198 -0.7627419211651767
Ni 2.75517202117487 0.2932363514138491 8.636979476502246 -1.6980958815045464 -0.7802986991020174 0.007926968156560542
Ni 1.7880189839141376 2.9273081354222414 3.3544641889921234 0.02581978927658134 -0.6023719325831304 0.7067209257148668
Ni 7.332728346516825 5.377412905901856 5.360775176208432 0.185832394519209 0.0719662059256567 0.3568210391573661
Ni 9.0551587156578 4.011907280818187 3.925632881706083 -0.44649237567226974 -0.6886756381773816 -0.010898134969742521
Ni 0.0696966961789472 6.376980393706853 0.01666492931917015 0.007869889666379994 0.3957470267986023 0.8152854995898474
Ni 2.6077031537247835 8.329932280636305 13.193357610487444 0.1339930412504144 1.1528505187310791 -1.621922836586394
Ni 1.2422538037288655 6.211888044609582 11.776856438802437 1.7823450185626144 0.01623420247067527 1.048754265040097
Ni 1.367737870231104 5.318567922477457 7.341965902171064 -3.581472655900206 1.663238150395413 0.9375784787945143
Ni 8.640570765018854 4.556434409072949 9.154583664859057 0.3591638283579298 2.867093442309133 2.194208491307105
Ni 2.6601890522333815 6.015900672337307 -0.10504120295875403 0.6431149188284473 -0.34135096854622504 1.1499680549769613
Ni -0.09224237216804063 2.9565618018711897 7.8997777028074525 0.2813691886759541 -1.9161904784915709 -0.5613368690186913
Ni 8.742015989870353 6.590338009731439 2.936711702585343 0.26129092986884034 -1.6614347786380868 0.63856149512981
Ni 9.27800806314963 -0.6805036848680743 2.13942595561751 -0.713463643755339 0.357162738767501 0.8173374970228697
Ni 3.8933731876531303 4.578953823354426 11.266884090262716 1.3770211467088542 -0.8412212456190028 0.958870298293755
Ni 5.099451489139741 7.721082727082764 1.9206387315431348 0.9101332380993681 -1.4503842329820376 -2.0100264879071257
Ni 3.036237946944552 6.532384048529755 6.354101756781904 -2.537064326533631 0.3405166455703878 1.0327288361461182
Ni 6.631672061684153 3.490396663453364 3.685760320169739 0.7332459685885887 1.350081899115849 -0.6688681165331513
Ni 9.42814061808657 3.894320484963597 13.047503838055798 -0.7626413910315704 0.11656893223669601 -0.20176089282400736
Ni 8.518209965886767 0.8048932009135664 7.189687390554572 0.9388177505182541 1.3252715249403886 -1.9581004884617952
Ni 6.185588820267533 5.622425258786077 0.6241704461936035 -0.5701421260151471 1.2511849302376195 -0.3060530645758794
P 8.404121604653996 5.480499487479411 11.586307115843113 0.9289920226770839 -0.9481999630641026 0.50738869693701
P 8.11759699537252 2.946929382684569 6.137580542907613 -0.06636865723322118 0.6699518365156334 -2.0941892358989738
P 4.448939612288275 6.445298350235915 12.359282024902747 -0.2702856771682829 -2.4555179331187067 -1.3804646251727646
P 1.601401413752314 7.750195705812336 1.1959075172938431 0.04704038921825447 -0.8225537511164865 0.7430480422806751
P 0.9613754615850177 5.046534148291723 2.399381220135736 0.3383306936626625 -0.18834744763157885 0.6071953221137026
P 4.023462432169616 0.6717369641146815 12.649794662069473 -1.1475810428020234 1.135845242422334 -0.4293176636651961
P 8.598514516106675 1.36685622718968 12.124268817193656 0.3622715207489761 1.0756138084351023 0.3698249076162018
P 6.485947721954331 9.335765061544187 0.582044791339866 0.6510627129206142 0.22183632341764375 0.7360230171130937
