# total energy = -340868.8068988683 ev
CRYSTAL
PRIMVEC
9.32982145570611 0.00000000000000 0.00000000000000
0.00000000000000 9.32982145570611 0.00000000000000
0.00000000000000 0.00000000000000 13.65513677323231
PRIMCOORD
 96 1
Ni 0.961046225185682 7.403707625958891 13.375916523174144 -1.939790634409014 0.3501793654711324 -1.341079952727555
Ni 4.102173117374781 3.902309687001143 12.685130028483387 -0.6653397916649186 -0.038944756694313576 0.12531813918423582
Ni 0.6913640106248498 4.779891331469685 9.254809466596663 -0.46020586860362034 0.3710968323500899 0.10234687510004307
Ni 0.55877139026069 8.777299886260879 1.7531284549269788 0.6489718918298566 -0.1335667523462732 0.40327778795800867
Ni 0.14953464273440933 2.6003144748126497 8.25499410227483 0.7902262426283746 0.5300815105488355 1.1045364050067235
Ni 3.7349513537903167 4.895954307561929 5.701483608640987 1.5749462107265393 0.837986283621473 0.20789117409146132
Ni 4.355179209470397 6.658880007761775 10.681075098612796 -0.1563061029253179 0.9560001758348116 0.8154122549756989
Ni 3.5670145716632753 9.169721496985629 5.676426507765511 0.06774599719672203 -0.8184867801359645 0.31455081763424536
Ni 1.375150340447278 6.197044527091182 1.7395554310026222 0.3672975132086578 -0.6776409776297749 1.2731997439458138
Ni 2.1957547666686072 1.1937786157500736 7.562118660610838 1.218334973587134 -0.7178939116125507 -2.1580520959912057
Ni 6.142595690397104 0.11171434641727669 12.372755484959493 0.39154301601958375 -0.7960695887830289 0.8773460163660181
Ni 7.876375029076679 8.38421585822885 2.93175823994707 -2.463076976412887 0.6725347667514611 -0.3989567919851516
Ni 8.387957116541793 6.471098695880055 1.4922330659998826 -0.3346884689243849 1.7824375782764206 -1.2379604611275454
Ni 8.582605176848263 1.1847380189789012 6.697899186106871 0.33791648894337933 -1.7767844937557014 -0.114177549186384
Ni 7.506615554117851 1.0265788895001453 4.639946811976853 -0.9989165155823634 -1.1407791893888417 -0.17531195460385934
Ni 0.6474895933120373 0.0712611745492412 8.776470465153595 -0.7487548628574653 -0.22808281854798784 1.2320242981487686
Ni 6.703467223416505 5.306942262532945 2.76265243122 0.33189136579522194 -0.6363948264957944 0.4869707954022903
Ni 8.123839207362103 6.746524348389633 12.155665472668112 -0.714121589054312 -0.7994814426780553 0.9439368169123743
Ni 1.527618278976173 4.8041768561295015 6.907205328546662 -1.0837361804319208 0.4383124109646387 -0.20631534496390916
Ni 0.943394203419884 8.9329306341865 6.192577408686603 -0.07201711376825017 -0.4603094840610202 -0.736533381090609
Ni 5.5288800499350605 0.7768596934236035 10.17393680499919 0.7317213044139463 -1.4139301039200618 -1.24050508192627
Ni 4.495135857730828 9.324307304933571 0.9287743735536022 1.3029558921623237 -0.05406849970962946 0.26099988099098276
Ni 6.093240936094213 2.4643883093232684 11.670935543682988 0.9892926193393543 1.6022626391533052 0.6589099768791749
Ni 3.623795863664674 5.1084783053437 1.310976098103798 -0.1354166610708184 0.13520917304570262 -0.6574822432937129
P 6.282300433484343 1.0899097160044984 2.682415035666068 0.8163833606397165 0.5709797914250941 0.23394570508666804
P 3.5015378862761875 8.467456523236487 12.088591521886572 0.3667444689186652 -0.24912909769532576 0.27005582054566396
P 0.6818037428112064 7.074346276922846 10.646964339216426 0.5333336989375459 -0.231344262908079 0.4252370658379192
P 3.010966556219412 0.7914617966295497 9.335743799796422 2.106380892869159 -0.2179472727758827 2.5131373834043877
P 7.293774342414284 4.591774146023711 12.53780468741607 -0.023886062588978216 0.028855490779111592 1.148403281593003
P 0.3521391745852096 0.23241144471410424 13.385433873810134 -1.6123819869754943 -1.0291863702104986 -1.0521789744509298
P 6.293981369663402 7.8973391373788715 10.520900727748518 0.20466675361689268 0.017732641393072686 0.2723651854051309
P 7.049211738531166 7.978359304933939 0.7291899048347199 -1.313059556255229 0.7626156799999576 -0.8931055931931199
Ni 7.846351664360855 3.577137427697044 0.8224340041643907 -0.8181916174930489 -0.16370856603697612 -0.3582929957172023
Ni 5.188276266317732 7.165629247830123 13.216232900906524 0.4903849632901619 2.278975705652172 -1.5866449872207062
Ni 3.0336193621641043 7.22566664744054 0.40121123530485403 1.1464479576388449 0.577013913434316 0.08538350777282713
Ni 4.82246330573889 8.14981342966442 8.587073228234965 0.34027933274860106 0.254178230083459 0.4462324371426637
Ni 0.9142282492750317 2.9407409918266207 12.029820179016967 1.2203219221101758 1.3494884885062242 0.5302476038130546
Ni 1.762030037361835 5.075320120694838 4.459903653822698 -1.2996376264223681 -0.5290345573415599 -1.2201008072383053
Ni 3.831496343870907 1.3633107973073217 11.524893986016822 -0.8526868230564412 0.1701502078972618 0.6435039267367498
Ni 8.392108886988822 4.028924690903703 10.82001572934136 0.10466215349678104 -0.9045192343467003 0.6897585868289153
Ni 2.3668543581923744 0.2818259098728632 0.011716389499729918 1.362980609455388 -0.23007156684324248 -0.08936306124586546
Ni 6.1435006830563434 5.246485020967211 10.783583710423144 0.7201269147081275 -0.6360017048224337 1.8367978981948558
Ni 6.981020075166358 0.39712943851704396 8.120395570346377 -0.9666072619266965 -0.7945711498606316 0.08429490269433869
Ni 6.439563900125088 3.1803681202794505 4.2252679797275325 -0.16197230007215974 -0.7400717332611707 -0.012555725177823536
Ni 0.4076469459888114 7.361695440963444 3.892751285151745 2.530936873479654 -1.4818133980255963 -0.5276145370655817
Ni 0.049713019438095946 5.000448305329866 13.556287158053449 0.7648214294020247 0.14310297397148258 -1.0318124949794358
Ni 8.544903369260743 2.36691033711975 2.7546101253203608 -0.4604424100944587 0.24586251112891205 0.5691946745002133
Ni 5.625191794484918 5.531464410415571 8.611912011293677 -0.9123639272020997 0.46676809520217033 -2.060262501244542
Ni 4.903520792578876 8.930224986030009 3.393096441146142 -0.08378890959219763 -0.3811447035043952 0.7768197394144815
Ni 5.677597400329784 3.0630456183212535 1.9143001836806692 -0.6494213206624493 -0.39607664222387917 -0.6272617538462746
Ni 0.7098669120867579 1.8459890986041263 1.0095323731321277 0.18961268749724763 0.8886719829017985 -0.582498590697971
Ni 4.9408027582110785 1.6945567702316815 8.14395057000394 -0.8647141865346204 -0.40930393954743055 -1.5371345391954043
Ni 8.476329183225534 1.4569075638794593 12.183454345199523 -1.5123239079096276 1.3806420312908931 1.245255709237378
Ni 8.056552536656536 7.565859918923779 5.295530025205291 -1.2426110725256792 -0.0991507367602486 1.363730343137219
Ni 3.899072239034582 2.1418377297845974 5.523939909594157 1.047334244764119 1.1486017707570542 0.9748867283266694
Ni 2.5674921637280423 8.103472207618585 9.89531755468283 -0.7393574808029654 0.09031771184965091 0.7775594457939834
P 5.736384603895478 6.8694727325490845 4.133314194673872 0.5249164214081282 0.20199357766010373 -0.33129615541338425
P 1.518223148998288 2.6739640835965868 6.397717785947521 0.041771684620147416 1.9366009238271227 -0.8194200905835114
P 3.6684203986043205 6.840298381565126 7.259685041606741 0.23134066336365322 -0.3576396784039196 0.23313349359801783
P 0.2533065123391999 0.1427415998973705 3.923803729149158 -0.37787091784912985 0.6345158643055266 0.17673171776952143
P 8.898550242956604 1.5109832077243668 10.149808021336025 1.9313419894210284 -0.3585971572211824 -0.19173719003941816
P 5.5164247385939715 0.7044136315782437 6.298322535481386 0.7204868691507076 -1.1136676778840304 -0.7365706620864476
P 8.528417575148604 8.364035454909919 7.548545636686481 0.14798061377875804 -1.4937718559390534 -1.1512883164502816
P 2.0450688239945047 4.245553810026356 0.33875368006756146 -0.8586191293804761 -0.7194430012672255 -1.9345525259385261
Ni 3.2599235059015217 2.429028286864297 0.975171574526812 -0.10392476111012425 0.4427753318319987 0.4406490295176153
Ni 6.54489758180366 5.204080983480133 5.316313134975634 0.19363723527560847 0.649482770028004 0.6203074340156285
Ni 7.826404506572654 3.309007695388764 6.850809358162033 -1.991630244788125 2.075972970001263 -0.7932331477754984
Ni 8.197656752928166 6.396907957464819 9.710946292460411 -0.6811304788402721 1.396731480653588 0.48586007883661486
Ni 4.993824132257077 3.4028656969553217 9.595477625980473 -0.44791650971330604 0.1336179172991828 0.9213913275116906
Ni 3.438384326375191 3.5854596282335622 7.585346183543253 0.24627003097997585 -0.27987460640829864 0.6315315848662221
Ni 1.5166090899256226 3.5901618581331194 2.3358476303189852 -0.21753923870418665 0.410676394414925 1.5560123499365137
Ni 2.6904498777087245 5.864762944010373 9.112741479792046 1.869656853706406 -0.6957266314868921 -0.4145451333417119
Ni 8.449888469861754 8.781666242596183 11.069850615201146 0.049009854239799464 -0.6644951842764363 -1.2821536107049918
Ni 2.340590911431951 7.012023071111255 5.656421505085688 -0.24319087783401985 0.37283978318312566 -0.5425950696348139
Ni 1.9353594561594003 1.3716329978438395 4.524738447509211 -0.9293491489061865 0.1617378154638505 1.095657614459855
Ni 2.194523230266342 2.809274480884836 9.505176152266516 0.7090616580329014 0.596086870905367 1.3994195690087126
Ni 5.630761697758799 7.676726184591314 6.165116945862463 -0.3091119060068612 0.22534202257805708 0.26218361688643876
Ni 2.8101141647954706 0.7084357175101863 2.5631370031782144 0.05115132606283449 -0.5415231767268739 -0.7757226496955608
Ni 7.633939624433836 1.0547456197913416 0.8633564660402591 -0.7147746492572787 -1.1633385627465966 0.2449428275281201
Ni 1.109782235222865 7.048819886039536 7.93804514740222 -1.0414340772296 0.4220823222590214 -0.31419369140514275
Ni 5.690220648453001 5.2295234059723805 0.2932026938798473 1.975800991065352 -2.1270494769621044 0.27269325816851103
Ni 7.595454111863055 6.259656957360881 7.404716179633777 0.7310759575204636 0.4171110942966752 -1.1433212390844052
Ni 4.483753475831106 4.842914273873472 3.278543963110919 -0.40342202684535683 -0.558976853426947 2.441530360590363
Ni 2.0316991901729464 5.463664599542393 12.006456440694604 -0.13376678417222124 0.12434163420357941 -0.3020352016657379
Ni 9.250060587590959 2.58333420017536 5.008444895105482 -0.09714861872855526 1.5865164320626417 -0.7007739641028123
Ni 7.204879805741704 2.3946199061707114 9.404961743496452 -1.0582071829228807 0.7004870289900129 -0.8225766339346222
Ni 5.18612107761377 6.929174258595248 1.9707502670284285 -0.3235105979306945 1.1481451428356098 0.05896233746682104
Ni 1.5356605848758125 0.7777926755465315 11.341000410641342 -0.8406782286313392 -0.9096758388469751 -0.9620309554099238
P 2.855242510081498 6.716053152254804 3.382200142932466 -0.33565803192650584 -0.29277537363036676 -0.14743296880540416
P 7.7368942016989415 4.481197104814283 8.797035257107176 0.012459565919591445 -0.069139535110139 -0.37940792331894657
P 5.570994862964031 3.7835224031099486 6.815183435798027 -0.7588279308227511 -0.0505687140864871 0.08039171098519057
P 8.832261863122568 5.391479772691452 5.642220584192601 0.5294014537626753 0.1511546406313655 0.013619390555647511
P 8.75266915821558 4.750455745491307 2.5193316265424985 1.5823849263927714 -2.465612855460863 0.5535032319068856
P 3.518667438053146 4.504876191094197 10.68267236400725 -0.1199314209510257 -0.21642440837345306 -0.49670627752249946
P 4.9440868552837856 1.9093852338570845 13.424582736670315 0.7083489482365929 -0.37424643372266514 0.2277326342974207
P 3.4033974967653906 2.6646062729036184 3.4715593047022653 0.3191003846781407 0.7997861184026678 -1.3229904422156957
