# total energy = -381169.1663519967 ev
CRYSTAL
PRIMVEC
9.23496062253564 0.00000000000000 0.00000000000000

0.00000000000000 9.23496062253564 0.00000000000000

0.00000000000000 0.00000000000000 13.51629835520171

PRIMCOORD
 96 1
Ni 3.5903956067568568 3.8496024750881666 3.157461586994674 -1.4806677144569271 -1.0127773327248557 -0.6779214849846712
Ni 7.208329865407827 4.539583305945564 12.67934204170495 0.06060398683530207 -0.03572984930144169 -1.311301693023858
Ni 0.761559161877147 4.483166932900247 11.797957421727032 0.20624901050234803 1.4508244058432496 0.42976297873273084
Ni 4.147900930766149 7.759019788646544 7.654536370247883 -0.9585689650032524 0.9608299931232872 0.7140886789338476
Ni 0.9809282580619691 6.598776304619453 13.621589668157766 0.8754842805669308 -1.820154890321536 -4.648983118501884
Ni 9.23532979214916 7.247384512912925 3.882218508206754 -0.2532282074653639 0.3266941378649987 0.5662741584193086
Ni 0.9972741379588773 0.7157583758044261 9.170267649183229 -0.21393686606490897 -0.6572295038529584 0.03089437558601131
Ni 6.182769043762944 2.854960300841503 2.612605388236678 -1.2128232997402855 0.834209333077544 -1.0199278277267079
Ni 5.5085338203768615 8.250689080008911 5.881266056828335 0.6246878224715112 0.7599849272453297 -3.066953775676318
Ni 1.012179364034363 8.431398784993485 7.094677978330268 0.6659573706442595 0.030848609949740424 -0.7487396933488137
Ni 8.648780517701576 7.537500793682061 1.2387147894847226 -2.598366110766906 1.2912527447927826 1.9353066304957314
Ni 6.866839499968352 2.4425362046177623 9.003151805898229 -0.03440238873926978 0.239865927225845 -0.32374585386995214
Ni 8.223011903708892 2.3550441898475323 5.585407477686377 0.5774669418113345 0.7536728689843729 -1.6683631303268043
Ni 7.959787827606308 1.0096120450449053 7.408255675979683 0.7799917093845599 -0.689250022623613 0.919316704370849
Ni 3.6621143091745902 7.458366418068159 13.135719931922663 -0.5313179540590979 0.44719222995277175 1.145917796166988
Ni 1.6035031130055073 7.462069637186046 9.158305604985227 0.3722867388931331 -1.1499667694253808 0.3832059569087981
Ni 0.23772080947924926 6.159700112699397 6.9222095520010605 0.004480147258540672 0.23501322711923398 0.8207737763979285
Ni 9.295818782728116 1.9891088842458458 1.3696877682767676 -0.1696979508511916 1.7874160053276185 0.6848740050431044
Ni 4.30272504176709 4.445857692909564 7.6370601311987825 0.124868710351643 -0.8354362635061097 0.8055795851559934
Ni -0.2522049213607807 8.008677707930733 10.701352973269199 -0.3339952995121022 -0.08374134418371383 0.6781405429740128
Ni 0.3555884559765475 0.20193995543372914 0.0953361901286675 0.7231744432851998 -1.130384476418079 -0.7518610125866148
Ni 2.8639366823442116 1.5334559384190392 10.553930683023834 0.11649437024501873 3.243317825693776 -1.5951828494883882
Ni 2.593620156659241 5.977614398616156 7.3406206730480585 -0.9153492350826687 -0.07195874972648898 1.3105766419323752
Ni 8.709195628597381 3.2734055912419575 7.703857523222696 0.7628918164794797 1.142181469053007 0.6887075198565816
P 1.5537728512852529 3.790323264320792 2.068426112075543 0.047469763446189216 -0.4073146770315436 -0.10693578002230616
Ni 5.765404243728557 4.476185302842585 10.590384765682058 1.156125589937925 -2.1419976136315046 -1.690650738080411
P 8.259887100561068 6.6334074060959525 12.714808907097082 -0.04747259165966663 -0.44311008946359814 -0.8103872909572817
Ni 0.9268021551942978 2.855292759415677 10.044704808456942 1.0323148885371511 0.27439121469622424 0.13417558957486572
P 8.688740191325262 8.558176321278658 8.55109957112894 -0.6903265435172433 -1.0889840590944213 0.6036217458298314
P 3.208890157931336 7.025726993542536 5.674128665685013 1.0991759120257585 0.8496876312188012 -0.9970974600957537
P 5.199310406553092 4.9036254446665355 2.6865266287083176 2.841869634745338 1.1019832995675667 -1.2981139906889902
Ni 6.791103589779345 2.2569412055849023 0.21687473338247482 0.19660223144120334 0.8964140887410627 0.756420092712207
Ni 8.721921404019945 5.535980122667037 9.23605104255591 -0.041545427541954255 2.0153425008034 -1.4728227644912117
Ni 2.4444847812608406 4.72262022094936 13.618346350067489 0.4491835493511877 -0.4156656200994002 0.6022503194036015
Ni 6.485167821855745 3.2939072033160457 6.740158930767315 -0.7365701478658153 0.5489634350550029 1.429452367925377
Ni 2.5235914519935605 2.957773114904937 8.200892326573822 -1.1986331242828323 0.8242108271039355 0.22076803005412945
Ni 5.772976911251417 7.498307621771056 1.9835974598828656 -0.6629273255686842 -0.40255967884506155 -0.13555730041374076
Ni 1.9577284888279396 7.981212935719769 1.3670521105803963 -1.6443878504581293 0.6264197175609534 1.3858405447726971
Ni 1.4984739084475769 4.1679038549789755 6.289295235400698 0.7605819373993804 -1.5679846918070417 1.9892820562709221
Ni 3.978448642501535 2.5441761787111927 6.217456478497846 -0.091515588812494 0.4991963909342048 -0.13462321863524557
Ni 6.899309620712719 5.756335512621909 1.0458888164635687 0.8339491374376219 -1.4733503548599078 0.20457136568960896
Ni 3.4638674144023156 6.307995106701969 1.9412644014379918 0.5512401469043215 -1.5884866684151353 -0.2866088398083387
Ni 2.3108918442050927 6.31331444388876 11.443344177568063 -0.1026500081627587 0.3651408718769711 -0.6079496837812239
Ni 0.5131267218372064 0.12553081663201826 2.9366185911310114 0.308695644405049 0.1844439988121146 -0.011353220229290126
Ni 5.741162472695006 1.0030459882049607 7.418123231160386 -2.701423638780728 0.8512763158621598 -0.02839012110691885
Ni 6.9431572126621655 8.117973464190568 3.8945453333403095 2.019831132702373 -0.5757916109914406 0.524050216753091
Ni 4.919537281424938 7.857510641245711 11.276268968108797 0.08165129442390454 1.3325138083250985 -1.5661682074235932
Ni 3.000290872557686 0.6748040969463366 8.042170138790686 1.3466011396561002 -0.44288486082666956 -0.0030948368752398317
Ni 2.9065744944820793 7.789310458737989 3.613758209560924 -0.41248825081268314 0.9091649606488278 1.1219299178928228
Ni 0.9421414244082889 1.5526369511568234 6.849532260694456 1.346678786971571 0.8269711634578919 -0.8738683422300628
Ni 3.6782570199428366 0.30857234911601134 5.624550780811255 -1.7473844433270294 -0.41293665120401146 -0.3869373989267723
Ni 7.453693528108929 5.782424275734206 3.1607723202958273 0.11068804797588679 -0.10037869563007874 1.480348897664928
Ni 0.7880145529170751 5.898729366932885 2.1896940709898143 0.9910571674389449 -0.9926471376338841 1.9883166070338594
Ni 8.608377565978993 3.6760129245671593 3.0231095361945615 0.067386042754142 -0.16416365129652374 0.41981383793981897
Ni 6.073999680245552 4.2449788344250745 4.694345542711868 0.3992776656596801 -0.5668601128297657 -0.4777652176436223
Ni 2.6733270998175542 8.768456369443967 11.131522969385538 -0.955022899523207 -3.2500168349805065 0.4051811756283086
P 4.679446781108656 0.3613039729642291 9.574175264931869 -1.034932014445024 0.0057117056727966145 -0.007317359597019655
Ni 5.836476498918728 0.1743874510990255 0.5819290237625991 -1.8164751274771038 0.5124404004283045 0.9702374024801163
P 6.0240200745946675 5.554791736989072 8.356167103641976 1.5061031238108966 -0.2682848446881702 2.1123754198896973
Ni 4.221632854549717 0.9695323169361021 12.249577460349895 1.1898620629584218 0.2903235696557645 1.3376575573095673
P 7.854084470939636 6.722561713737056 5.660922672321975 -0.881152791706618 0.7608858417930444 -1.0582040975990872
P 1.3976466108687957 4.945173531477941 9.741074086647616 0.594493301166002 1.1175091631173075 -0.41086691315917623
P 7.796144329429352 0.3226972210382266 1.5628351179196234 -0.3258518444693614 0.5671761014082877 0.34566785075402406
Ni 4.638655961049536 2.6260348676412453 9.171132964972124 -0.09515575666824257 -0.9752448829970366 0.1015410913692961
Ni 1.6305523119987522 3.2061196698132157 4.23107467805627 -0.7961040415653902 -0.7377024616980455 0.006637045700543408
Ni 8.642436099911082 9.178922654064237 5.260137396682456 0.6870339888089008 -0.2591394307434763 0.4570423832739741
Ni 8.872321968992289 2.6903471318232053 12.471015187662914 -0.6548772015706981 -1.5650631472848724 0.360223894191328
Ni 8.129858858217302 3.7909789465087464 10.326708176520182 -1.4645620671443165 -0.0819027483130783 1.4291181245144098
Ni 4.606786112730762 5.649736364797045 12.013515249757361 -0.5018196874896648 2.0470195201917067 -0.28856982018945143
Ni 5.026875226081302 9.106520564577366 3.525753654488841 -0.9083825739568485 1.377646438997679 0.0390933664570359
Ni 7.583851059898208 1.3984038776210819 3.5764258821692563 -0.24522847708933898 -1.1152874728756403 -0.27189235953377044
Ni 7.504559689957614 0.26169014918118433 12.556046085488214 0.37419912542449746 -0.6742602340830001 -1.0782209070406463
Ni 4.85587146447054 4.76954305470992 0.4855068022916285 0.7227113876058521 -0.01664172232173908 1.7056706085280107
Ni 3.3104285474604347 4.262322090044506 10.424796384846182 -0.39456946155073336 -1.1154497094851177 0.10608165955212698
Ni 8.357168173348656 1.4650248819014746 10.493202506970682 1.367019812521768 -1.9552913011477742 -0.8900310680328543
Ni 4.344688701796215 6.22767865615767 9.492347051371116 -0.7676493857691231 0.5308171031632795 0.2644451592271059
Ni 5.482685166234801 6.030419902147524 6.448801471321262 1.3020837739700157 -0.010130146455466425 -0.8399197531987599
Ni 5.189807632307939 6.40367853134144 4.159383680519717 -0.8280728811625029 1.5038513516622425 -0.3440539692996849
Ni 6.667779928681429 8.974183582135167 10.044582906979743 0.5082173634858925 0.8689937877465808 0.08632273175764488
Ni 2.038866850847281 2.382102623801171 12.846835594870054 -0.370235255680743 0.5357852458018321 -1.640332449441833
Ni 3.301572220442844 1.5056956474754766 3.3632063461106214 -0.7797006605067024 -0.4361082042244683 0.05596031741570362
Ni 6.562316680984993 8.206250450594265 7.7517454103444 2.239552466659543 -2.1708381920122806 1.7712910747412978
Ni 2.3642052705581156 0.9956118450880054 1.027510321784 0.33095497002388163 -0.30343748132990317 1.3069038210664783
Ni 1.6014529517980984 5.83511895974085 4.615924106040361 1.0205384647275133 0.05078828629646091 -0.20318862640946941
Ni 4.021936070995626 2.551979720243897 0.8059294525848786 0.9020746294609496 0.23674846464278582 -0.09801610893517312
Ni 6.787187966572402 6.615740926862741 10.23562191516471 0.10662930452548088 -0.38090379113818273 0.1098742938253398
Ni 6.267952318434741 7.354371529074327 13.115553548910869 -0.17224231453960012 -0.12455580709691451 -1.2633501048452436
Ni 9.174591457639576 4.336894395223903 0.6674253635917436 -0.5037660125827582 0.04691774759746113 -0.7119605768472512
P 0.8130634594890377 0.6811171158714928 11.559705602025144 0.7968918275740082 0.5968792848996752 -0.1875828015514124
Ni 8.869920879289918 4.6848492329389915 5.259259151949013 -2.4010784232229034 0.10490460852489031 -1.0977183536436257
P 4.436511912991105 3.548570471133638 12.24952389757961 -0.15532368440739056 -2.485630693343687 0.26196327334551656
Ni 3.6911490246524887 4.837604712811735 5.334869466676665 -0.43727008574305337 -0.4207299219961851 -0.22806507793617492
P 3.837089103754657 8.718836927248438 1.5652417485982302 2.217102108075827 0.6210386557546982 0.7350025462683792
P 1.5073671753067424 0.9452351361401896 4.837726614288933 0.32268295982307654 -0.033252077184910474 -0.5553374569021468
P 5.823870777981282 1.721045688896946 5.2949688967995 0.31466137507018066 -0.21482261110397194 -0.9239143510438605
Ni 6.492592730012307 2.0004401806489565 11.345013089783707 -2.7686767555014318 1.481578399196655 0.8572942399214656
