# total energy = -381174.6392738222 ev
CRYSTAL
PRIMVEC
9.17397961452451 0.00000000000000 0.00000000000000
0.00000000000000 9.17397961452451 0.00000000000000
0.00000000000000 0.00000000000000 13.42704648592883
PRIMCOORD
 96 1
Ni 7.437849830415072 3.175334514992305 12.084207204486278 0.4827336173924912 0.3096402677065054 0.2876928169011368
Ni 0.36240522051764695 4.414950160452618 2.7725105751539725 0.11183604553740092 0.6272576400812164 0.6326559282786524
Ni 7.0945870357303145 3.8301456568854007 2.5406116362288356 -0.8031730325970295 -0.8489654083407959 1.5287404015944381
Ni 5.814009571357009 8.828276526516076 2.614648403792895 0.3904667522362695 0.28191786209057257 0.6280497969652088
Ni 7.906364968575549 9.248655793716537 1.1253207032185637 -1.1488899914214343 1.0652154959199138 1.0731931148087517
Ni 4.652537884127574 6.621172992463557 3.048893223760455 1.0676019938742196 -0.30563988829786076 -1.2754849404355648
Ni 9.072386949686472 6.6437960261566005 3.841666340466797 1.1017313314577606 -1.958235728488079 -1.586344939481784
Ni 4.85316364399504 4.819146527639077 12.402092936802141 -0.27057389783266306 0.45188680721496366 0.6838967287314996
Ni 2.4587733164131285 5.599090751273095 11.967996735304096 -0.07498108149258055 0.6331608929395288 0.05681855165094086
Ni 2.0450176624837044 2.6930125375341674 1.9648737767000757 -0.6374062984794442 -0.30216478526506674 2.166242345111482
Ni 5.271111806601561 7.315331332860086 12.065597786868135 -0.6192337413354755 -0.4821036971179761 0.42349102968109
Ni 4.693426311203769 9.137824946171662 10.445275748986587 0.8167412581997675 0.04195243317238582 0.4383342653415096
Ni 3.7755421303075436 7.366898272190417 5.044031041762226 2.470731664744667 -0.0948240843604367 -0.3033400365200905
Ni 4.743883199002528 2.461507162333861 12.048048881291727 0.6416203365607918 -1.0109986435578782 -0.4330478201315897
Ni 3.145408993537841 7.263654305774557 9.65022014615582 -0.5898781709914938 0.49266938844896446 0.6066196521158908
Ni 5.712884794228697 5.380740862818865 6.036276749100343 -1.085316637545163 0.04411935891671756 1.0323416280100286
Ni 5.740122339660426 6.778506742599688 9.555545594084109 -0.8021224798453283 0.541779515712054 0.3703134172168461
Ni 2.4326274745537715 0.5194142117759454 9.853679748321657 -0.646171446266584 -0.7039443914109941 1.26843754667048
Ni 8.614137494698141 8.871155707165421 3.3788757655765793 0.3800455569029455 -0.44046648119316406 -1.2963275882125287
Ni 2.5606870557870223 1.361748835872109 12.485837609578681 -0.506492924595618 0.7915141082018626 -0.8065856578230045
Ni 3.458571961155739 0.4286716273606972 3.637238883453185 1.1614855686982577 -0.8264212044916928 -1.1382929326318785
Ni 0.659994440366968 1.4697816196390519 8.465551134110395 2.2169455278933046 -0.7371111079709499 1.2281511883466074
Ni 3.714810385357037 6.343871111101177 0.5047349270183464 0.18476975758264952 0.4263184718275561 0.4804124254584824
Ni 1.6623526254179157 3.1849855415312676 9.60275489310455 1.2124636024080215 -0.3220083023535551 0.5576277955982203
P 3.1384826389400113 1.4754052691337136 8.139099657042225 0.2808865926125808 -0.028785813883440745 -0.6754005183350303
Ni 6.649694895039256 7.1872442296880354 4.647946307337888 -0.33090380507097206 0.8693735396835028 0.06669287334185933
P 1.246064953118954 7.5086729529253295 10.920619997561136 0.8591603465959268 -0.08883521376685347 0.4657820771398172
Ni 5.150565714660527 4.10867685151415 4.161202471712659 0.9404388310614449 0.5085472360214854 -0.49920564690558544
P 1.6304913942678994 6.271460890120159 6.156153140530594 0.11348052311935938 0.9377949656806945 0.2785160354978752
P 6.8008545569047385 8.962574413877173 8.818346610997281 -1.4284524659059528 -0.4879719829732951 2.1440555246017974
P 7.795066248071087 4.764909960245211 4.339097862325763 0.22116218016875458 -0.30470220697493977 0.2315414665205496
Ni 8.579074544667805 6.390823538692823 10.44190522888163 0.6784074234821541 -1.1712138517296151 -1.1981212176434204
Ni 3.4410037902221715 3.2712392977283464 0.4103493553040278 0.18278255194929166 0.3546322590361634 -0.8572016802076593
Ni 3.162215724164628 2.5818055568257026 4.406004612944877 -0.22061402097476843 0.9567573657158103 0.5514013550725342
Ni 8.946382339883572 7.015057806579871 8.112178613906687 0.23752930867286834 0.12343274923606484 -0.8793039114233372
Ni 6.9301434514043585 3.2585883798602575 6.01402801377497 0.7045763685680382 1.599599233388529 -0.12371839879728372
Ni 0.4241424336322886 4.206838433231736 11.402597033386323 -0.1539484013264187 0.07681196405373224 0.5194278874897312
Ni 7.3502383252372265 8.060781393198951 11.01031216131221 -2.0711174416811753 2.7171199664700625 -0.8071032208893713
Ni 7.976004647717437 5.834183152496913 6.197709433321653 0.32569500717652294 -1.0475527885328282 0.4075764153333626
Ni 2.076438542612932 2.4088852153495552 6.547671985308125 -0.2056445441491297 2.280298281118337 0.9394648971839498
Ni 3.4773144014780786 0.7712720607183512 1.1220474272973642 0.1633234147834155 -0.5781894217996558 -0.48827125938126875
Ni 8.359816432233197 3.3356131125799635 9.471304609011222 -0.7117314915555807 0.0695236579224351 0.34370481349038223
Ni 4.490910711538749 3.014652262302257 6.433918307862762 -0.10234661798972695 0.5449183184513519 1.4332483446326996
Ni 0.7053441737225327 4.303660613927755 5.609900451435509 0.707473487610175 1.7664874827050674 0.08177882114070432
Ni 5.158088377932341 4.36365844051028 1.4341700656286478 -0.601743812080828 1.35924942454773 0.6674578664491859
Ni 7.135163547500117 5.528616239987628 11.96625092698626 -0.7846929715149711 -0.37662598969843525 0.19812201051983944
Ni 6.104641245077861 2.447562713342204 0.48382651011250066 0.7522579909147173 -0.7279662082468882 1.0647164447963082
Ni 8.08603735903713 4.514946538090158 0.6564000751597763 0.5959516308790833 0.4861578125826917 -1.1026929240400813
Ni 7.218426586347669 6.3348530891546 2.5250498146337383 -0.5971883314996618 0.06264852806915662 -1.5367205915864373
Ni 9.116091788499796 2.5019368904300667 4.57954970243177 -0.36358946822945126 1.1821680367482739 -0.9506558808037627
Ni 1.0801627060366343 0.6234975973251856 5.685602296296927 -1.2898882603450883 -0.2924341882408641 0.36004186008750894
Ni 7.834468490452117 0.8098009402414836 5.033101162467054 -2.132018905152238 -0.29055445471964797 2.1882432748626055
Ni 1.9478101746444954 8.121100309067469 4.350738725039917 -3.5286251730818714 0.13851149794605824 -0.15712551350281972
Ni 4.303532178213358 8.63135705440692 8.062175838098117 0.2886942615824576 1.5648500028328016 1.4283658197294176
Ni 5.874282617327527 1.0545948248920631 7.047923588496062 0.2255248280128245 0.25721470291693765 1.0263905526329162
Ni 1.330557305232876 5.490856139954957 9.5185405125725 1.2626355952767223 1.9522771969117991 1.667089405820703
P 5.520332136409031 8.865752233181153 5.523456793860715 -0.5807332712674321 -0.8546064086766572 -1.5928979101089535
Ni 9.084166339492583 1.7610004280542895 10.974462083832211 1.137402302496809 -0.8801117520366134 0.7672423801386915
P 3.0766500164375326 7.963096858420554 1.844862527769707 0.8100725879303404 0.12121851519356541 0.16041138334294308
Ni 6.7074634445790355 1.6543437412273128 10.445195017966109 -1.1760884062130972 -0.8707128273202166 -1.6152641936192955
P 2.7107825360189306 3.417912883569539 11.778580661109595 -0.26347559622498495 0.41617726962849616 -1.3457477905168693
P 5.060880890093132 4.762313724018474 8.210987878584017 -0.5540899576482909 0.6336771704543152 0.3568323520112758
P 1.4823041017927439 1.450874047683917 3.687630635996786 -0.41708872569917205 -1.7030095167560801 -1.2254121921488896
Ni 1.784770209197305 8.404649670537294 7.67581276985566 0.0679372872719217 -0.3420518512679916 -0.27883768050335206
Ni 3.277807867121785 4.822109723049804 5.464619475697561 -0.7632438005022597 0.8553507430418495 -1.073015965800939
Ni 0.3704306178715296 0.21865629937286232 13.013520329167903 0.004499687642566444 0.10419781226585278 -1.9875442476442093
Ni 5.832210746882962 4.124446922446163 10.496445455000247 1.1180817477913259 -0.15838149739710788 -1.533058826464134
Ni 1.1328763928169379 -0.1463956142593195 1.6901029963092733 0.6679450904982497 0.12002860865052231 0.7205102661894752
Ni 7.602972289231411 7.501893382001097 13.151590556940427 -1.2657582000661038 0.36675526755194254 1.974764836491354
Ni 6.3023129835141996 7.563771874401575 7.1418596352099915 0.709266832065172 -0.021087159687602393 0.22047903805880092
Ni 5.770625821829676 1.8807208618313451 4.800035293336827 -1.6401115916802784 -1.789752623880595 -1.974775120903999
Ni 4.586200837641607 2.258101686647664 2.547217818938633 1.4461244292644193 0.0891530021175884 -0.4724224652744703
Ni 8.80416730812787 2.5722737920215373 7.033503009963177 -0.9033714938955023 1.3925992036527695 -1.720303527949837
Ni 3.882079555399723 6.7246004384714135 7.110158031305011 -0.558610985447096 -1.769134176299295 1.2818574196208117
Ni 8.143695820821712 0.4748314231149219 7.411205841463448 0.7222395901757562 -2.130019358223706 -0.5762909192253624
Ni 3.531046399993957 0.597173780261593 6.055812738658061 0.45798520680321764 -0.31761094461680783 -0.045531665883211905
Ni 2.7411117125757847 4.741387876551389 7.773225754837904 0.14279958379845084 -0.5988672618639815 0.18994641668758255
Ni 6.298725957490688 3.0055149786208815 8.339525424154417 -0.18092878657000452 -0.10497582808245792 0.018923576377380315
Ni 2.3555476979564673 6.289240062584522 3.021327249859053 -1.0884302434734803 -1.6064926180742527 -0.23148130270657552
Ni 8.760783558600536 2.3048614606677136 1.9832015531445049 0.5346732436845759 -1.341216478305419 -0.06400349943515428
Ni 7.213124026138999 5.392997299564163 8.456178996551268 -0.03125484424922359 -0.6678242486496692 -0.10815396870012342
Ni 1.4698825334146495 5.093742085019524 0.6954500367241759 2.367110293807575 -2.1346188046689303 0.535562845378381
Ni 0.2579310234374564 4.5487343049561275 7.94048666829895 -0.24845675421864952 0.3808875931882666 -1.7012398264501667
Ni 0.8488160406834041 2.8036048616094473 13.41418379681049 -0.787480047341805 -0.19534804731912808 -1.0772641995543317
Ni 8.907475492400927 7.813927950128223 5.6123443996008895 0.8760008151920333 1.5764765313281366 2.3933581717605104
Ni 9.171089796200445 8.798213395367615 9.672119352858441 0.08646002866645754 -0.024179682569997064 -0.053266829743940515
Ni 3.698462353710239 5.061614808461114 10.082342107243992 0.6630934188329032 -1.1327606899597396 -0.8946055747774141
Ni 0.2134491485520304 6.264598753379527 12.690304514704573 0.8285156251268763 0.6301177352378309 -1.6166086234623323
P 6.934014870795464 1.5701449564605836 2.9596973723057283 -0.04183853330234085 -0.5205463173648907 -0.6389607874507577
Ni 5.639841568655292 0.0440305150891171 0.2494423401137852 -0.0008911443557016909 0.051527992675962864 -1.100490259961808
P 0.1373619965474217 6.440005243327214 1.3959696145751872 -1.3524879374541805 1.3795115172308758 2.1212349271628566
Ni 2.732809261037989 8.314396059234715 12.437754947700343 0.1905295428845622 -1.458581166970533 -0.3838842139227453
P 3.383281110580391 4.258515460317265 2.933768953762886 -0.29834489729834424 0.7265225338218262 -0.604432671766901
P 6.028579780216132 6.150731318587128 0.639628205655469 -0.2992730655395685 0.6227551242251727 -1.1586239308797466
P 7.339669900738287 0.9423878804072227 12.318200562954045 0.5105413836333788 -0.9067638074065029 1.6583880213919633
Ni 4.112529922946056 2.4719104552000055 9.812660133337184 0.038271641886688926 -0.026394430833128736 -0.7370848827187048
