# total energy = -381160.3653889433 ev
CRYSTAL
PRIMVEC
9.38206120110011 0.00000000000000 0.00000000000000

0.00000000000000 9.38206120110011 0.00000000000000

0.00000000000000 0.00000000000000 13.73159492109931

PRIMCOORD
 96 1
Ni 1.4658063119138147 3.9378011457817936 13.552795341210826 0.17444497861787378 -0.22637586315921016 -0.6154807020509464
Ni 2.105812990145407 1.4390580557915225 9.856140373010813 -0.0979762568361732 1.378220309223278 -1.0444042156015176
Ni 7.801774852971405 4.177268872637417 9.10360806887465 -1.7690295324006309 0.3629747174635878 -1.3860328632891612
Ni 5.4121732794562725 5.009373251361443 9.270446446337253 0.990909329007171 1.5036495200640814 0.2983533819387765
Ni 0.6700133241649229 8.440768268606993 12.31564768358915 1.2142132381092765 -0.8018882523473351 -0.6524865898513345
Ni 3.4181944573142755 2.8508706062238254 2.572573343200777 1.1663806920070299 0.7278124562778433 -0.6057146238031181
Ni 6.717921629445744 7.9918272641496815 6.633953121038553 0.15303128882878805 -0.06782981515977997 1.6621251198368925
Ni 2.1180941080914186 6.20603637724222 1.2896327836824706 -1.181186646671611 0.19346625691538294 0.10693012359535133
Ni 4.106621952749356 1.7715207720137385 11.08238607566437 -0.04154465621100587 -0.16879369386936735 1.6112895252422639
Ni 6.7102658676092695 4.425236746826184 13.447542689050906 -1.0276187686130624 -1.2716578533799907 -0.4001986348120527
Ni 8.2506126547569 5.18395464382851 6.8623922351015585 1.6991803728179768 -1.1364738771452685 -1.4439611030645132
Ni 7.968775540090589 8.7701536687969 5.085990914917066 1.7309952033357283 1.4520209972545122 -1.3731570357677578
Ni 1.5319310783641527 8.894550416578545 1.2202252340623008 0.058034683446229085 -1.7027107545687385 -0.5363220921419085
Ni 0.8528687562932492 9.20765794080487 3.7347461361609056 -1.0701594701887505 0.6978902147971141 0.11350623415097225
Ni 7.412569431372962 2.509851450302019 7.488346462256345 -0.2697215771346968 -1.8730234561857937 0.1860735639957376
Ni 6.34874690824053 2.209831901274081 11.868368242148064 -0.32843631736708595 1.5091126000611816 0.7528344322434777
Ni 8.590102534723625 7.147892106411201 8.743496418667027 0.05152696423469836 -1.4459423951606 -1.2989441998997695
Ni 5.553476501293466 3.748959020482077 6.9669027662305165 1.3769175312514546 -0.8412544128497834 0.33736807263907703
Ni 8.531267629727873 6.4406629605836 4.098084277171916 -1.470450150493977 1.4337124287533114 1.7995192163490557
Ni 8.408794204466421 2.071793636690678 10.171157146665719 0.24574166928033161 0.729997122633988 -1.5392346162575428
Ni 4.831939712327845 2.9084295509134996 9.392918933392597 0.24828423319652723 -0.5588369854149731 -1.5959698641660578
Ni 8.361846370851566 8.279790864697386 13.669418113186461 0.6020009223969567 1.1463587403591482 0.6354111224262863
Ni 6.304932683024428 5.7145289616916655 2.558360458879606 0.6799331160980613 0.595763169017361 0.795097968898379
Ni 6.350248038012387 8.27067150133335 1.937088818406907 0.2183550497372627 -0.27457761967541744 -0.334750689620888
P 7.8423147388726395 2.0301654317048454 5.2722736139557655 1.0186345628365812 -0.27472237278339784 -0.3070444819548712
Ni 8.772743117653354 3.797098375853343 0.8133055429498282 1.0357946195556356 0.3541938859471642 -0.6255581408916064
P 8.531708586598356 3.5462126806705268 12.423743100254526 0.22992038597735884 -0.8807234174786831 -1.1905043245281108
Ni 2.4422161720187496 8.56670367440479 10.593815245230012 0.819599553584169 -2.1170021200284315 -1.4074172425022082
P 6.6647159610944575 5.777792199514399 7.796580005754668 -2.300065950663568 2.292302761778381 0.9264258046118043
P 8.997462244500474 6.289499192557516 10.951784032688309 1.266220484414503 0.7403314146804605 -0.017077267197260913
P 1.7578698731509064 3.2194261113981484 8.097137146882154 -0.5848532069730766 -0.05343729388353378 0.6217444235724712
Ni 4.744883567621164 8.43535481936723 11.47740274589212 0.42287190803985236 -0.3925051228225369 -1.2715493528265842
Ni 5.919264298450925 7.860497173234268 4.335380056888881 -0.48677384890013586 0.18613192803749878 -0.6850660664492524
Ni 1.0614863899249782 5.318277612226565 7.268778086938914 1.4107663614800994 -1.1669476202540934 1.8381377000522021
Ni 1.6778315101276609 7.186471141547948 3.201438823906862 -2.006922652170821 -1.6008989260365591 2.085119669497538
Ni 2.8864098535725597 5.047492565505557 3.9394157984926483 0.8937601960579833 -0.8033926048070035 -1.4594566275969512
Ni 5.838925709473309 7.858611378958371 8.94296185172096 -0.12354022134820658 -0.7677684278454906 -0.2528872791861774
Ni 8.437531457536423 0.0222082767685294 7.890023457640605 -0.7233019700019995 0.37050290751983284 -0.16250400420591368
Ni 3.5346352173050737 4.29931072308946 7.351346791833847 -2.489385532400429 0.6904707824045915 0.4253975026751835
Ni 0.782716271023795 5.046075874283366 4.9640128624803275 -0.8798659545743944 0.34151911869297313 0.491568956295934
Ni 3.2440727858398395 4.947104512012564 9.915776506022295 -0.9492474304920103 -1.0734206574385257 -0.1787528619646083
Ni 4.913760666955171 7.123733299145364 0.25672884281977304 -0.8048918150603493 0.05095463667099612 -0.040971043095722984
Ni 6.208841613503378 0.8649444071017381 9.873991620616525 0.5899164804285969 -0.3329277774795363 -0.05395614250148127
Ni 0.6332028075406463 1.53407018828905 13.536221930323407 -1.070790161794214 -0.5620387801817224 1.4770805113263015
Ni 8.140664281029387 0.8278158386070492 11.908712042972851 0.6724584049875709 -1.9619252615245244 1.0141004224116534
Ni 7.974676856506205 4.045310183630038 4.314151267296489 -1.0349862647217272 -0.13716655388238957 0.690387992882798
Ni 5.416620376405401 2.3301662166106354 0.6134038440559487 0.25529717417925063 1.2644119704508547 -1.1338089287185957
Ni 4.004920410705988 0.22259315180772565 8.949196231304708 0.07501733404715467 -0.1620751441986112 0.0740706538631692
Ni 8.862351182972194 7.33260612483831 2.0707240817282293 0.1403074135042164 0.862941925125546 -0.5407019663771592
Ni 4.706717343171678 6.951778883779048 6.752951430878155 0.6727060022220027 -1.5254997831699535 -0.980058502335596
Ni 0.7578725732995477 1.1284649239330604 5.9067692695124245 -0.5345518876153632 -1.4452258287095496 -0.6540968717612476
Ni 4.064393295854781 1.3395331519173475 4.117857909091713 -0.944502202497541 -0.09791043659524429 0.7113591958178265
Ni 2.825201287125056 7.498368379895712 7.781035806967081 0.0615331835177908 -0.2529029629154612 2.5144828416886886
Ni 6.368524292984757 5.322152403450173 5.587276314519061 -0.08359967639952699 1.0785608068785684 -1.3968528367228008
Ni 7.254603669068146 6.446414164022031 0.43900071074928954 -0.7570736671358058 -0.5509177305678964 0.5874623624611496
Ni 1.527418306987505 0.1928857936226589 8.050078604946625 -0.5221038916599976 0.4207144953772174 0.5658684383404576
P 4.416183057889667 3.879003769030337 12.553094514489409 1.2466680162038724 -1.4236151924183096 0.04937726488154722
Ni 3.309634628625731 2.3557604792208116 0.14603928626740523 -2.3607763811697473 0.40081441401918066 -0.5623311146111606
P 2.005359262224894 8.65236189201143 6.2855277661048445 -0.6204398458284347 -0.4559116121036406 -2.690156550507341
Ni 9.253808299228423 7.220884541567789 6.502789092604152 1.17287118482738 1.592677052347399 -1.0281401883341714
P 4.02491358285492 6.9572486253852555 9.816702879285785 -0.6799372298631192 0.5333223860836364 0.35158061669403323
P 5.8577179778047554 0.5005864360519724 7.7306269310219875 0.46649324427422884 -0.004593275797637251 -0.7995076679303005
P 4.722066395088925 6.090655790152796 4.501271784389107 -0.9684268316339386 0.36023109328017966 -0.378365083876729
Ni 2.408797270472764 0.6516817150322164 12.213553033186777 0.6437306980355751 -0.5203714823499231 1.6492832308772176
Ni 0.03599333910472146 3.193794320543676 6.45362990719413 0.9204950409496664 0.5889772564437792 0.3129323081942159
Ni 1.2719072556951516 2.4800446422695672 11.614580675475025 -1.1978759344018337 1.7970167616421762 -0.386752793719792
Ni 7.6568876838039 8.04966767067158 10.445267195831391 -0.9687932138344219 0.9078485558302494 3.022013977740834
Ni 3.120736210959569 8.48017292511826 4.414158409109874 0.7702955651427186 0.6479444790066067 1.4498941807194965
Ni 1.5908973322149436 1.52398447263438 2.21673240719409 1.482292137434228 1.0835441190257726 -0.05543375548827228
Ni 7.2516764660130235 5.09672023996142 11.224012978608622 0.2953698738304203 -0.3691541068014223 0.007775787290676931
Ni 4.807790287123082 4.606038445785388 1.1598694969664338 -0.6008747792123135 -0.19823333928672313 0.3086563065266813
Ni 7.249162073645161 0.9159462293067158 0.48887762383148126 -0.08317775837075997 -0.5102575338443728 -0.033743157888716076
Ni 2.5415159064271458 6.2878760959916935 5.817513969689972 0.5346269638276728 1.3182773530107423 -0.6736557677297818
Ni 3.190885881610701 5.456137617649559 13.28601831098068 0.8089883537272262 0.49626173378591315 -0.5536963217542981
Ni 5.372562217601374 3.744905970098061 3.6909975853723234 -0.06861348740333989 0.07222820133779173 0.6709774495666703
Ni 1.6141366974955178 2.979461135305598 4.42065360999148 0.9106716271013412 -0.8146152129957004 0.05633595558756749
Ni 1.4493689409119712 6.472421237319469 9.369973226623642 -0.8577943194863356 0.43971571907006857 -0.22481957441568376
Ni 9.115863855255762 2.5229018972561086 3.0182456375798674 -0.6777003701128006 -0.7048393924214378 0.27181291244608674
Ni 0.2927897327642281 4.202365886010665 10.160707407041373 1.9986992358197644 0.49524691936815357 0.6786437078626765
Ni 7.1080652571515985 0.8988774455945846 3.1257368495120708 0.5942526459101056 -0.18881204597282322 0.028674485116557073
Ni 7.098439262489559 2.90525841427045 1.7554605598670745 -0.7582514894939909 0.9705405355428318 2.6621310118286923
Ni 4.728615073718654 0.7420384688247696 2.048616193013193 -0.2437048413559609 -0.9368086905080253 0.09231160235122811
Ni 1.835834800676773 5.903502435846419 11.521741428322262 -0.9335184497925277 0.5739018501678955 0.7460297506168184
Ni 0.32289395213272976 9.086751319742794 9.931485829084787 -0.9246921097501494 0.5296318246059266 0.605214544238248
Ni 0.005995137026357266 4.96815785706287 2.7053848615597924 1.4935620539210923 -0.1369886335436286 -1.20140734459386
Ni 3.3907988389778696 0.9793745914043541 6.595106697161195 0.8597079915692806 0.6257345185684707 -0.3505076953448286
Ni 3.5627251081609637 7.7696788220368695 2.3145704164871397 2.385029340179841 0.5103359524907921 -1.5518589898897726
Ni 4.557992911024862 0.5018924189534888 13.260587296233192 0.9370146358712443 -1.0589700292308344 0.5636416058924679
P 6.402205892240818 8.307740024637164 12.920387194243157 -0.1464736902159284 0.5929408690772174 -0.07694360453559007
Ni 0.15275778020257647 5.957599399999745 13.373158894237028 -0.7025133153914224 0.6182970884538189 -0.5999314414624377
P 2.7202441698889706 7.83382397360057 13.505216094885684 0.4602858299119364 -0.08687346205479232 -0.9097326602268396
Ni 4.880426203958853 5.917875753411958 11.697437409644934 0.6240707577128027 -0.3628654455792331 -0.6118657310061785
P 1.9621454889175367 4.150905281019163 1.887379844217942 -0.6862546874407148 -0.16982727734020428 0.4712135325680336
P 9.087689525850205 0.5561545073817202 1.7500639983372457 -1.5840047213843815 -0.27948457005873156 0.15175679299173866
P 4.04787148630327 3.0605315250469953 5.493269938968678 -0.37093228174776766 -0.3666740206920459 -0.5124565983782207
Ni 5.969721022907499 0.9486295772644907 5.251634956004936 0.20745717187783624 -0.42183472502458963 1.9142536664801741
