# total energy = -340889.1823816028 ev
CRYSTAL
PRIMVEC
9.07755932285177 0.00000000000000 0.00000000000000

0.00000000000000 9.07755932285177 0.00000000000000

0.00000000000000 0.00000000000000 13.28592564274963

PRIMCOORD
 96 1
Ni 6.580458884732437 1.4235882339283423 11.550053133319375 0.15165523441686785 0.2851633656110637 0.061223879807488106
Ni 4.590358331320593 0.44991833259223707 6.091556973816556 -0.07632833954909435 -0.8183160588860552 -0.4189270644594914
Ni 3.2258922409763437 1.9671797162323816 4.651389485621058 -1.4278757674668765 -1.2854042564318058 0.11479589949667328
Ni 3.82467528369667 4.26008949207293 4.860098005295921 -0.8321827895658185 1.7427402596867985 -0.07439152753769769
Ni 4.966014966963231 4.677085332672109 2.609395249078986 0.3282072320754154 -0.35729823590410076 -0.10735769805107317
Ni 7.351297986026829 6.201706801375662 2.75013372814052 -1.577433238814451 0.4156489079288519 -0.6607298036967331
Ni 5.119035383729245 4.306430432192197 11.318386558472008 1.0057232540915517 1.4482427611590025 0.5013234645795367
Ni 5.574874100483242 7.773286484229455 12.680566011633879 0.909665040213698 0.047634828269143774 -0.1774642250601718
Ni 1.8292734356658942 6.397654995972041 0.512892084578407 -0.08607770562637435 1.9358393630707502 -0.7869074626677867
Ni 2.4245525405045294 1.5277078388584115 0.3569105679755854 0.6735863479444271 -0.6262824206521408 -0.29562261327117473
Ni 0.17660845455248123 0.07492526653289427 4.914609656522212 1.4997967219768944 0.8168392172302125 -0.3127803559973839
Ni -0.7218520526452973 2.1074915500078024 1.2272896455437938 1.8915767937079486 0.9024237852702521 0.4002042912390075
Ni 6.772231402060478 0.9210636298024754 4.880557916154848 1.1656538411433344 -1.4380043712604462 -0.1499498216899869
Ni 0.8780532461826707 7.671027778951579 2.6255378727448226 0.2857480344699401 -0.5318540290682259 0.05627347778074825
Ni 7.829676282470571 3.8673488898672246 3.748703374578908 -0.44981089852254147 -0.5651084202459816 -0.5854216778820369
Ni 7.472002291759622 3.5871881778396113 12.580177283567476 0.8865482516905765 -0.5378369861245382 -0.24241594734120828
Ni 8.030553591755444 9.1632514385884 7.036531802515832 -0.130571160053059 0.11588270480294881 -0.13948388916165655
Ni 7.106576065424411 0.3687567828346735 0.4857138720970969 -1.2386765133579636 -0.2975267722724231 -0.6131674805367375
Ni 1.6163865154549106 6.372764328429038 9.3663518421407 1.1925910318538107 0.4975935652234591 -1.3138051761720018
Ni -0.11608292030385621 5.026081176712339 1.5215841173688018 1.5220246801371593 -1.061390465746869 -0.620146225847416
Ni 6.301115153039933 2.0993762120123813 7.162070816320617 0.9131231739656274 0.7517429989515118 -0.824323955643032
Ni 3.2991118341207146 4.619905786773721 0.5002415979671999 0.8620662073888122 -1.1471724945096953 1.1771147905950825
Ni 5.977581862777283 5.6370372264257975 4.610229108582312 0.26187225629360705 -0.10573481773566952 1.1201777110884061
Ni 5.169978646402963 2.474188634642072 9.748003297931186 0.8909936890564397 0.8957168055637219 0.01025484495878879
P 0.20793692713614767 5.796992898480963 12.451649029492119 -0.37820901791483896 -1.3469268984266352 0.06489644356306887
P 4.177864960123796 6.100101680365874 12.553193330854736 0.21126548988033295 0.22183529497637924 -0.7292497029450021
P 2.6921771431678505 8.474627791683863 1.2970824600603446 -1.3446082775957875 -0.04332103138513829 0.49302728600901535
P 6.600002869860113 7.9301830188075995 5.9296813979738845 -1.2446661552824951 0.5688108087982332 -0.7142470588885828
P 4.58000991374254 1.0443731950483393 12.392048498534022 0.15303668814542673 1.1414037103467183 0.7920679238228037
P 4.04157448510897 6.047215820006452 8.074999137497258 0.5456518541832667 -0.4184614376769826 1.7288820136474676
P 4.821491145682356 1.0124474190641148 3.626513072392144 -0.7851459998919897 -1.8821992091477908 1.2470729649517749
P 0.0772872474572887 5.683405399222902 3.6755908966340285 2.7986877000412256 -0.7674310991107299 -0.49519883973903744
Ni 1.5003843854286374 1.159295095520412 2.6132749979148286 0.521552904252534 -0.26752431237306185 0.0383685724758694
Ni 1.7478295738147538 6.714125945115633 4.8606562751915785 -0.30451065978942393 -0.37328021315465393 0.401538950890031
Ni 6.1240119715067465 5.588336120893991 9.17209842786171 -0.9250692905839101 0.18626742517409856 0.4354787981705855
Ni 8.635137194855048 2.220852110283888 10.230202339075456 -0.041264663076741835 0.8697368365601924 0.8081260057269307
Ni 2.267819401993407 5.233703112541505 7.095747444960498 -0.03641042030823407 -0.13391205150083388 -0.29322608801454014
Ni 0.3776972709685553 9.329915426950745 9.06769741859399 1.9708338768680638 1.768881951079173 0.4196197196511418
Ni 1.5553671619815084 1.1358840701398847 11.180424904793918 -0.8876869932807099 -0.25479195240805796 2.215272511066256
Ni 4.400891514049416 6.844951729444505 1.6855457163337877 -0.7854465618515442 0.939405247590608 -0.13686753458473203
Ni 5.6360750051422235 7.758353899215509 7.875776667268945 -0.48477584463350065 0.4661008939318166 0.5903299138169317
Ni 5.552025883778012 2.8435999095007607 4.578130858971788 0.1522987815381377 1.4788789979876207 0.868216286150608
Ni 0.862763005333132 7.66334816380155 7.060180659949468 -0.6409497928563285 -0.9271480274898096 0.6528187763797725
Ni 5.206470434704522 4.43065683092524 6.874230489142974 0.22802882538160085 0.8025269143725986 0.6666867926111163
Ni 8.330920950738099 7.555415983974304 9.037644343089024 -1.3866746106382182 -3.0391094997705403 -0.5323798196647089
Ni 4.701413191539815 0.20926588181459252 10.39349946070122 -0.6289075169798136 -1.285949073191682 -0.6937301698821536
Ni 8.286295669322561 7.108182793416793 4.900660171178181 -0.4737054457519519 0.17088991427676375 0.6639837918576564
Ni 7.176237255331416 6.089862193499168 6.970819350895189 0.8692768662046383 -0.16429477755774932 -0.6614533121263189
Ni 2.3557174084919126 5.713098095624494 2.6514189020051644 0.07317539574240946 -1.368749136508049 1.003686169056865
Ni 2.2770149695430284 5.230834603809343 11.59212943608937 0.40006519455798195 0.6311724017545903 -0.7634826559859431
Ni 1.1668294697219774 3.3508448444517054 3.781147479197963 -0.08730026517956578 0.3138273092046595 -0.9222883854046632
Ni 3.9654137627582036 2.491254446086582 2.3251296647454116 -1.5178173269240312 1.0732663912488485 -0.5256694975240689
Ni 1.0622741419465167 3.477830821205562 8.426066480564954 0.34409150740583966 0.30974465449485367 -0.08297309855912162
Ni 3.718504150369548 2.634924976795231 7.044157860066115 -0.08708506384496616 0.4923253748459844 0.4245495528525914
Ni 3.818311914642095 7.02632136383882 6.223060851823569 0.27349184281040645 0.41566407743750344 -1.1360650717426242
Ni 1.162617482216524 7.452730633410316 11.415532782363952 -1.2867998512277514 0.2939390549211648 1.5671992197912687
P 0.13062335475694992 5.696531549940328 7.939987690584842 0.2565521296322743 -0.13826004405688447 -0.3201771626820873
P 8.486083671493954 1.9847447934372364 8.043790488696073 -0.12159621024795834 -0.7887830824239447 -0.16749914342765992
P 1.8436704446823797 3.3589420273285686 10.546925644367002 -0.9444392104700897 -0.28699707638569283 -1.1879651030460252
P 3.93077379654956 6.334311787323216 4.144903434625838 -0.1574625851272643 -0.5333403838057653 -1.6755177390937144
P 7.0958736230344766 3.85420458403124 10.327295913123583 -1.424587840744224 -0.01598017747834022 0.4469924552371399
P 6.394759254562042 7.5729901387384375 10.072937255590585 -1.302974404105085 0.07216495220002411 0.28597043489339136
P 2.1826537408378783 8.798605882351184 5.905142031974977 1.2263102784831268 0.4348085115764383 -1.0011443764716177
P 7.122498104399767 3.824847757322971 1.5716187163586925 -1.8633260263923717 0.5862243762889904 -0.12686979994207181
Ni 5.281786944042341 3.006823502896365 0.2568504475550827 -0.10310175098819664 -1.1435477532729144 0.43277039810048695
Ni 1.648493842624715 1.4412531642852662 7.175489264446827 -1.1431919125953924 -0.2524216524036685 -1.39202867586128
Ni 6.731082825848795 0.6340448217395818 9.158108093500923 1.3538709338446362 -0.4953248237939405 0.16687513669041584
Ni 2.7216247454689095 1.7448339792526855 9.272592455615749 0.9989825929336086 -0.10091759885268427 -0.3183334246051292
Ni 6.286255188500219 1.9137401247569399 2.5529972810345205 2.87997904002255 0.7634417754456787 -1.5822885100242234
Ni 3.8348512276484232 6.819343934718461 10.325967866201065 1.0448554442063231 -0.3307361691448562 -0.5933710146361006
Ni 7.899863970815757 7.019939839665686 0.3852679554072369 0.978754953032824 0.5525568088332161 -0.05386178301546207
Ni 7.683264328859664 4.0686619219974896 8.077032510775753 0.3364789851659044 -1.0628112573537953 -0.022756319859909193
Ni 3.329930147872902 8.331029881449448 12.206736480144842 -1.5051674993705044 0.008046781563876464 0.9639829369299722
Ni -0.05249734082228209 4.959261262859658 10.149237772354246 -0.2156474209981125 -0.5156293396792474 0.9459607893209386
Ni 8.628810136037588 2.396539192569551 5.847613907800277 0.1158942747671746 -0.5416167648819447 -0.218155789242263
Ni 3.3815451499332654 3.018406468536362 11.949002786071913 0.35890080450453027 -1.735178902399773 -0.14459498513597677
Ni 1.0439011619658316 3.5091665558366514 12.698887249526674 -1.0124708572280305 -0.23228065867941933 0.6821321806319092
Ni 3.1433772271302813 8.52847587332686 8.039499526424892 0.11103154735823459 -0.025007834898247254 0.4744790906931828
Ni 5.4468351268530215 7.992908953425452 3.9528549594957147 0.7613725516214758 -0.17456659179740258 -0.24562339853491244
Ni 3.0257502139930685 8.448148551267037 3.793982240262533 0.2286284066388127 0.708168971015303 -0.16952542982906932
Ni 3.6600355910535436 4.1905916982329465 9.329841898720584 -0.9341789661946621 0.8799099204384523 -0.4686565704741348
Ni 7.194138202229594 5.80686020541723 11.682779758561269 -0.03677577406745279 0.6404864800666646 -1.3023054030625185
Ni 0.5924768622892093 8.792260668415167 0.42560772108716144 0.39142885903922264 0.023806358390978354 -0.3335458706795094
Ni 4.742153277583943 0.43321834678667054 1.3292569611688132 -0.6243651490247698 -1.158786167489224 -0.4180721726583639
Ni 6.06222102549463 5.3659994614735735 0.46582584747274736 -0.5450975243416936 0.46866556933519926 0.07297896346088721
Ni 7.876943133636296 8.251337988539152 11.332589307719923 0.7709938767613238 0.959070073009387 1.3290083662750014
Ni 0.23426184904523228 4.667481274954933 5.7329833969810595 -0.5216575481511984 1.2912828266997698 0.6362935250312397
Ni 8.015076353184758 8.911539797341158 2.649280229039033 -0.8318948260117544 -1.2839448982774597 0.027435470503133396
P 8.64884430936633 1.6014630080002434 3.4390088234370855 -0.3797341963101138 1.7950084729628957 1.832671534731308
P 1.9662356500673661 3.301381223940463 1.6736277887563955 -0.3187597135092704 -0.17175226227705903 -0.16941410106218566
P 4.796918192714118 1.0262362316089078 8.206636455625672 -1.0864150128156642 -0.6703159047232714 0.09291118360843997
P 8.608131456000038 1.2146409744444426 12.507875431666212 0.9150931532078046 0.8615995521650387 -1.68934513189511
P 6.359710798185844 7.802697776293398 1.6637032931966707 -1.000497229805922 -0.006613391551459578 -0.09883449107141043
P 2.0853150726892187 3.4601295806115226 5.74139284789712 -1.2397283516612454 -0.6288129003834785 1.8136273736156636
P 7.051674986905051 3.9687633821321526 5.807809718117813 -0.4426236367454829 0.45472504799470714 0.6192581668155077
P 2.2511439255978933 8.492011317703138 10.022596742852992 1.1902682972579048 0.8385408705733622 -0.6369257592985998
