# total energy = -340867.31450276525 ev
CRYSTAL
PRIMVEC
9.23719147384935 0.00000000000000 0.00000000000000
0.00000000000000 9.23719147384935 0.00000000000000
0.00000000000000 0.00000000000000 13.51956343160031
PRIMCOORD
 96 1
Ni 5.6561724641624025 9.06857571293981 11.165550253676448 -1.2671805343349274 -1.8123035125979174 0.5301912966538224
Ni 5.373819234490541 8.555597525463213 7.241929426104207 0.0984807072764175 0.7892381676834924 0.2374539753502427
Ni 0.8693610402242984 2.480195129391973 4.187346337057094 -2.207777231130475 -0.510987470031862 1.0518041076100144
Ni 8.719908686172573 5.856434773819416 1.8799088561950728 -0.16209365614137244 -0.29717761646312046 1.0548675770266864
Ni 6.1353979542457 0.5287322174175584 3.0558134829422374 2.378686942901581 1.1750149706432602 -0.4452021961059365
Ni 0.819289920495202 8.878178723703169 12.711593758611409 0.316087565993746 1.3257420368189037 0.7462421237379406
Ni 7.640773800301694 8.022399126001412 2.1200970782612436 0.6684181734799263 1.0062577864387832 0.9313816059551829
Ni 1.1068741716596264 8.957812550804327 4.516021310466826 -0.3821242938088451 0.21895411677384224 0.6651819259308156
Ni 5.167201737146994 2.6766517161901913 3.105660138920196 -1.3027692300728144 -0.1207839987593081 1.1703941840417973
Ni 4.551579878779773 1.640774597668195 10.341519806552279 -1.1577759810571544 2.0990655901546686 0.006752488232485146
Ni 4.084769173944585 1.1473423072042472 1.4352775716420556 1.531419748198814 0.36590397529524077 0.29987881744436745
Ni 5.093230308377004 3.815348012239505 8.942204468487562 -1.5018680026836262 -0.8264970520349508 -0.8698707910348955
Ni 7.499906631377826 2.595881714546237 3.4738518171598503 1.1283756735181665 -0.19321814546031887 1.627779809587803
Ni 6.373311056068857 6.36015729550836 1.05331324101778 0.18148028819810036 0.8424756868513942 0.6521626308530123
Ni 4.7915621114776155 6.119962607408206 7.917070203569399 1.5051428167801564 1.0889804595499954 0.4739468723387967
Ni 6.485995554016548 7.39438095676889 9.63590645836165 0.3141672090425815 2.8069833643911144 0.35182512860467147
Ni 5.868415411071498 2.221470635333702 6.887285012778897 -0.2487434322211329 0.2847617592972709 -0.00030776104840592156
Ni 9.32051087131552 3.575670606858022 1.8587907892053188 -2.031122903566108 -0.41224810977741905 -0.7898146090122526
Ni 3.3402238351399576 1.9695354769579914 12.808704351850531 1.2846249550636197 2.979057785894282 -1.6318660638420348
Ni 2.740203593055517 0.3037049976041578 11.30962827033264 -1.7703883604213704 -0.0029230871840659335 -3.065032390283889
Ni 2.819172342375527 4.869893494590691 12.273437745233185 -0.253340307563196 -0.5491652666531639 -1.1952935183866382
Ni 0.8599058511023002 2.2057027496056336 12.499227957056627 0.21103614747834623 -0.5192201423542994 0.03534572648914558
Ni 3.380802816981437 0.03910934468896828 5.622570332989001 -0.14304846658446332 -0.011383816356909427 -0.31301561193664157
Ni 2.7646729130869483 0.4305279407161017 3.1117843968216077 0.3683267258041205 0.5212176324003024 1.7873355297986702
P 8.611537956610947 0.7169806359334328 3.772147515477331 -0.4027674239804935 -1.2858454577342824 -0.9502766430874732
P 4.276403946829475 7.223280460376967 12.025340639886188 -0.5647975738737822 -1.5588513620472055 -1.1847116291057338
P 4.192779653041423 4.145346675177551 1.8997013862182317 -0.7411017171875817 1.127717471108877 -0.7223442340744204
P 8.121680459220673 9.022786955146 8.127014937256972 -1.5178216977994055 -0.3637583897071477 0.31355760048304065
P 5.658481762013613 8.501135044940254 0.9900874370090453 2.9012263794371003 0.2016387654238463 -3.518485770655024
P 8.242355127733553 3.1129057918581555 5.813939074761432 0.4426040963614571 -0.654201515659912 0.16869033552228369
P 1.0699715919972752 6.33389596034439 7.300077545997699 2.2929571075329283 -0.861638118712458 -0.7397508595866421
P 1.6139959797855525 1.5136338951719244 6.535654695008988 1.208947618834963 0.6726538088278285 -0.5711451133583648
Ni 2.0015331079843706 4.650713416936556 1.1672456835242642 0.9500131050134412 1.1332710539372548 -0.743777721357848
Ni 4.561288166946263 8.37206376944037 2.527239221497702 -3.617673017080163 -2.8812599636175023 2.7179198366635386
Ni 8.460722332544062 5.236887109105136 5.327410661153466 -1.5359842276410451 0.22109610281750952 -1.0929530710444986
Ni 5.510501955708015 2.810110657607375 0.597955729805458 -0.23473657641907963 0.2927951711247086 -0.13197678215133402
Ni 1.1622880828972844 4.284597335605571 6.069377899837001 0.972518228094493 -1.3399638368452407 -0.03811788991764403
Ni 7.950783181039657 7.964398801170398 4.8066372078503194 0.3877781496605128 -0.44373563886273903 0.035694368077815945
Ni 5.814026828079778 4.609607915185001 4.687638165858279 0.13227760122120444 -0.5491660379841122 0.5394454682622387
Ni 3.076123295684068 4.561325115711883 3.9329217555977785 -0.11879833578784701 0.11009309470436522 0.029180221108382
Ni 6.44385548682765 7.201794753169301 12.443771554738506 -0.37529004449583114 -1.3505143586675774 -1.680411576850906
Ni 5.115806004170443 4.913936423208987 13.075445804329066 1.6549980218738078 -1.3579268490815646 -2.0420161534398447
Ni 7.394510277448558 1.2655229340378191 10.875136650784722 2.9090348197379257 0.6339857028336694 0.9489800357632366
Ni 1.68720072166894 6.642390441691958 2.6527948219489015 0.5605444550243829 -1.188472895920379 0.6177047062854588
Ni 3.915987212595278 6.21764590651443 0.6927006783258006 -2.2117673261264748 2.247131564558382 1.3875274455568167
Ni 0.2271111301943333 1.3247333309428682 1.4299375512909154 -3.258059502779324 0.5902034155413964 0.26704274475095297
Ni 5.478883049529235 8.283737745227254 4.869367898399755 0.20765771792441653 -1.1822857932730606 -0.44305403941468213
Ni 0.16558312196580902 4.600398435354371 12.951025454701522 0.9941784866767459 0.23612625767775464 -0.12464039639092082
Ni 2.3644531210892796 0.6897069045914909 8.853164409378852 -0.7314503101407468 -1.8343152409823185 -0.517839717067005
Ni 1.8733670772421622 7.1042130631685305 11.567960183756204 0.13505902062108352 -0.7197332788141347 0.5087490676196464
Ni 4.97286970437189 5.666712099555329 10.468725169388385 -0.5785568324414037 0.35114147227408554 1.314029890588298
Ni 8.858134018354658 3.3426624536708367 10.720053444288796 0.007478310654916153 0.22765755808511115 -0.7961837457633901
Ni 3.1520345346490743 6.783192950275993 9.498588218375522 0.1375807586016727 0.862015813766851 0.9260671357208051
Ni 0.9765928240857089 6.584750367325733 5.054896887766044 1.248706901010772 0.8220097056875586 0.09504982721799758
Ni 0.8548540311229912 7.406952774270882 9.25338420137652 -0.3534284685360494 0.6619078831652342 -0.216618269551814
Ni 6.891840795579767 4.4256677227403465 6.83854681976952 -0.6970116688469028 0.35872905481335643 0.42906261023159653
P 1.7316223751348336 6.963345894244663 0.48690806217470645 -0.6821082693725091 -0.6881333925206665 -1.2218100766199282
P 7.3264783627518835 5.018178128212649 13.162646738629073 -0.09668479171825929 0.5128296654469232 -0.3230974216526758
P 2.113515579385292 1.188928142908854 0.7351344882013722 0.12706674644422636 -0.3044420113350176 -0.6846420915379564
P 7.365588631159992 2.09175275643548 1.38095549642845 0.26357432658637836 0.22289561792009352 0.3117442014233857
P 2.922619648918373 7.388330596398717 4.215913275195715 1.195222813049703 1.2599210245590364 0.30073268080423043
P 7.251758721478101 3.4063067024502103 8.980964647341429 0.746380706198334 -1.2451243258658362 0.3196032924564883
P 4.000572174289433 3.959244979944162 6.137489254379757 0.37195249548216586 0.20616982052498042 -0.5799107753661368
P 4.3243080214549945 9.073896335189 9.058850797828791 0.28662812308204827 -0.846556284678671 0.5041102832960543
Ni 6.359658487172498 0.9051006574887797 8.980139766148975 0.10380726169565346 -0.3820165645863872 -2.352442664493071
Ni 2.2181544836193634 2.7029130513541624 2.4361845309435943 2.0410370773560267 -0.5180292073699918 -0.8076516371936736
Ni 7.658555393756018 0.8364156733597824 5.805935972128276 -0.11432667316973859 0.6904607551022626 0.4647798611275479
Ni 7.4807579335955845 9.025123964571424 13.201055904209554 -0.18087427918298526 2.375259662387587 0.5507554939584193
Ni 8.71570576408337 7.102467233993015 13.472353139488957 0.4212248593547327 -0.9786253694334952 -0.4479712742106414
Ni 0.2233432798202975 4.346735922185956 8.377451823186815 -0.07681762048068706 0.8715702902245055 0.4905448859067939
Ni 2.882206936522181 5.074802111524341 7.750374000039306 -1.4074275269148535 -1.4281920131557144 -0.010155343266447028
Ni 1.644321679167655 2.6280179034436886 9.676411542671888 -3.223937621394951 -0.8616329765061354 -0.6726211558176803
Ni 6.356998176047904 3.712999931473835 11.009953459338416 -0.3461995548877779 -0.276734261007104 -0.013421672722544627
Ni 3.527849666955145 2.3113946936598566 7.561938066537914 -0.6136529048135884 0.4208952439294558 -0.14763068663850704
Ni 8.330459459352953 6.757799911104077 7.557300996452683 -1.7431752903416882 1.0870377340013277 -0.05964033737045213
Ni 0.6979335472566447 8.90261109496898 7.020560134087124 -0.269568082275968 -0.623289656572404 -0.06171444629066145
Ni 1.298176405653942 8.696279950558983 1.7845958204033323 -0.6410552080859412 -1.6468476248525317 -0.7675807373147169
Ni 8.505347204220863 7.945998315891949 11.08690757721303 -0.4336905959219111 1.1448415323836734 -0.25831076419459387
Ni 4.08767888923711 6.263831863538648 5.677175989978736 0.28630442119404237 -0.04819687142020086 -0.4465869922686051
Ni 6.621375831245939 4.377135519099297 2.1105116447404373 0.6322440375522144 -0.4616197182320114 0.3384659336889461
Ni 8.576981623565425 2.022141282008577 7.97838113779991 0.23107429707614396 -0.45932243755740254 -0.6386121458620871
Ni 3.717082770074776 8.987177582280326 13.104579906019943 1.1088633145168516 -2.184381477914354 2.441570212689363
Ni 6.753162841018845 5.443356811386205 8.880730959688327 1.5946478029205249 -0.841485555023983 0.5167914783081488
Ni 3.069906665868608 2.2601375185543784 4.8073540139033355 1.145102499354544 0.3104270252738589 1.0642451615868447
Ni 7.656236858713402 2.8499968500934907 12.721219835774395 0.5483479129581912 -0.4260513342090985 1.9067342181746774
Ni 8.088269537909353 5.66368230077454 10.982495907887516 -1.9971421757452896 0.1364445881147005 0.5620333808650836
Ni 2.917243603520754 7.8639720562169355 7.3872249045875575 -0.2994443010101101 -1.0181028587028274 0.6682281689563073
Ni 4.9371032992523345 6.0111300182763365 3.0449302240290503 -0.30057327240823073 0.5855615458940109 0.1710272111855764
P 0.7750363839128762 5.37358830470542 10.387553349918319 1.639960410814395 -0.10572838997776629 0.22238191150846864
P 7.251638637989838 6.235141147035204 3.737145026086956 -0.6836771565215257 -0.683817538754132 -1.827790295379607
P 5.825120694956995 1.6451807379683054 12.367629385988378 -0.9173431255842459 -0.13310343955660947 -1.1455930658377174
P 6.354938282364623 6.783146764318969 6.525771823924946 0.0859046703836198 -0.8388568591518842 -0.7223414058609431
P 0.8895332188141963 4.642178252078481 3.4485566922168256 0.18897968189893904 1.0170939578223388 1.2377149207756426
P 5.476407482232736 1.2181915652793993 4.994356335298697 -1.1749175258334474 0.29278360116048285 0.5087994612416076
P 0.5157123961324309 0.4704557005635391 10.454407522710875 0.6573835129323194 0.2359041143646195 0.9810404066328909
P 3.26377683907347 3.494697387003161 10.194169976700493 3.7645768528549746 2.203945258978895 1.5316827720522137
