# total energy = -340863.30176733586 ev
CRYSTAL
PRIMVEC
9.39534583454420 0.00000000000000 0.00000000000000

0.00000000000000 9.39534583454420 0.00000000000000

0.00000000000000 0.00000000000000 13.75103832496850

PRIMCOORD
 96 1
Ni 5.123563782646556 5.647673738180189 11.049096409324294 -1.000385386818406 0.15818917888064368 1.1506897636343345
Ni 4.097601445160592 7.081300118592518 4.074129992935687 1.0317178783831007 0.229158825220986 -0.15681286735840735
Ni 7.073887190962444 5.7741350891317635 12.539502620965504 0.8295450948326553 1.8073284279808293 -0.44186721819543257
Ni 6.83249257803534 2.9970212734058737 0.7002520146250099 -0.6258034241331932 -0.12133575749772006 0.9603841638351203
Ni 2.297302914407465 8.03205271504079 13.407633488280561 -1.9389791942513122 -0.9767857451215952 -2.3349653336439142
Ni 9.194510632513715 2.1581766376696545 6.534795417432722 0.7963812064861768 -0.21952927255102195 -1.2477455655387673
Ni 9.277913114861198 9.129964608662503 5.469213847344402 -0.7067029279927377 -0.3989022845981324 0.46507373821888287
Ni 4.608604893667668 6.97440927239816 9.040165775072236 -0.009386069200590286 -0.6283830119349114 -0.13906042847099276
Ni 2.667488923979755 5.951425259447977 10.824129558071693 -0.18613989845729878 0.5280765643036648 -0.8006286689086212
Ni 5.790276292767336 4.1930957372164475 9.313866283634335 -3.237114525096541 -0.4445645625219376 -0.7505356089069719
Ni 7.175817294712343 6.059312012269444 9.962131972324332 -1.21472771585185 -0.3543558654463252 0.8168268759350384
Ni 0.297931104706533 7.055228034722487 6.883852234422917 2.683364981506805 1.2949505053593438 1.1175850106605656
Ni 3.65955285476191 7.31692598935883 1.2001811693455608 -0.4848277809173586 -3.2274019257944673 3.8353351545154593
Ni 4.976047462342643 1.7130345613892164 10.60642342985144 -0.7519615427202211 0.022434674854432332 -0.6638092139530052
Ni 4.418386727890135 2.251077814356815 8.38165634114134 -0.42408058363597284 0.22051889015780088 -1.5142110976300114
Ni 7.932396284911268 6.819771280175872 3.4767983514803595 0.46546891677477253 -2.0160729512115214 -0.30790862972737937
Ni 5.2000418953319825 5.414218192233328 13.714020403971968 1.1519629739198032 -1.6250549544574722 0.811105657180545
Ni 6.995464241750497 8.141874909043239 8.634551796542429 -0.236958780881379 0.09053137052235377 -0.3962627900927562
Ni 1.0244778728908426 4.079271126014491 10.557317716858607 -1.065635871286784 -0.14606976990929038 0.5003577582321577
Ni 7.805117538897821 4.324273551628475 4.072424737720403 0.09128084709386859 0.09934639771082246 -0.16326119408691236
Ni 1.924965370706801 2.7302404368330664 8.84096847756332 1.6145982779005226 -1.337185245658839 -0.7429212868948238
Ni 3.554014938325131 2.351016104852499 4.110969142793126 0.5670035803861654 0.5108049217074107 -1.4082376815209747
Ni 4.828803607059352 8.691803274117355 0.3077107198778179 2.8044441429090283 1.4562499477341952 0.12635969307487271
Ni 5.274781869092738 7.5750537126904485 6.311809105019689 -0.002601185068272939 2.8393453256615873 -1.2263043649458558
P 4.642738184009946 2.839264026464722 13.592516037326638 0.5003096786030415 0.30468369503217846 -0.5812960857494376
P 2.3011456107328137 7.641121782518939 5.213087332612537 -0.8681797764857178 0.32631335748681217 1.8172965949371347
P 7.321229057615578 2.1089356317010655 5.180579437048461 0.3438228271254853 0.43539138066310173 -0.49458357475254183
P 7.016810466814538 7.849736034861345 4.922500569513645 -1.055130600880086 1.2553282629820317 2.4206550598032504
P 1.2728062508255449 1.708769074514624 2.783979934245609 0.6403841501608455 -1.7596331787873953 -1.6670156151599742
P 5.221763934217572 8.833701177789097 9.896195437333384 1.556370761717197 0.49628667348657757 0.0025513056669439933
P 7.135464285623413 1.7029345649350602 11.243384638789214 0.12058936624999878 0.5886507263422959 -0.6956127316168472
P 7.2916900912417475 5.460556036430443 1.8146696512891989 0.6376289560132116 -2.3532134812208247 0.25255149311331343
Ni 2.604502527487975 2.7485425699425514 0.5383720900614545 -0.6366624783348842 -0.32996740929963175 0.17205179579534885
Ni 3.3697816076557814 0.6504209809565874 13.084085034428073 -1.3905132676580183 1.835617761843826 -1.0465004360089136
Ni 0.13408191571805564 5.643436437342212 4.97729798283385 0.8818678154957715 -0.16112872112494186 -0.2593574602915533
Ni 0.1377855609294309 2.686702405606499 0.9339856627998178 -0.24184773354256414 -0.4822147687745437 0.4520711553116279
Ni 3.0377782823529715 5.515011459173039 6.215249380779739 -0.6925559470683944 1.0220898683750332 -2.9688733891621126
Ni 7.968465016434529 0.4688719005076589 12.932094650578605 -1.1273225496633037 0.5530787427749572 1.8166291365564649
Ni 2.8771272689858844 2.5559379863981757 6.282711719886181 0.5153082088944028 0.7031167533033762 2.0446191382803303
Ni 7.1296109853527705 2.9625591459697387 7.195010106578902 -2.0384749730558056 -0.08499475697484073 -0.05299763524295389
Ni 4.476027172770366 1.5951417655689808 1.4914096345447496 0.17636739245156724 -0.40766666105432364 1.4373140300616407
Ni 8.90907063970095 8.303803689403594 2.122184008445257 0.775169091184936 0.4949520138355541 -0.6458225475675974
Ni 1.3396353436426738 3.5999957593917737 3.5955527004864987 0.49755551289667216 2.2004135916765524 -0.6141236738024198
Ni 8.487670601596934 2.1722226792500856 3.2339277297691176 0.9075199688462371 0.5952121816098975 -0.7933894708477046
Ni 0.7693378694405466 0.6141727983335359 13.480898392791735 0.6471944882144597 -0.24281241144867857 -0.19226529462874628
Ni 2.407172085137608 5.1828108316139145 1.3144342083040845 0.255537829435147 -0.38024764561142255 0.2725662456723435
Ni 0.09270669303450824 4.809383427830755 2.0236991779044176 -1.7795497152056643 0.7339771903276585 0.6812266380985043
Ni 7.749374953816417 6.287863187845077 6.356871061292642 -1.0485249226381104 -0.42054146013446286 -0.42881527010748083
Ni 2.7538321494808677 9.185397147341128 3.8142763446285994 -1.437778628402885 0.218955659435739 -0.6749449188548505
Ni 1.3699071469685264 1.5928117198753708 4.897541834089955 -0.7279001308956431 -0.6374556636601408 -0.17192863995392324
Ni 2.132217297946088 4.530351060675418 12.728593345278387 -0.14430445047875148 0.11743410845046871 -0.2422719655641763
Ni 5.658600525041755 5.670560799912584 7.041108709446854 -0.5211685243299218 -3.6726277760494876 2.442586569769019
Ni 0.618178973671259 4.475444661346963 7.912278031509142 -0.5993519148098839 0.8163033993314005 -0.6387946941865386
Ni 6.510100691218671 0.4542922033006266 6.749958225615636 0.4433818550677461 -0.2788405087168294 -1.22063842490933
Ni 5.864734406161931 3.525105460102397 12.021390654023811 0.7510287464933065 0.017155171623047874 -0.30752784934919297
Ni 6.518612874276778 1.324217581613585 8.938930926892205 1.5009660596946472 -0.5519855097107783 1.053121026649225
P 4.936013895002028 3.4079736872708004 6.1240525197733096 -0.05562658822536871 1.1240215103145288 0.06859548968121089
P 3.5956832957894878 6.1852284331797724 12.88151856600896 -1.9115704632210562 1.17582255414622 -1.019601811845857
P 3.4307949815844245 4.687864028632563 3.4849121718876246 -0.45774069489257946 -0.7264867954878844 0.4519557127796862
P 8.087767114085578 0.7537819958320383 1.4031422422773008 0.2684967035886601 1.7252349038131836 0.10134980129409642
P 8.717461962783682 0.032590574604816125 8.006624212340162 -0.6526547399980824 -0.13849427155487762 -1.4365907787423708
P 1.1995977183876043 3.937269873541822 5.676305114174975 -0.16278348311954546 -0.822290727263087 2.0360087709035004
P 7.564436972231661 4.757135911289767 8.183077257368872 0.868302160996195 2.659668152110497 -1.1407748185134674
P 9.013358975181076 5.486233515787847 11.564526944649229 0.6250128099110978 1.3762775836746104 -0.9779352853450062
Ni 3.2540779273460747 0.02604953504073835 9.174540825571102 0.675741703724533 0.9274719864881318 0.4272772361963997
Ni 9.355509273665735 7.853353242893763 12.288573611385676 0.263281735046624 0.11450099396407376 -0.9371642740752311
Ni 4.895970932315875 5.289739259190429 2.210534079753447 0.9648242018843449 0.2853482279283602 0.1237371678503611
Ni 0.19064847260320797 5.983904968975437 -0.017289314860407815 0.2419580338681833 -0.1717931428173235 -0.019010222553915646
Ni 5.732288220102172 3.3687950963742126 3.280199806547462 0.25766156064636914 -1.0023293979186543 0.16282307810822927
Ni 0.9165479014798977 -0.14207359663331642 9.384052333412457 0.09543883512630016 -0.4144286623685056 0.8832186730967112
Ni 9.164144875732475 2.096965961484698 8.770989125387048 -0.8460760026081429 -0.7263171026792394 0.8362657013859404
Ni 4.246057300018381 8.092032600960168 11.707619936273499 -0.4836383885949478 -0.18686083578372334 -0.3809050766897633
Ni -0.08189265031940693 1.346014783263485 11.158788947558309 0.4436592770988488 0.38387290106883565 -0.47155060419247824
Ni 3.0453603262027427 7.825618182863374 7.379067744286677 -0.46212031201751375 -1.163839413642415 -0.6982650816380297
Ni 3.460690971088727 4.618000239206418 8.074430421093322 0.7789157027115617 -1.2822554263901789 2.548004627595218
Ni 2.2914026374091296 0.19497878736201785 1.4776041138101101 0.06285113099826595 0.20670358154126336 1.1209698679723983
Ni 7.793852519596859 3.6193877525837537 9.913852110204356 2.1170591985186116 -1.2173998633673744 2.5076395935146105
Ni 6.230889812498098 7.218641279677966 1.5869386893790984 -0.09450886711286303 1.3862976869147736 0.35853287964215025
Ni 8.274058025427912 3.826968516916897 12.755187810360374 1.2077913937433329 -1.4462786954540963 -0.5838239943776139
Ni 5.717885155391268 5.287728655245137 4.742471655972886 -0.6264703682932308 0.033859885972238456 -0.15545866732335806
Ni 1.7707689597248355 0.3797532899343993 7.064609287242929 -0.4056275191371079 0.5925369487705795 -0.08398688453561665
Ni 9.07585681370484 6.926633940333615 9.410288835829418 2.6222683713058004 0.5353962378935295 -0.2412790055232877
Ni 4.711427555243748 0.2525299764596312 4.731140869253153 2.025527411756202 0.3448173298282706 2.1647230802534785
Ni 1.9377900173671947 6.35894837219126 3.516264439950433 -0.9515015166335098 -0.7576287683083275 -0.42572506121793136
Ni 7.3690983431355095 8.561085831636726 11.122719276500494 -1.0919020040721648 -0.4991418835471855 -0.996816181409909
Ni 2.687632544814835 1.8827145018190423 11.080256072803557 -1.516059206582344 0.45769030127061816 0.10128243839127074
Ni 5.559986978267035 0.8402379654796162 12.613964492498313 1.592996897580663 0.8875810638304651 0.4573398599097349
Ni 7.203091982811334 0.41293389223904897 3.827409158622664 -1.0330700215356208 -1.957593981139022 -0.1654967682856505
P 4.273698406593383 0.2894442890813801 7.125539982130831 -0.37624263821708753 0.5053030180525749 -0.399833281052834
P 2.040490539451272 6.249501992010361 8.565645392826681 -0.8090258918333808 0.2534794042442215 -0.07723413919281537
P 4.913051670505324 9.246739358363627 2.6956571094394817 -0.018030118028833465 -1.101223795693723 -1.2103355003214253
P 0.9611250579230511 2.6400169336244503 12.628003957336867 0.019549639997153426 0.4184820065022728 -0.021454313219034016
P 2.041458260041763 9.14170879058594 11.392061284267163 -0.3315740916651193 -0.2292758104148245 0.19273606361757775
P 1.4207641523697803 7.230075415198625 1.586333629126403 -0.7628013136482025 0.2492378553590482 -0.6581918677662277
P 3.3072086063677064 3.9089241160514137 10.27620522020099 0.9372797166071729 -0.45211332140347305 -0.39367626031250263
P 6.843099923148589 7.99731812258403 13.337324359475879 -0.011793650200818398 -0.06077496519552758 -0.7050165414292503
