# total energy = -381176.58394938393 ev
CRYSTAL
PRIMVEC
9.13992751410138 0.00000000000000 0.00000000000000

0.00000000000000 9.13992751410138 0.00000000000000

0.00000000000000 0.00000000000000 13.37720779492606

PRIMCOORD
 96 1
Ni 1.1171550677097073 4.556445834912712 9.269575620268318 -0.20831566322338962 0.48543327571184136 0.38217545876175474
Ni 9.260848817419141 2.2819200181606836 1.6724851852969522 0.10488583947181292 0.7695959679725327 0.3796758322683526
Ni 1.7169810947132167 0.8200370440605692 3.721030862706206 -0.29014333532415837 0.15305802830166543 -1.4477694210670098
Ni 0.7365355797226997 8.175427578251895 13.241001196857225 0.11891095010631134 0.25063062194151675 0.9447032627647537
Ni 6.265447772852435 8.64108860837326 7.086950861296129 0.9024541242875554 0.045413652248108886 0.42385252678556684
Ni 8.913001453747183 1.211990956234071 12.576354803487602 0.9318706297764596 -0.9899101983186951 1.1253245453966685
Ni 7.187218608778669 0.5106450116701658 5.167160257637026 1.202766943945548 -0.7638503237380071 -1.8418819975859826
Ni 9.157019240160393 0.47937092148475574 10.486152078167065 0.47437624656673144 0.12796097612372156 -0.8712244768493125
Ni 0.2510601006102047 2.157214846319279 8.683400075098959 0.43016921303221395 -0.4010013332190061 -0.6915930689344928
Ni 2.5440257212459936 2.8923483611518823 1.17966486038471 0.6893333263660386 -0.0486126188013808 -1.4192985673208267
Ni 3.999970484400245 0.7385838374923903 13.040249085608604 -0.10541445828177329 0.9337143678534178 0.9918614085077949
Ni 6.647825782904986 7.259268657857076 5.392392750904118 -1.34621727395412 -0.9468570758829629 -0.6012537598182871
Ni 6.805772871338827 1.3165700075540179 2.834201969901468 -0.09546968836423557 -2.2647143106371512 -0.01489594327522596
Ni 5.389541093500533 1.8290548866451506 6.1278050335277765 -1.0576227711743205 0.504613448184718 -0.5285491330647091
Ni 0.2300647729763076 6.446911894938279 8.005550142353632 -0.1805811734225987 -1.0552041344304988 -0.46524625924100516
Ni 7.518458724045772 1.7005200851495719 7.0112219913685445 1.7696923627956103 0.24322815882985852 0.6457251027577846
Ni 3.8643430991060055 4.329154115962839 5.520492491847098 -0.19311555844418357 -1.0225570378194389 -0.6516185854240842
Ni 3.580045651867153 7.8235403665915255 10.548423318732343 0.09051234435896026 0.32249629773356714 -2.0240845086620882
Ni 5.658465182557236 8.509939787591062 12.07222107622229 0.43249708983444224 -0.5077450518351643 -0.13152246822273478
Ni 5.17185543843261 5.23033269506126 9.261629367234097 -0.5502505292975427 0.03376784047906443 -0.5655123405526196
Ni 6.653401138726099 5.811120252924807 1.8732638023355415 1.3219062080125814 0.6454512802711078 -0.18015925539383165
Ni 5.951664919254716 5.273857030176239 4.272479253052096 0.16004757224562113 -0.9016596534107181 -0.18570641046430597
Ni 3.788134382980702 8.077995950296064 7.721779154943134 0.796391748009138 0.14292479652240547 0.6066659319727938
Ni 5.417746909998815 4.138796844345943 13.424697289257029 -1.0142444041886858 -0.03611911432006038 0.19963459050962393
P 8.312818969568225 4.773601374181251 0.9445767832128559 0.4568271819393745 -0.7041325961624002 -0.620376596690667
Ni 8.662348079914093 5.329683707807967 11.332354906891043 1.1479224853018424 0.15909086475930667 0.45585813315788587
P 5.093334320630682 0.7256928836397725 8.13239222926221 -1.3776680362642337 2.523821345480795 2.0321024938705583
Ni 4.937270057277413 8.881989679483192 5.0897468990572605 -0.5834768954508402 0.34457101814541946 -0.6341206857496369
P 3.119521261043272 5.786067711440104 9.595818937129843 -1.1617313661604767 0.5609476040000726 0.42738059454348326
P 4.91914558089501 2.6702298412097965 3.99681538140115 0.4094875163131464 0.9685229908921709 0.9078932930252557
P 3.4436962122944412 5.071224835825319 13.331243357782096 -0.562020011128645 0.08539019264104648 0.11454547404876401
Ni 3.211021076002544 3.0323537717548317 12.119027559329664 0.42380444715645077 -0.9654533508279115 0.9418357114089714
Ni 2.87899492696394 8.570500947706947 1.5491071309395237 -0.8704441470398622 3.8179290432238697 0.3183236544131163
Ni 4.821293516270701 6.987949907775568 0.4553000082216713 0.727185878437438 -1.7276196019952763 0.6987067971611386
Ni 7.750165028014656 5.399713832892168 6.244587716146657 2.0400703425673834 0.20644981365924445 -1.2438025217306192
Ni 0.9312306609669735 4.429199763205292 2.3260686103290755 0.04101063808440679 0.41594535612334815 -0.7438335142964481
Ni 3.9868455484016923 0.9281230855912714 3.1122742124685834 0.13600235837095934 -0.2260349348800236 0.9763226894422475
Ni 4.193407911610117 3.32381692221295 7.719184329504423 -0.7108971685797435 0.08984694286081944 -1.4271237197922002
Ni 6.34453556616405 4.241209732830474 11.306737517882167 0.17314939973490182 -1.9007684875095456 -0.8515866480137269
Ni 3.2089280325877327 3.3123006134677015 9.790417135141816 -0.23448126587516394 0.7412459560749298 0.3571689094150881
Ni 5.232188100359106 2.48426887475676 1.7244292216945682 -1.9826624940718758 1.7250790949616095 -0.0833875603887209
Ni 6.821310748217337 1.5197780173422 11.330482135730804 -0.27684867509778127 -0.3497476772503525 0.10584511806128868
Ni 8.789466192635453 5.666416919548003 3.860742881633979 -1.8271632033185694 -0.6265436447333275 -0.09941170373111913
Ni 1.7306270065835785 8.217818562347501 9.058068556241496 -0.3129886153534481 -0.5841245563371682 -0.7971957319676721
Ni 1.213791521966463 7.236583357614452 11.122920778438367 -0.3252283519527496 -0.8405638145406622 -0.41323001407471416
Ni 2.8141105811047975 2.964197331823627 3.348315584086572 0.14440343795046098 1.334677391635321 1.39047264422807
Ni 2.1588234735725833 4.9267682804930555 11.367710888731715 0.20357917697966876 0.8428402692796646 0.20504110623717592
Ni 9.023402638932783 6.856188711845804 1.6102550744057629 -0.07933935846127627 -1.1802726194977737 0.6086603366950033
Ni 6.812938574558093 6.528951884856811 7.907655120069717 -0.9605803390063263 0.33267683781099483 0.9534298440044741
Ni 2.7851735704004668 2.1624977244579724 5.67576158150129 0.644857869661483 -1.2072553187342048 0.32703069526881096
Ni 0.6493415846442901 3.3654675721749316 13.007368196155406 0.5099351175079476 0.9085345261536805 -0.8943410082621179
Ni 7.338393010878994 7.737963224701239 3.2126571230385754 1.1625608040403077 1.0089998679602945 -0.07544362295129588
Ni 2.5395380168063775 6.575748314043853 1.5329212331959041 -0.7563499015959039 -4.00865064751458 -0.33656254601864616
Ni 7.44442531068346 2.788930080634036 -0.24093123287093135 -1.0392740934638036 1.615908512071514 1.5291893162063985
Ni 4.666819600315585 6.02610962935793 11.554643429486035 -0.41624797496543153 -0.6148266134067153 0.19261573598962956
Ni 7.406046754793541 3.3775231366471403 4.995959360225817 -0.0021476424706221076 -0.9447811671905405 0.738247021347606
P 4.8371695704695075 5.576763369959 7.103912738890917 1.5753899831321772 -0.639663469944737 -0.15175396477826125
Ni 6.75365700430279 5.921119281297082 12.786457060646056 1.5909742107236793 1.1492638298210853 0.5832858624859567
P 8.67861715099865 7.760648524943862 9.547901952822034 -0.8455296431863696 -1.007600930730239 0.3200612059295133
Ni 5.672814868850918 8.264112295517885 9.573987306122781 0.2973084856140299 0.05306114149103765 0.07960983851384354
P 1.4135080794207682 2.1338988910739385 10.814737044473457 0.42347945971686424 1.8224244030820034 -0.48980955040266616
P 1.683163362683519 1.0086641273874062 0.409167137776618 -0.07063617426032351 0.15815729720144375 0.5848503787595992
P 8.764696988905593 3.5971830160713916 6.872313372074667 0.12472112903018522 -0.41692083266274005 0.2375372790926683
Ni 8.839607835315162 8.77509822648662 7.600555381515273 -0.0931595521738202 0.25008143430626606 -0.8767986285029803
Ni 2.625096878841513 8.672712757784815 5.832864140627145 -0.28301675158170614 -0.8411482262892224 -1.7894600323408405
Ni 1.6932172830166723 3.479725806797433 7.331137736369488 1.041316063594497 0.3720689664553721 -0.8763229744181424
Ni 4.082613709538766 6.652596825099447 5.410585776743337 -0.16322468442202212 0.6201354272141384 -0.3473177276526212
Ni 0.9489529805360503 7.632982016567966 3.6264006225522936 0.22140952029287028 0.43564154900069485 -0.2651776665177562
Ni 6.555996930552994 3.7053449190009715 7.234715156418001 -2.3238106025786753 1.2289315181560576 0.029011813851317778
Ni 0.8644461241648654 3.5519403745722014 4.859257119448688 -0.26340643354994636 0.08937360276882672 -0.16453903235807146
Ni 8.124024625566754 7.904154527808264 11.694636044190378 -1.141853653399943 -0.2753692623387774 0.26715484484878504
Ni 4.600646524668285 5.0657682990626896 2.1556299828776706 -1.5991860571105103 -1.5015363303758207 0.051820584215717204
Ni 1.0343656037299767 5.762578097570827 13.20366550670368 -0.2530520868988158 -0.05565924123551705 0.6509534410362596
Ni 2.6864532126564757 5.451317863983973 3.5616277838095733 -0.10794930888848504 0.4531954987240582 1.1001436752556666
Ni 1.2484958269709934 6.10597431651347 5.496306415496561 0.2933245612656174 -0.18498881557199107 0.9350667681162541
Ni 6.865867895148358 6.272668315637155 10.399494596837341 0.3994581571016024 1.8784214872729132 -0.6603389960162176
Ni 7.768783060486141 4.4305890321967825 9.008466169288747 0.25030460606066574 1.1689607940293802 -0.47929219581111
Ni 5.145651266073381 8.884759077538597 1.5827246985553158 0.8279057594570193 0.25970507343895916 0.5600978544052676
Ni 8.931564646653214 0.1040681293684712 1.8875906388102852 0.09304436675219459 -0.9925435221764842 0.46280062591399007
Ni 2.7197956684522424 5.920232708322248 7.345250698538962 -0.5069503238480108 -0.36197944342985394 1.2861277648613914
Ni 4.583180123071324 1.2115065400725644 10.71062230147435 0.16126833202659968 -0.08197371076032979 0.558616898984367
Ni 8.498469178483692 3.199340248560935 10.673928234236612 0.8322159567965991 -2.364245313554954 1.4360588174983009
Ni 2.922226784396499 1.0999537240124393 9.18087170915442 -0.18178650658460951 0.010425823319014302 -0.9240367355543376
Ni 7.258610583071634 3.6018352392073694 2.787301345540065 0.4107159894036087 1.179853272572168 -1.8110439291592035
Ni 5.714346699754417 2.970503881850787 9.333652910522535 0.9557800894042056 -2.0104484059358922 1.1773562171819272
Ni 0.5406614478211742 0.949272878001196 5.610052814174829 -1.2694284498288395 0.19209945847484333 0.8384832778625494
Ni 2.180567361274922 0.2912812658993637 11.668550690889635 -0.4849956739537906 1.393936434406954 -1.0711213198813874
Ni 7.322882553783211 0.903458991028531 9.161086507931532 -1.1725893919209032 -0.2620308933586584 -0.2392727737265363
P 8.5778585894053 1.8739959105343464 3.7780978285099422 1.5614677166241304 -0.09196321787287388 0.5703123330444242
Ni 7.182694344628749 8.050567027641705 0.6409355932530163 0.12733414117300007 0.719587754375206 -0.25338041677251205
P 6.123842874923757 1.119257251052094 13.824675143849143 1.7351819877235661 -0.010666478574910664 -2.6182764765375874
Ni 5.138567822202296 7.20478554957896 3.134413859034945 -1.682417551537341 -0.3212827370414402 0.4792045211933102
P 1.8332775331850752 0.5615946239475572 7.4038431182550655 -1.054702769314048 1.1844953993298697 1.015243020656529
P 3.126796643393445 8.00887981796942 3.783957436078656 0.20585023240203257 0.29003894853581014 -0.6306054735075268
P 8.670235837411829 7.553016790209093 5.4113078310218095 1.3935944776865032 0.3069179836793359 0.10736335447802799
Ni 3.0219982338116838 7.628795929738343 12.678596775326469 -0.15003646786652222 -1.318516722715058 1.177831614156449
