# total energy = -340871.654587469 ev
CRYSTAL
PRIMVEC
9.22830594515268 0.00000000000000 0.00000000000000

0.00000000000000 9.22830594515268 0.00000000000000

0.00000000000000 0.00000000000000 13.50655856219202

PRIMCOORD
 96 1
Ni 7.911869684204617 5.799012114492687 12.8257469839728 1.3629921794196138 2.857979138712691 -1.6422265811407524
Ni 7.044990304390201 6.977060743995321 10.237566134785913 0.14692131927630828 0.829338635248804 0.5221362875598298
Ni 5.510747520272488 3.0922761410785213 10.464773488082237 1.4204964442836696 0.14135719492496945 0.6979123262843013
Ni 0.8128965582627325 2.61660310880653 11.433991090007108 2.3062908485273574 0.7893659515106083 0.5867280553982864
Ni 3.6020108507608515 3.1015782735167825 9.161228202586392 -0.36752865538285734 -0.5867905332051055 0.3217794741722007
Ni 1.651285388993176 5.940832720952206 1.5458390734251737 -0.5679258350901187 -0.9363993708847486 0.6811523332171431
Ni 4.1615876410969985 8.851062069759323 0.2762954813507307 -0.4423225605652963 0.6766251347707508 0.5515365950988179
Ni 5.552034961273261 8.760800008867824 2.9908792061790797 0.4298563097774855 0.5164551780146525 0.5209846904538898
Ni 5.813915828667083 1.9493596724811053 2.0891943474915045 -0.37221603355619765 0.058935340883627535 -0.49810367209065826
Ni 6.627298718655506 4.513665971240388 1.0716268819914532 0.12925501234479675 -0.3655802734072349 -0.692231216739124
Ni 7.090144405600927 3.924087958129651 6.905876360077647 -0.7321103123222489 -1.7038425541803366 0.8829559063536278
Ni 0.5249392666320114 6.296094816662262 8.22808774010015 1.0226963916107807 -1.0807727269282226 0.6115651690466242
Ni 7.9017923740631675 1.4919310011520133 6.188800071404395 -1.2976653331873458 -0.3743703608950391 0.26356301373246865
Ni 2.736488031927016 1.5431019578684393 12.674392614594662 -0.032535510733860094 0.8611069287993363 1.161194262710084
Ni 0.8477555613106367 8.672143673218644 9.556471011168991 -0.20561806178656847 -0.3399749141343048 0.6094902887954665
Ni 4.278214972202894 0.7405549447738712 9.135620576293801 -2.3240150052799975 0.6965465562850262 -0.36648170217558174
Ni 5.114567115801271 2.68886997301687 13.24208662287991 0.8348245980640397 0.26131638379013705 -0.06819311203646965
Ni 6.411928513452989 6.988503843423341 7.622115641397576 -0.46240827557157776 -0.6231029944828945 0.017385028245666834
Ni 7.719542559059975 7.006332930596674 2.7425067330939146 -0.13495334828115468 -0.20686067594441793 1.0787646953592582
Ni 8.162049059602689 2.922927497849822 9.907897822909462 -1.2030693056773152 0.45730077914168343 0.6423890964060163
Ni 2.756375031336195 0.37532166444125453 2.568866004749109 -0.3847905277870986 -0.6391158249713831 0.1609572285440841
Ni 0.4183024995912555 8.082713313003751 7.023842718382742 -0.833801556116164 1.8100062319233086 -1.6103312750940524
Ni 8.040761433971673 5.780740068631816 6.226739482991875 0.12131673133432655 1.475626038267962 -0.2277136081340272
Ni 4.711059436373725 0.6907682339559956 11.545554849616105 0.3063896219796917 -0.20634182732647044 0.44521993671774934
P 3.8061502075731264 8.063850655559499 4.245624286767416 -0.861542473674858 0.06800696416759254 -1.4639421741721304
P 4.56826062947923 4.814674856033244 0.6274565178786803 -1.292759411245296 -0.14798986975013867 1.0714997862667286
P 8.48385854609777 5.566643369655966 1.3084658182498932 1.337382706381626 0.3896432278937096 1.7944536289006903
P 3.862018372038635 1.6334932150438035 1.1503507919032328 -0.4342009598994264 0.24360379700172236 0.5254581528442113
P 6.421119906219366 0.6808533419999762 4.945318138277266 -1.0209557547705899 -1.2711184359367527 -0.7698669622457323
P 7.421652841691852 8.94208085174203 1.5519574402967682 -0.9717309563065072 0.7139603808860995 1.8303819673661832
P 0.33866037323343734 6.997833660779572 5.042781969163626 -0.39999680321389175 0.9692084469949696 0.37313237472287997
P 2.1802888015833326 7.956507000279883 1.1968651454169343 -0.014426459837975155 0.14567124891929106 -1.3219722853638265
Ni 8.959227044272078 7.800797793304904 0.5600262088378769 0.48832165300323 -1.4264292648283368 0.15578159788041557
Ni 8.628484557578352 1.0044272806004082 11.141370735359468 -1.8857185351549588 -1.9813864555729297 -0.250863049667297
Ni 0.23217587324152195 0.6771287977022756 1.5532410976600242 0.6551728784342459 0.2005136506804676 1.4128576967914892
Ni 4.522432861931209 4.161292335305308 5.01106797279723 0.6056513746653504 1.030151305226929 0.22047980938974931
Ni 0.5011099349037597 6.423463895940913 10.515328916789107 -0.5041131115095319 0.07794633476849157 0.4216043541813384
Ni 3.721028313118245 6.678764981163623 13.131954173530016 -0.39425887228885004 -1.518679160703694 1.6811811080270787
Ni 7.514166609244994 8.07235915368259 5.737654030793526 -1.0573551193352306 0.38052326787031243 0.14727741706414638
Ni 6.811246541960921 8.299476992410808 13.14759522935304 -0.1475782361340168 1.1774714026035529 -3.92872044954684
Ni 1.8468055080104748 2.0869906280210113 4.275271142591977 0.4047721131153481 0.5826199467671836 -0.35218868259167735
Ni 0.7661773363560457 4.508959535185316 3.521929457037893 0.5184539536122361 0.057196503815649884 -0.7484489015812722
Ni 7.957715908364617 3.522444396512154 12.796194256869342 -2.5249572588574516 -1.0339184855788452 -3.006471659130861
Ni 7.892804004028577 5.013877069140689 8.947730420669316 -0.034917637812791474 0.7668813972548469 -1.290271868936752
Ni 7.550526134846928 1.6565362951016784 0.46659791616109225 -1.7866359326284842 -2.1615804208594387 -0.23237887482018044
Ni 4.5282190097871515 8.267713163192065 6.205669414754734 0.314124271619788 0.017072639211570595 0.5742450924399272
Ni 1.5726971351794543 1.6887799962319208 8.823767509131699 0.3091692416073579 0.5100806419468763 0.3798804920799909
Ni 6.445095045182266 9.966847318745145 9.779261697218338 1.2613065920526536 0.11068033466640294 1.671756215168753
Ni 4.238477886608498 1.4953270177564575 4.0573834555152954 0.8575084128148007 0.12052997376697308 0.44309363440336597
Ni 0.9602790647426296 4.942274642961654 6.347339599826611 2.133011093862178 1.5089279948542014 0.6110712601293411
Ni 0.7297199907106149 7.840756358243069 2.9096913385678795 1.1853011830606168 -0.525445811549037 -0.2968883673574758
Ni 3.899872883211003 6.625729906637149 2.1721383617326655 -0.624677538058866 -0.023008030859399085 1.2915900735275434
Ni 5.564179411956546 6.63366624978884 4.455665145260512 0.15308965287054926 -0.3642666968021339 -0.017300181841344398
Ni 2.223809492633768 6.3925306142612985 4.2539583699072905 0.9755991810126619 -1.1485470062597187 -1.8094102502105225
Ni 3.562181482106551 3.7914218312125465 11.869023585528248 -0.5711073181418937 0.317397285944105 -0.04563219601681818
Ni 0.5795772979090077 4.404209033888985 0.029944007277449926 2.9970619357811867 0.4014201659239796 -0.43734361929346616
P 0.351062293653853 2.13439643589338 -0.01653989282648345 1.780982848107765 -0.01955863885821793 -0.21638995559109186
P 2.5936338551965785 7.076006640823729 9.098585538693376 -0.4767498890052305 -1.149692946938704 0.3514515473153367
P 7.121142285422474 4.859321400414502 10.879694736358633 0.016693658605597055 -1.4267542522679233 0.0623937317458732
P 6.723725287948552 1.7012843508488291 11.911947205181109 -0.9472494262253751 -0.05047743992426146 -0.7101158103290286
P 9.089706062669473 2.3629908035800513 3.6141931374986966 -0.7786853318683106 -0.9422116066911513 -1.4961023038444425
P 2.4109133965878784 0.8312368935879311 10.698585539975847 -0.6041562781770627 3.103234098164591 -1.4693504896718954
P 4.23116906826415 5.398420579758088 6.704804492176561 0.4537058627015735 0.5006022701427959 0.6193252726080173
P 9.165627336051987 2.918128778734846 7.555838870605565 -0.08509400155686636 1.3936510419560513 1.4416802774501365
Ni 3.6702080320294517 5.988256985436555 10.839296904055328 -0.22815146700239416 -1.5748590503293716 -1.5261474440562812
Ni 5.372498268231229 2.4126206331960907 6.0607711682474354 -0.3135899963828728 -1.8478886087913788 1.2343804570857708
Ni 2.558326356477543 8.745693271961638 7.785221335623811 -0.6463694212100028 0.053518797853746546 0.6009004902439264
Ni 5.873779849626407 7.218630109904408 1.2534724971922688 -0.11533171739548523 -1.92568222003209 0.057372624382197965
Ni 1.841083958296465 8.96472711464232 5.031233667047317 1.3197842765735721 -1.110833550869345 -0.23756453278617795
Ni 2.5493564430549345 6.834003544533095 6.417587310686265 0.39253417628825943 -0.371664789038418 1.3499312324705977
Ni 1.8175517780211021 2.741729709729528 1.6725040329567609 0.7342343006437871 -0.26962310388361954 0.37837202585526447
Ni 8.434320999541633 1.0629347405791536 8.587861554608882 0.6605400562834302 -0.7721722133401411 -0.9344990685382423
Ni 0.8820913194088887 1.314461448651816 6.46868259529357 1.7907671811880386 -0.15810330403505676 0.2763074578823306
Ni 5.30983807055683 5.129932245275184 8.792242693038105 0.04068410798292348 -0.5885167718675929 -0.24670223342138803
Ni 8.813807398476328 9.228232163890443 4.204753965197406 -0.5848128406534445 2.075116792648555 0.06854638161083033
Ni 4.820710168150926 7.717613843107994 9.395473062030948 -0.21419474771198596 -0.3870279017580496 0.03346239342350366
Ni 2.6703118496702993 3.282370016173501 6.271054731188078 0.47190644487000016 -1.1032156293127708 0.8447997069988805
Ni 2.816312878743443 4.924796231415952 8.281668207510654 -0.7898148661225687 2.1636645570819772 -0.6577108143647512
Ni 9.052580587670342 3.429293875845678 5.433729001307722 -1.8942635965114927 -0.9812224407367102 -0.7325849379658221
Ni 6.0363918294821595 0.34068229507592046 7.539036893888956 0.6866994882876174 -0.2848764304982642 -1.1479435683477648
Ni 0.9558956193972188 4.131411080508593 9.614441383739099 0.05222964672867779 0.22058779572252335 -1.7507613302190623
Ni 5.365650865186397 4.5281451833392286 2.909083193203116 -0.7664659069839832 0.14637650251643178 0.02088352831722855
Ni 6.788471082776766 2.590450089629911 4.029128228234078 0.9967614169125737 1.30157675242661 0.5182045566055914
Ni 1.004796412840022 -0.12180994775007029 12.461407926490647 1.0754058061893543 0.5213778121272505 0.7253935624237056
Ni 1.4291416071937508 6.606055158265748 12.717977903787029 -0.5392922305138261 0.13659679742184863 0.008783145509268744
Ni 2.81159721438238 8.164716040033897 11.108198666646599 0.5717318390997702 -1.7755421367081679 0.5595417247914816
Ni 5.736167350698483 5.401106016801277 12.481532093363779 -1.3811737354246472 0.5239399164274718 -1.589857580620733
Ni 8.516702087117382 3.338496573206739 1.7117944685412254 0.8108441759890422 -0.3196284892674689 1.9423098012864422
P 7.379913213697551 5.239915196068036 4.231037103488489 -0.795949518265397 -0.6099345754217367 -0.48493602436044875
P 8.618988630714295 7.996723957785777 11.663966935100532 -0.4103840599854868 -0.992043185501298 0.42762253535096034
P 1.6200752581338516 4.761519813528896 11.51716396623683 0.6447591393000897 0.2690939708530269 0.7408474350849306
P 4.921926228252957 7.593299333112146 11.703716940323318 1.6655770829412346 1.0486707041873553 -0.6335856391817735
P 3.5089433848482887 1.0254124484224378 6.84539404261697 0.37998719286118426 2.1868597642515177 -1.3544805424041768
P 5.515389358185627 2.4154168099111635 8.28382947677359 0.6750734740129148 0.8610441938822009 0.6352848812610672
P 7.940652770588482 8.198943826952062 8.444962159179092 -0.37871912478203806 -0.15403556172358632 -0.07918637782317975
P 3.0982929965842216 4.053108904180571 3.492337048218675 -1.6595262487614644 -0.2462911140258984 -0.9143542181592511
