# total energy = -340862.17161461717 ev
CRYSTAL
PRIMVEC
9.31553911595554 0.00000000000000 0.00000000000000

0.00000000000000 9.31553911595554 0.00000000000000

0.00000000000000 0.00000000000000 13.63423312532870

PRIMCOORD
 96 1
Ni 8.119778014392384 3.027075168818696 9.770864193828004 0.44317179593946904 0.7457993797735673 1.650122181838745
Ni 3.8099530887000412 0.9765014035169205 12.410097132416478 -1.6499458041618809 0.15532394151770668 -0.4252252387633773
Ni 1.8314722817747737 5.276051289399302 2.757482530918195 0.06988284103406675 0.5643167775826218 0.2922536967989418
Ni 0.6391456698905641 3.5479721779334645 4.19484415609092 -0.7390075536627143 -0.9080565580759974 0.015299349361231715
Ni 7.455151549948613 7.010353181094562 13.736899142923239 0.11719422452552074 -0.18223722096878292 -0.3315743487754354
Ni -0.0067574921832690114 3.969369912152319 12.09574612300653 -0.028678855991931252 -1.798634499751257 0.02619182790401941
Ni 0.7086843074004435 1.3638601572592588 1.7611064243781087 -0.34460032872145807 1.781036841274152 -1.058803421745983
Ni 3.4449609447344183 8.975754970890922 8.819099273276969 0.0515228504696403 0.5286838588703605 0.6045054339863654
Ni 5.094919943918901 3.304939074033127 11.523585701313143 -0.39653018482152996 -0.6334120897183865 -0.27179337206206095
Ni 3.5149392756976336 3.951176663966595 13.055174006157452 -1.7740161869819446 -1.5851218657079602 1.588428304373374
Ni 4.804060861428954 3.744725682762283 4.065469015216288 1.219192179381107 0.21362447703081275 0.752189342460311
Ni 2.2057613339274695 7.364464775197959 10.722070182023105 0.23524334085216903 -0.8699435532543598 1.1797195752077811
Ni -0.01943128335412301 5.193282723024412 0.4536201845385781 -0.09246098344489882 0.4395316280837204 0.8241879442857999
Ni 8.286898788817316 9.057433619171736 1.2675728803021242 -0.6965018190900198 -1.1117005268553306 -2.220476423864698
Ni 1.833931584140893 9.206295936636085 2.8904981845378255 1.2579538735303366 0.12877755848774597 -0.5159586979942082
Ni 7.883806089255374 6.191768799208157 6.902508114570593 -1.611359973468883 -0.9739135657801227 1.3634986867423873
Ni 3.329457573380196 1.523295611790068 5.139083052469276 3.722034351507074 0.12907914888856478 0.8277108698373937
Ni 2.968377955906126 1.373399269467237 1.3177910893751414 0.19901341198585726 -0.2005329339541772 -1.7790416652209944
Ni 6.973538169916896 1.4206942623187075 11.15563866829247 -0.2628189364775925 0.5139234127317343 -0.5362884106904958
Ni 0.4320724106633098 7.461597903120412 12.755316112736931 -0.14619909639830306 1.4965262787557387 0.6518175888087678
Ni 5.7512648939555495 4.79739093531478 13.18592598373554 0.08855290663974426 0.06006174117858688 0.6240946689722027
Ni 8.963970813719932 6.046502279900332 11.06362163453469 -0.6319936121043052 0.5217760760069337 0.39698629852234213
Ni 3.091473491761815 6.114729289481613 0.6404964230840766 0.08586558961556824 -1.546109746110821 0.5043439965734152
Ni 6.867927901262745 4.096228925871312 8.00771207702717 -0.4653390760651276 2.6557665030632456 -0.5519708544227591
P 6.158288751087578 0.42361110634836197 1.4343350064653313 -0.48134445035444845 0.40751316619559497 0.23952422761571004
P 4.541642120316894 4.5416980135524865 9.71887696384845 -0.13251568537393954 1.4692345329193213 -0.4595759483291053
P 4.660741289827638 1.0496283867519105 10.49563271132444 1.677188441927918 -1.527298269831273 -0.646691580436112
P 8.943541836110464 3.1410321606548273 2.1483189241539766 -0.230680404071835 1.9940781921079849 -0.29254500278711554
P 1.6756233098612217 5.793128927415173 12.313825691876096 0.07010421301625346 -0.20678971349716646 2.1733110790328056
P 5.175909242294061 7.012104502476495 13.124748974270467 -0.005998383675279992 0.36061238787899824 0.3433489728128603
P 3.883266382720343 8.670633797785333 6.670194401703186 -0.09067483807875351 0.28912157892786333 -0.47580372304187735
P 1.3072775717599812 8.984409106868668 10.000601228534546 -1.3904477045274055 2.249748947576571 -1.4576601978181605
Ni 5.874956624324237 0.3002016368194222 8.287132608852882 -1.2313869216750857 0.07185282027624401 1.4622424178722044
Ni 6.241234312708514 9.194539726082892 12.789374655845904 -1.2025481430665226 -1.2096317893861814 1.207372303928043
Ni 0.5283950866696534 7.234075172097303 8.697727112185417 -0.8296613086955453 1.687315503059591 1.1669782163817128
Ni 2.665883764873439 3.137818299608194 3.170845612520466 1.00913099422152 -0.9973090618859275 -0.3347794859762944
Ni 6.0054859605138775 9.102390411667539 5.7600140484338045 -1.2169103253254656 0.6337694730578053 2.7616386177077277
Ni 8.60099082623568 0.7236301585981783 9.102609326840282 0.16604981257564308 -0.11539779474673029 0.39808056002778536
Ni 5.090550956003333 6.638299858365611 3.6528427927699267 1.144182558643436 -2.7567308959934653 0.33675255054226516
Ni 1.0851299068931268 2.6327670227842175 6.529352763546521 -0.1148051554680539 -1.1542458564167088 -0.14816341921352547
Ni 1.60370734673076 4.840838610449556 10.510084838941097 0.8004461205841699 -1.591243919445298 -2.6709007876015227
Ni 4.693084842157814 8.100001124531508 11.007448001209172 -0.9997217850924782 0.708049157607987 1.3185264929070712
Ni 1.6560699929427192 -0.17126898405990593 6.3984368324773575 0.272141499430099 2.9596171606711676 1.3407367104555232
Ni 0.22871605160303157 0.8202323007824899 12.446623361876911 0.93355881611216 0.6044290722224751 0.47490306560447887
Ni 4.549523066535594 1.563287221857305 2.8604481179748404 1.675622897213011 -0.8027097198073659 0.5652081790486394
Ni 4.4399630092328275 4.956556239206888 7.513457510212027 0.2915168186329173 -1.6403602173559748 -0.42738522252917366
Ni 5.1545300796795 2.152532342563809 0.024886463148060606 -1.5080314511818609 0.7487155249790977 2.1858009839697
Ni 7.271374591316781 1.9494722176521773 13.612555324805957 3.1988775931025297 0.1523815710599311 0.39409406457621166
Ni 8.733224906110927 4.175597320414257 6.329351861729713 1.2326423913487417 0.7372525186448207 0.5483006046600235
Ni 8.61802894755247 8.59364086575512 3.4557325027872356 -0.033367519716852215 -1.2476620046860254 1.6994979040583957
Ni 3.2102838795553263 8.23026962562171 -0.13006449078028712 -0.11115650297187309 0.8782942392119004 -0.40744554618245316
Ni 9.122810073737744 5.777721025469864 4.350247845227577 -0.34250256565216497 1.148569631967538 0.01047544561002712
Ni 3.429245629993344 2.633484319307669 9.864735951453568 -2.4919396662808504 0.32402019057726134 0.902067430372098
Ni 7.814852467611374 7.739200973235405 9.75225360948318 -0.5098888376510444 0.11155348129997562 0.7606621558180127
Ni 2.986030902814446 3.800032039382173 5.582018313470206 -0.26578907484951 1.0106582294993238 0.6927719197339424
Ni 3.918870373793481 6.244858057482833 5.440726734767013 -1.9390347300795958 -0.3963453225042335 1.2454248878253906
P 1.8487432915732032 2.431616583422034 12.229429700791504 0.757607942372721 0.47108626296155 0.7043477974969998
P 2.198467266682502 3.416483341199467 8.273334432092671 -0.023490626922772446 0.3041494197952633 -0.4624383574785649
P 6.045356468570662 5.239813841656103 5.762113770984271 -0.09298394582790438 -0.045567918437786036 0.20976756517856776
P 5.746663017558341 7.460992393068147 9.362082494436557 -0.30503259373116504 -0.41138319067396245 -1.555472932493276
P 8.114216637450818 6.2217834667219325 2.3131564599049095 -1.0689261120022817 0.3284592001852214 -1.0340658097899869
P 8.050777815052056 8.903745852367804 11.670603542002903 -0.37173215194124365 -1.7412531336183108 -0.45516624929718386
P 8.255989829534043 2.5167047190740597 7.722907163505937 1.0624970685474864 -1.7810458401352165 -1.1248571188419467
P 4.383166166330441 4.166440145316169 1.9385562687407427 -0.6101659747062524 -0.05032728749964236 -0.9311352942723319
Ni 4.560794869046975 8.087713928240175 2.140097029198155 -0.5674008158245841 1.16752431869317 -3.9706160613393617
Ni 6.94814400987886 5.105921595791579 3.6679227877330858 -0.8915732157089936 0.03918824016368735 0.2644695847071381
Ni 1.7210458793203058 3.5549122546863394 1.0254303419555781 -0.6752521656826241 -0.2889925095491668 -0.6854900413605484
Ni 6.356113542931939 6.168796679379179 11.348208564437106 -0.045933272197004764 0.39236936857562105 -0.9290686415512902
Ni 6.367245612354337 3.187647119139909 2.068272358352496 0.6132695533322406 0.22415751535165265 -0.22547674838370846
Ni 4.131404402138232 1.9846942716154252 7.659412447871581 -1.9501416386260348 -0.03537452284455198 -0.8788295428900801
Ni 5.441290324892583 7.152815723083441 7.065545888135412 0.42512676551230005 -0.15976269401535068 1.1257739742292612
Ni 8.14858166180163 0.9652854942411335 5.4577154837256945 0.9965978947515161 -0.15081885455850155 0.0364520721794469
Ni 5.929890359373503 5.827829311179547 1.5671457182211184 -0.3976164759071733 0.46815494824736786 0.548653617124068
Ni 5.644220032254496 2.7273290618693617 9.37829339586656 1.4666953114372352 -1.2412234481495332 -1.2134570766695423
Ni 6.266032278233551 2.214937140104089 6.881306878756005 0.03904580104855211 -1.116246237244484 -1.1573208957976069
Ni 0.6052846162140207 7.167105760316877 1.9277576956240547 0.9620368689471946 0.2889323457351927 -0.38255443936772826
Ni 1.6324085232080856 1.2195531384957898 8.35257706685553 0.9295075288609217 -1.1926149431132105 -1.7556924489720924
Ni 7.433297294831507 3.2737133864148227 4.945995212341472 -1.4138977080202293 -0.6041012565694112 -1.679805053615159
Ni 1.0874587917095278 2.072893797382162 10.189476581806444 -0.8765140073830259 1.258204556088562 3.1735959357176053
Ni 7.939252178964247 1.329355399819462 2.7795976211347386 -2.455355439398913 1.617072707582944 1.6014766529169
Ni 7.665179698230917 8.576062443160923 7.490020544973695 1.5509367351858194 -0.9483094920587732 -1.5218673286236888
Ni 1.2981017655833613 7.967180165682527 4.573848734219865 -0.8157868647062984 -2.298126310438694 0.3145449040969744
Ni 3.733276885004856 5.605104082878225 11.49774905315999 1.3481679699225877 0.9203402605393569 -0.4449003485948015
Ni 3.846348900610755 8.588303061755928 4.201593264288851 0.4319458453166625 2.7628699190116675 3.7093313021181085
Ni 6.141418309477569 8.58117667421774 3.722554699310146 2.282027605104618 1.4545540480890111 -2.4612885170538963
Ni 3.5561512214086655 6.624708486577094 8.936762918186883 0.7206254516111009 -0.7183171151928983 0.2666236549356634
Ni 1.8921630200901824 7.087094593564606 6.959744650926316 1.9172160915426075 -1.8612200357929622 -0.31807065786204575
Ni 0.8189281252853053 5.166770698274504 7.946222065442771 0.6263585253057148 -1.6759638254921974 0.28119975297762534
P 2.8602990693465906 7.127086203631843 3.3201271292517673 -0.759583320931537 -2.553017250318461 -2.5427148399511887
P 1.4642164617676086 1.21169082335562 4.8097889865233725 -3.8056633384826393 0.30890158976826804 -2.0736705471203316
P 8.22965480003018 5.235333067269348 9.299951573750686 0.4519821951422474 0.7377603115191745 -1.1601434528480665
P 6.09229747093004 1.6154169795876243 4.677183216631429 -0.46679149224093797 0.25490225273367717 -1.1459489065152393
P 1.6034278805527922 5.5389451230139075 5.444708196249133 0.790081232410078 -1.2658093650190134 0.28040708187300095
P 7.104831380326315 3.573878692631109 12.070755325818695 1.7823013098088725 -0.38645737396656027 -0.15202264505861557
P 9.104514354620097 7.539829801872952 6.075373930746218 0.5741180799437596 2.2367815887826255 -0.3085670892469847
P 1.0668621343932776 8.909903423822367 0.6355899285528831 1.8724637270275817 0.26489510228033086 -0.46298728800349936
