# total energy = -381174.46395441337 ev
CRYSTAL
PRIMVEC
9.23842432824815 0.00000000000000 0.00000000000000
0.00000000000000 9.23842432824815 0.00000000000000
0.00000000000000 0.00000000000000 13.52136783863331
PRIMCOORD
 96 1
Ni 4.928837987224728 0.749672271476758 9.559336764168878 -0.9617489053931307 0.04096281556560687 -0.5481342542854882
Ni 5.780990252749801 7.451371289448168 5.62213092619043 0.26175141444502664 0.3915203903117644 1.1527137360428987
Ni 7.27302350664286 7.422168629958524 0.7399017138442848 0.7826404598613166 0.44240869252119935 0.4777811584832222
Ni 4.203954256065153 4.809893273232586 0.8691167842282781 0.30995599917471134 0.5507961173883675 0.5609897700919177
Ni 1.8233785829837166 3.4135608575721177 8.260095569611355 -0.9700060031956005 0.605226628423106 -0.49810470053192274
Ni 6.817218124200579 8.872296390828797 11.031827055112112 -0.7365920022426863 0.602393272739369 0.1665591481118938
Ni 8.690918404824313 1.0071915036001131 6.205036703674351 0.812553188260349 -0.06128430073177833 0.5262333404473389
Ni 6.926619545800189 2.0154084723072656 7.845489864568636 -0.3738743950952271 0.05245204715212901 -0.8978474787534795
Ni 3.263417984422579 5.959559757740414 12.420607058835603 0.4590977231411061 1.213608514645742 0.4071259580595053
Ni 2.9123024271421594 3.779356271204655 3.694213104362372 0.13620393285880414 -0.09995574916004721 -1.2447515159074498
Ni 8.34602030715684 3.672181309882492 8.978742440466768 -0.029418305261117078 0.2231352447347254 -0.9872079688961837
Ni 1.1764671536566604 1.32403250640202 1.021160925116814 1.5317789313104457 -1.5958971019465933 -2.144236273154036
Ni 6.351564581360968 4.594055964261833 6.799652184069732 -0.12058088160956651 -1.7601376292276396 0.19966878618166903
Ni 1.1580549738518957 8.344200337552456 9.75508511930849 -0.6886794948321237 0.8841100745627289 -2.6827864832955153
Ni 5.540033667868785 6.054161223470865 8.294359037980604 0.173907618057165 1.610050253518524 1.3911370172849462
Ni 5.807282808557307 6.344949869499346 2.4680958865186846 0.02258534149968368 -0.6983571271312037 0.36652592514995586
Ni 7.636038154534688 6.483849580169006 7.051176602607883 -0.10720908828835084 -0.23025900026370022 1.8068548307785206
Ni 3.3404572053919366 3.520745057318669 12.366156709336705 0.336180222978563 -0.3475249585674209 -0.3466381850870934
Ni 5.5435812228336765 2.7839252818501343 0.5290771739463191 1.8850934999764501 -0.36066972347949494 -0.34572415791325617
Ni 9.131914592973047 5.7565084281222925 0.5921007812770378 -1.0652594617839717 -0.3838672446418808 2.2146595600726053
Ni 4.598832229670294 5.455899336969644 4.853521732403684 0.7609051250667541 -0.797921040169471 1.61861639792098
Ni 4.976138720089954 7.5883216925720145 10.295520936039535 -0.4733102671960623 0.6572091921379842 -1.1302988586828082
Ni 9.010808087674173 1.311523679781021 8.721160387057576 -0.011674608124450862 -1.0515323420058664 0.0591759961395239
Ni 5.459178977627292 2.1061297997948656 11.717468730999887 0.8013177245558457 -0.3003534430879408 -0.3604576074686889
P 5.509177330413736 4.203871110245664 12.421809901690887 0.5697556892100059 1.2788096339334234 0.26567851741357473
Ni 6.822825847803937 5.062388650173888 0.5951633189615734 -1.3339011755909287 0.1452938109752143 -1.395457499037171
P 5.287584483049422 2.865121793793975 6.1024504677455775 -0.21808945478070182 -0.9405164783769157 -0.1327817945511326
Ni 4.733777894702001 5.340197309937596 10.590962976432122 0.5445300818739977 -0.9224447084768695 0.44132085877365934
P 8.161501256860525 8.617362069849131 12.620101595064446 1.417447630155017 0.305668427542951 0.8332104594993844
P 4.670734886680069 7.582427577812637 3.848965951281393 1.0180776618918466 0.7233199677241284 -1.8963307634531665
P 6.861617991808054 1.5219934641824977 10.00107941700814 1.443555125875346 1.131046021261478 -0.2268296628671771
Ni 1.1257204884948084 0.5017037224854476 11.879671443345181 -1.4113266048589437 0.007909998875696055 0.7913382447456306
Ni 3.682482153074821 2.0877360968388765 7.546734925190607 1.5440191821303797 -1.3742348422129689 0.8735338417087795
Ni 6.374365012749909 8.453186030054617 8.443972549412724 -0.03886685226852662 -0.369661385455144 -0.7116587293361163
Ni 8.344948649927863 3.21875020250786 0.5696634199665354 0.569897871214825 1.3605426894378567 -1.4573151557739161
Ni 2.5949348341501515 1.3893851205208878 2.8289672199525566 -0.32886260627122715 1.5078303909146482 1.1235977925135487
Ni 0.9021774097422419 4.897750689159986 2.8669085050705636 0.058590041729066844 0.2897178177509656 -0.0936218365222194
Ni 3.5300111969795718 2.849989254646858 9.979594537252014 -0.31717565685160215 0.9945140156392936 -0.4734905015276685
Ni 0.6850919896367051 7.419277003125162 11.773244794398424 -0.591162437020556 -0.774239380281815 1.3138272876591888
Ni 4.241499212776926 4.140430849975058 8.180927815663063 -0.9318829710716339 1.9274179717762743 -1.2729678304406657
Ni 2.8991561492384066 6.57488501408579 9.208417061485477 -0.36755925151047664 -1.0047714317012437 0.6585693057103046
Ni 3.6152726156540176 1.128427346840416 0.5561596150389769 0.25170791416609556 -0.2632634802141789 -0.2052982165533045
Ni 0.1324882441445692 2.5473107564313553 2.506442738467313 0.18180476141705465 0.3384281384724752 2.149280263335847
Ni 7.9941656759254025 6.288567765460973 12.272940083421977 -0.7856579065314018 0.3528062615710182 -1.5105092232983923
Ni 8.96268513503844 0.24635829162052741 3.8856628206343715 0.6087968622728677 0.24525547367253242 -1.0431502885897581
Ni 3.2967502196135423 6.071224593315018 3.2072141819748894 -1.434519498035639 0.28397911549497545 -2.604861231572946
Ni 3.5924537074163014 8.708896378682853 5.233797452421564 0.086608895539496 -0.13745168922297618 1.03623530663748
Ni 6.984248837130906 2.0622565223774916 2.4654453825618425 0.2592286480231729 -0.6219580822451741 0.22615320562544278
Ni 5.442198753602626 3.285460865011725 3.8470452828511825 0.2807896620234003 0.3097539104662343 0.7238902384053016
Ni 1.0031358352938957 7.947336102703952 6.88253840383409 0.7847629055209582 -0.7680875017478063 -0.2633863789452883
Ni 2.8412774204492197 8.42824228420772 2.5945883932356115 0.5495421903766085 -0.531812120086697 -0.17704076436950802
Ni 5.8735038345686235 3.50631463842502 9.480953352451102 1.6788830560215213 -0.42237697068130486 1.1004797184388466
Ni 3.2610159940817667 8.445601283632284 7.852507371733562 1.0547608762454932 1.3503796328619257 0.5727569379301749
Ni 8.073837847845265 3.3654840970583226 4.70803225361825 -1.603921772023283 -1.4697551813094816 -0.6214700868651619
Ni 7.838895477240667 4.0745239303929255 11.58733905660151 -1.0912623136056365 1.7355576258954304 -0.42178458851294454
Ni 6.116936317185553 0.42000279257003637 0.5706436167940745 -0.96025997955243 -0.07480007583002601 -0.271195590577062
P 8.408074803769287 8.569155971393908 7.76465919423055 0.05322569209335995 0.03667498682353039 0.12726035051227116
Ni 8.277295668136448 1.029954981291503 0.7043670382792845 -0.5318522292960132 -2.2505580737414275 -0.2778514053306828
P 4.216416890564213 2.729150663655228 2.0634963189303264 -1.4780287341721836 0.10914358630690234 1.3631415605132846
Ni 1.2155364503924098 4.966364467087725 12.532577686257442 -0.40199866413526897 -1.3386152932371462 -1.407944832870904
P 7.07871172649554 5.459197454476066 9.940328462076806 0.22817177871736835 -0.24897971660165508 -0.2437097264519674
P 2.580772329563747 4.866580245275754 10.517217253756993 -1.3131968531640414 -0.4116549562781104 0.02892053968909213
P 1.3351555693648582 2.6146681086423627 12.544381621097656 -0.8602132133404734 -0.41198560014465174 0.9184677261069923
Ni 3.395056293523476 6.254237780436135 7.016765319448432 -0.030037426902354718 -0.3054521977670869 -0.9337539628421017
Ni 0.5903362422189796 5.537530054859708 7.591044256239082 0.4402481945347709 -0.4817108325549317 -0.34339910932450535
Ni 0.9897493583560614 2.4946147837236903 10.276347510065222 0.7771902353800227 0.5690820601817489 1.1324531860216498
Ni 5.088339384279048 0.7392504049249492 3.3295687984085474 -1.4292369094804611 -0.14031075593832606 -0.38732537839381037
Ni 3.1049882445972377 3.8269341568015127 6.081749006377532 -0.5671089956157781 1.703217776112144 0.5502525861800717
Ni 2.793653342730424 7.933681711458873 11.14536636699499 1.9809241712245305 0.8497238837733754 1.2174646551670387
Ni 6.8681587962745745 5.381169722097221 4.756560773084606 1.1333630994304287 1.0085512104586503 -1.2060679832943229
Ni 6.866939324255393 0.9863588566057612 4.840717276202278 -0.7737745248302546 0.287421308407305 -0.33572668038091213
Ni 0.06457935799761398 5.32739285373619 5.177223189155926 0.7992073630810622 0.5058846015876578 0.20840565183403464
Ni 5.644501770845341 7.040326073164484 12.49861169515348 0.47075279088153116 -2.097466363988349 0.3025437658710402
Ni 1.050926204651671 2.8012380891527573 4.957339450303344 0.716704776400456 -0.7477277071445316 0.14316750866083083
Ni 1.9974027831755616 6.302342256223093 1.1285502178847728 2.027714906325824 -1.1763992525852967 -0.1295450327813898
Ni 3.4424956027545175 1.8835392025966748 5.087590148061202 0.4704920810209768 -1.6789715019702698 -0.3912257418894811
Ni 8.266588334271058 7.678885966845023 5.39889271544266 0.3128412911423064 1.2504441954168528 -1.6355576537610088
Ni 1.2723804756501695 7.361481420155465 4.024418411883583 -0.3781177437526133 -0.44500319272125294 0.9411654248148243
Ni 0.23228817127800047 5.471281313575229 9.93982773947499 1.6929935272809746 -0.25073243762670366 1.24319214184013
Ni 6.858966564008773 8.580242080659195 2.7197690436894786 0.15690259885873623 0.6043120870286367 0.6209774634994596
Ni 2.1008454210450784 3.528579241199472 0.9774391578593989 -0.3218527506122973 0.3357978999384797 0.6648343127834099
Ni 4.495592837137307 7.859589547869204 0.9897077854463167 -0.16564949181343083 -0.41450219591891846 0.03271291685198882
Ni 7.795428690496355 4.37768282667659 2.530997546647485 -0.47088083181896323 0.5342071026814348 0.858329108943883
Ni 3.2425668605794513 1.1854191868883799 11.4639968526008 0.4951183642100892 -1.4950057283461542 0.6932563155695286
Ni 8.233791927694584 6.678346128804082 3.128492643924524 0.48442617460356563 -0.12104882238492057 -0.17933907348538147
Ni 0.6315202142970826 7.94329891124651 1.713265802706252 -1.9018547785951891 1.1442396371336165 0.5394986900976774
Ni 2.186541045665748 8.347729415668573 0.10603771128003282 0.7658120754500681 0.4849869322030422 -0.9146776629369407
Ni 5.417042523994812 0.562407561452405 6.706192587593606 -0.6790589410232241 -0.12984456629967958 -0.5043015733712541
P 4.760726378641038 8.869940592609924 12.475192289330561 -1.5240386252433946 1.7022104178935522 -0.20513212328908542
Ni 8.28354084302256 2.0213672560373572 11.814958128193945 -0.05477786707182824 -2.9794840747984237 0.1962962701650103
P 8.962177021697114 3.295761708204054 6.659517296059431 0.3271062857017528 0.427067948399071 1.656176358452625
Ni 8.161381157343483 7.354746608776803 9.748095327416728 -0.4384764473463287 0.27819413338208215 -0.23192893176695542
P 2.396881492125796 5.720949732653884 5.212825305218957 -1.6253588588511365 -0.10050133725087207 -0.26739472877373305
P 2.4369577771198094 0.8911467310232812 9.262920993845823 0.16910299757967007 0.2665976867937344 0.47401269257972556
P 1.5927043644462542 0.1318397067525499 5.118175799681691 -1.3669077124239364 0.8602052429206734 -0.6649808656636031
Ni 1.7889284984418368 1.050612098222488 7.144177049391938 -1.4138054054167393 0.06902126436471984 -0.7452422217185165
