# total energy = -340863.8464852263 ev
CRYSTAL
PRIMVEC
9.35081161790809 0.00000000000000 0.00000000000000

0.00000000000000 9.35081161790809 0.00000000000000

0.00000000000000 0.00000000000000 13.68585799733452

PRIMCOORD
 96 1
Ni 7.636237411694909 9.052660945439804 3.9213264184157985 0.5129029418870199 0.9802091689808473 1.5277759807986397
Ni 0.15206009254733008 7.993354256457454 2.3321522513572646 1.0204687878318426 0.20115976890489873 -0.020597107425061302
Ni 3.3753624532988398 2.4798726322538314 10.277012263918957 -0.2643896233988221 -1.1650172360006001 -1.366356982126789
Ni 1.0570624942049682 8.79670118026777 4.3884798734380315 -0.609241406009454 0.7487088401108782 0.9114285598720238
Ni 3.2617500926938563 8.991207411785817 13.299082354388373 -1.1413142359567054 -0.18318698647656195 0.37235358757532644
Ni 4.832658384426812 7.631627461589702 11.720171638111735 0.17019674486448108 0.353211724539553 1.5445711979791077
Ni 5.364093058522535 0.691565452111214 13.26319767989803 1.5126026154923111 -0.3573763974402039 0.1488247069466082
Ni 7.243335011044686 2.543168275787587 10.485666273346084 0.005158147162171761 -0.44061251985272504 -1.6852431939115946
Ni 3.2201389811965577 0.7879414617447436 5.756271706357051 -0.5551335684214569 -1.0879581889330683 2.4157481094199365
Ni 7.379557634031798 8.01372967487377 9.944007421877071 -0.34949570914054645 -0.15608087428838927 -0.3635835546921803
Ni 5.680318804278858 1.1452312965213787 6.066598960173487 -0.26226717773918057 -0.42257803094851737 -1.339284808500345
Ni 8.49001326231532 6.497243106492339 7.039512565957032 -0.5841896052471487 0.697903841643869 0.33282004825707845
Ni 3.85827576614524 2.2849175617803086 12.475028993432074 -1.1145045719630289 -0.6712834108428632 1.0679269813138061
Ni 7.34989685972406 4.240985782181517 7.44776151855992 -0.21627039929409206 -0.01688134913637093 0.7281860375671781
Ni 1.8877137878067702 3.4269508807439175 2.6709732981971994 0.9174559970130263 -0.6395182026161245 -1.0182273000958333
Ni 9.277501209698803 3.645264278525362 4.32092680539535 1.8435156765346636 -0.08248844561321923 0.6974302444415602
Ni 2.417381158515304 6.980147068527167 10.975592694871805 0.38515228200189155 -1.3155779518017086 0.3768561034313703
Ni 4.304234671657411 6.69203921316913 3.0961649862881684 1.2018477745653882 1.3141183365370463 0.5002567138779191
Ni 5.293082995441527 4.75673914527028 4.060949931571802 -2.2438428665047807 -1.5062057108270317 -0.9243956615556532
Ni 5.718348554943918 3.1419100915816367 0.28931785037550883 0.12167128646026787 -0.0740994502185756 -0.4295698888853183
Ni 1.9950891570929452 9.035502206204402 10.022933882035295 0.3459553000874558 0.5715899142052673 -0.520773088663716
Ni 3.03125258743354 4.402979241862236 8.497193750521788 -0.14274739040427672 -1.6712306816825861 0.7211880089827902
Ni 5.482277965986435 1.6748238607373331 2.1652804732792106 1.6472597726892857 -0.6975608564821535 -0.021877773909697803
Ni 8.948754727247 3.3518638638173317 2.065880411183158 -0.19681640433453845 0.3625803102386465 -0.5977727432482222
P 6.00512859505867 8.034787702534876 0.3554692317634838 -0.4955449102245466 -1.2193816696840936 -0.18244882275895674
P 8.85030003220092 9.2509823080794 6.295631193260405 -0.5311426048234982 0.3397589414687568 -1.902048896883866
P 1.7835831501362271 5.9541760228005165 12.849528996907763 1.3755239933380374 -0.34254293197179714 0.047336066081802346
P 6.181176324532746 2.2733973619230787 4.03835463048819 -0.1713776525464597 0.5468322476446131 1.8439823317584374
P 3.842482245399412 0.1981343464081478 11.357496670950539 -0.3813588763977303 0.8851721972786563 -1.50187108800742
P 1.6917301280602806 2.4493889865277207 13.577739344490158 1.096251539290112 0.3813791881127045 -0.48768247675733434
P 7.857290597267074 5.7619420384945705 9.160752586892427 -0.12871276668808157 0.4468405030403078 0.758361532709294
P 1.6417687418288052 6.658965392637456 4.758422291353318 0.5893665214623978 0.6103438950450134 1.0909275559740375
Ni 3.77769982282564 6.914261250187849 5.4425239256674205 0.10711987100865424 -0.1408990243416283 -1.1074522931019377
Ni 5.936540392174921 5.248301958821175 1.6940631555476011 -1.276417479552163 -0.4176566823875001 1.0544538865280357
Ni 2.6913038327179697 4.715745187336762 4.3788176798402425 0.2733409190548389 1.3253738548462077 -1.8228123825490414
Ni 7.494058321736161 7.611962704852888 12.211822349291412 0.14810865471619009 0.40071516943715507 1.5114829000655712
Ni 5.4578255937245395 3.5886077112080286 11.262803807400045 -1.0390815178370234 0.5404309721039596 2.46960449311876
Ni 6.508136801974215 8.94277955865222 7.948240330945125 0.775267307325697 2.087469143566321 0.6328726722751488
Ni 7.36642909458411 4.769166373850036 4.66656272370927 1.3029319809029236 0.6314691070594028 0.9834927248281256
Ni 6.7494812486585465 7.8211123072933555 5.917723754047727 0.07324430130713191 0.37129249330066383 -1.6256483650670972
Ni 4.629315635972823 7.771665215698364 9.387814603981035 -0.5260446214753005 0.19527631354092823 0.4904993773808391
Ni 8.855396224507892 1.9954070846864076 7.848401715786325 -1.7952403864680435 -0.18629339331602757 1.361301164870436
Ni 9.05456851100058 5.751179254374708 12.734034317933249 -1.4632083813298995 -0.5439024755923277 1.4543756135296178
Ni 3.6421691598948884 6.36322727503632 7.619615409043762 0.4916453180598243 0.3913303857881454 1.656128278823509
Ni 0.673724103631024 1.3345291259935834 1.4151312515855863 0.3082642132945852 -1.2409005175924759 0.6507521236587308
Ni 3.711159447676252 2.8240947078580003 4.73987776184288 2.8417508497792863 -0.7760923743301538 -2.174562177831087
Ni 1.2925159295986703 1.3108435202806268 11.654876791063794 3.4272548029624845 3.101138134867511 1.9810301006747753
Ni 1.1487939557304734 7.732803242803358 6.8218527899045 1.9494826648857977 0.25568078277091455 -1.0250715767111764
Ni 2.061320955460443 5.27613932487229 6.415683457795319 -1.885338783218037 -0.6371162780428511 1.406192883176804
Ni 1.9810722905458775 2.0693720042243022 8.23415074558364 -0.09202852389317054 -0.5551435957237858 0.1909154654690712
Ni 4.413695271924237 1.7215872694110388 8.112579909249364 -1.9093901677402858 -0.5048325061740596 -0.7289182877475124
Ni 6.2288374111174045 5.886635110812879 11.007206853717022 0.8061619400220246 -0.5751148966393901 -1.03628312915628
Ni 8.994124864996413 6.646762583535439 4.173501910144472 -1.086318082226484 -0.5171432052206125 0.32370291644715865
Ni 6.068106310998964 6.663659500046815 7.831116740594695 0.5836998100949238 -1.8102366027665597 1.0334384606186329
Ni 8.784825649570788 3.0582109771968455 11.985910482026211 1.6520785342341675 0.43890402180205057 0.682447912100115
Ni 3.4501876475013975 6.686035992139632 0.596212421263708 -1.4038508653071886 0.37887390519234754 0.19158832316637972
P 2.1967674610870427 8.585447645223509 1.508702017747388 -0.26204323465383256 -0.04732501033820882 0.901291471438022
P 7.757180808572675 1.9430238382576737 0.9960306821528968 -1.4973233207357375 -0.780307697963082 -0.3279853458725964
P 3.797645103909626 4.87310999528913 2.1943081976434944 -0.9176614281556131 -0.7999113311266224 0.8304897181341118
P 7.27695117864756 4.287608928681636 12.994940662427096 -0.5817162040059917 0.8309316907675368 -1.2451688059505264
P 1.1011235183342423 2.953238766484785 9.994590637078112 -0.5893606079251269 0.8967110511561911 0.7452928724507939
P 4.631485024257626 8.769237846679554 4.377038220398011 0.10789942948715611 0.18499755732273948 0.14485826609969243
P 7.10674770640625 0.3749385565384332 11.557228135975256 0.1370182012299834 0.3634426582389418 -0.6919671644444599
P 6.427953592740657 2.0463970601908503 7.998960067995123 2.362109241048558 0.6669361896177611 0.09555144944476447
Ni 7.815174541944865 6.683025030813311 0.9273648675330962 -0.32083047999537 -0.06998902759462786 -2.5830022267163257
Ni 2.9257660820849947 0.9845750028955168 3.5775382204685906 0.2133948775185099 -0.8814582387621787 -2.432487019441172
Ni 2.806187903696803 4.3581233987493055 11.425967053608476 -0.6386931356116677 1.3379408928779408 0.6127388776397512
Ni 8.803536623527213 0.7746670496365267 13.053242972581176 -1.2748624763602172 -0.0028603522669305576 0.23822222097483492
Ni 5.046445989407203 3.8401071392600157 6.843941277000886 -0.2795030820014929 0.11258346522638676 -1.2980072899077968
Ni 7.678905164899891 2.4999581755114035 5.715474115466553 -0.3276909545606292 -0.551705002355882 -0.32626939162275426
Ni 5.635079577891458 4.090690187777904 9.075626538661684 0.10730987553227325 -0.24068739468587577 0.02210325965694258
Ni 6.8987389029776205 7.156652987768291 2.866612848077824 -1.5219647734335016 -0.008602396957030346 2.0273228130937277
Ni 7.700346575835465 8.940067823296214 1.5484859806634343 -1.3809130255640927 2.751852741965558 -1.2762184761674795
Ni 4.4462080437615645 8.41120462238291 7.077134621237533 -0.6659694548291176 1.464447395943323 -0.20426257619993854
Ni 9.039756825469855 1.0320397224371545 10.178501464003443 -1.192859455023849 -0.7315127879475659 -0.848011529067959
Ni 3.42857792195752 1.6904864701211477 1.308366490295091 -1.4523688675122344 -0.001769176085280824 -1.2562101513663526
Ni 0.9033622693078344 2.293258485702913 6.154967869857549 0.7562575989924136 0.23235033557509016 -2.1077309791391508
Ni 9.02786259314973 8.795111542300457 8.28680049014219 -0.16199106912523717 0.758217550932262 1.2268661509865968
Ni 3.248696359738749 4.066780162587209 0.3336968020982456 -0.7258139377905757 0.3892231096371555 -0.7383516652462704
Ni 5.23660409354407 5.663384484521194 13.411319210611053 0.9816947523874383 -0.019379175857560174 -2.9960419791571047
Ni 0.413356365883748 5.586305744729681 1.429145312889182 -0.02113318243418941 -0.7382295378461093 -0.2502279871864594
Ni 0.7132322176056838 6.744665580698747 9.006882177224675 0.5053541830054845 3.348271799399363 0.6422093762950424
Ni 4.398518904742189 8.729665212105044 1.903046313542078 0.4705213915970155 0.534739321035821 0.19154641418485077
Ni 0.5814493599531608 4.732773015210151 8.48610742832152 -0.16661854059491948 -3.7733777389760563 -1.246689099249795
Ni 0.2796145132068017 5.220109261930309 10.68467211539278 0.32045098516876425 -1.2611245579488344 -0.023799416412442882
Ni 5.4824836838410285 0.9819848280899547 10.12980711274003 0.04773818661622746 -0.5381917983607957 0.5081060347190088
Ni 0.6069920368444013 8.039023620177185 13.684707953472932 0.15998637999038254 -0.9283916700889236 -0.6916946275093636
Ni 2.057468421092603 6.47154707629131 2.696757226027009 0.1905179729203364 0.5508873915505932 -0.29690199420423063
P 0.6492053406069641 8.734527634122704 11.591100515815214 -1.5062774446052316 -2.2965813345490766 0.7775568746908221
P 9.155127138650455 4.588003750445842 6.48626151338168 1.3957251508762607 -1.8227527329556998 -3.0653360375672367
P 4.194194321073095 5.409163970301631 10.046226753662209 0.1613341522675286 1.5168899300137555 0.6281513555400795
P 2.587341509655731 9.287955417036775 8.075272041237698 1.0790775986139867 -0.6305579080990431 -2.321030725840693
P 3.0001237357089314 3.106722987634595 6.549517883506832 -1.2221615464220756 0.41615258703814784 2.280686003475059
P 7.7774720696848405 5.126423480786166 2.508549701184149 2.46728998605297 -0.2043260824480223 1.4482365905114154
P 0.8458304660273223 1.6518021626460189 3.6423271886104622 -0.23688987531665653 0.4648153423511737 0.7635258505190528
P 5.772835733976447 5.7078756459828 5.886260143268825 -0.13944686527613404 0.9047992274809644 0.8648674242830331
