# total energy = -340854.4559025058 ev
CRYSTAL
PRIMVEC
9.41730342936074 0.00000000000000 0.00000000000000
0.00000000000000 9.41730342936074 0.00000000000000
0.00000000000000 0.00000000000000 13.78317548448753
PRIMCOORD
 96 1
Ni 5.194123007099261 2.4840397389808024 13.378983752814854 1.5506515998452326 -0.5462154399962206 -2.6908692603036495
Ni 1.5687720392395685 7.490278129581068 8.38921245862129 0.5488464498611645 -1.4596810849029311 -0.15567001200321579
Ni 5.326464369219474 9.38020846045841 12.662795959637975 1.4372641506603119 1.1727871097540061 -1.1756508044550462
Ni 3.924444518058083 0.14650310269919153 0.5518935212385555 -1.829780329226442 -2.171129240890138 -1.3316041520266357
Ni 7.401934408094572 6.023391893855239 7.703361566030342 -1.1443417099291195 2.051608168003654 -0.9554080507767674
Ni 5.875012864355055 0.6609327082765619 5.697137899446296 -1.6642185120308113 0.7943574911879288 -0.8780294155862878
Ni 6.558822085608378 3.916138456619954 12.172252401942318 0.8582488905252509 -1.5194510058727124 -0.7103952892426604
Ni 0.5126045322137542 9.062233217308265 10.799089993031334 0.6242029124152927 0.654125411006338 0.4960388191418295
Ni 7.582285182019301 6.488484247874381 10.017211801258457 -2.4456924623878527 -4.437364616157506 2.116343146288194
Ni 4.945336690690536 9.108651104868965 2.62015367277008 1.8866898979292925 -0.0065997647047047634 0.026778039424792597
Ni 1.8548320417844775 7.183179871647519 5.24324366068348 -2.504161919378655 -0.38379911040810677 -0.34539171427450194
Ni 0.8976008389045781 7.674527667037979 12.87290635346138 0.3046261023213657 1.0605180904442446 -0.26432200338568024
Ni 0.40653179568936537 0.3677080214435251 7.887022522036138 -0.20460890379576374 0.4485333173616985 0.7280024608014624
Ni 3.3160584782763878 4.624630429607218 2.5581021201374536 0.7451329498341619 -1.2671563659652112 -1.117536416810817
Ni 9.388627529535155 5.278502043931049 2.3251528825501597 0.27131463265342953 0.2514742008887347 -0.040341894152156325
Ni 2.4123363922802183 3.9494003715853414 13.758847629251958 0.35448956281071203 0.44213435581389016 -0.11433927157522888
Ni 0.580875271891438 1.0098362586547172 0.1605226419995802 1.170149672131159 -0.4093353070059983 0.8973754242130674
Ni 6.971742579800722 5.998859818972783 12.627469771807238 0.5364164516279278 1.4469335554292757 -1.5348056339519116
Ni 5.178179512751468 5.21677162133815 13.919077393121462 -1.628899525014543 -0.5193800649709314 -0.906662248831632
Ni 3.4815581650265934 2.9257960156261515 4.494859049535151 0.2639682195906873 -0.2929550937413406 0.36402552732560534
Ni 5.301395508053602 6.011676768652254 6.471117799010374 1.9591600400745615 -2.1290302548375593 -0.2071730649785142
Ni 1.0256384934542417 5.405965242984424 6.949628868384605 0.4272163010514771 0.5146870303706361 0.7408566910563111
Ni 8.558868943011849 6.772717293595029 0.43259606580536303 0.8403069613348496 -1.2621797386862263 1.3967816171652332
Ni 4.528376173417742 2.037169866688169 1.4238435096383988 -0.9677182356026882 1.1665737818544426 4.13079398851526
P 8.922226170368734 2.567222778303925 2.9648297957337495 -0.44705184772016565 -0.07238735262347533 -0.20559029387242658
P 2.38520514170964 2.10519104783058 1.026410712318104 0.16792131856674306 -1.3496085590238562 -0.8522322520175258
P 8.742091994418017 4.6940265370194325 8.42813605628124 1.0985431635377663 -2.0671458586279368 0.6565342775581468
P 3.565974871071252 0.8959810627511108 5.3651694854447705 0.42045584239919204 -1.1032757931267452 0.4357675330555979
P 4.164030129222984 1.5775960523546786 11.477635883516209 1.1493486762254077 -0.4461514473930833 -0.25074040804650366
P 7.277381155735506 5.035102424962925 0.9156255572635112 0.18537088150175818 -0.17498979537775025 0.25157267413981194
P 1.2466060961574859 8.518854821639273 1.1391518412510409 -0.6216505783070841 1.1749638056903506 0.5505541765808905
P 0.8353185623431147 4.858104210983746 12.480858370121043 0.19888588526905746 -1.066464794945983 0.16997768687513953
Ni 4.631307297588662 0.48916957315617576 7.6785516807029595 -0.9813119151267228 -0.5967682132431077 -1.544429787305237
Ni 6.727580159271954 7.767429363281906 5.620641145407834 1.9713388415289406 0.7617577028750365 0.4914339733799665
Ni 7.566887891258143 0.2771135644879673 7.142041324270735 -0.4409495914771696 -1.4683724420293423 0.7393605661267589
Ni 0.44957452177679497 6.334398332624189 10.930843715430752 0.2173844582938772 0.6209561233432208 -0.6166844925510605
Ni 7.741211591123458 7.028707846965397 3.08018140111867 -0.24740748701852877 0.2475866929088704 -0.24855497035941068
Ni 8.719132609172938 4.248663433241653 10.953310575717538 2.0735255369020353 0.47667172746912745 0.3491676363771664
Ni 2.595389932228465 5.779003458049243 10.061387428922991 -0.037496711393877356 1.780062907396657 -0.3316021166895773
Ni 4.384799968558654 8.632135562046592 9.88774648354097 -0.6175892637535171 1.3103789240992723 0.15453692684003706
Ni 2.916783656446685 8.77471353276459 11.842407589816412 -0.13549867926166342 0.23041146668116447 0.24598232453622795
Ni 4.885414390315462 7.364698391171259 11.705140978113274 0.3391645024178675 -2.218656854157456 0.3597212435232966
Ni 8.250697112511466 8.935918929247464 13.600851649705723 -1.5074912624076748 0.7489980892165229 0.17736060960277197
Ni 8.794706467496052 7.897783674423157 9.149933736984982 1.8054587217619422 1.7093508855930752 -2.1488400904746348
Ni 6.1982147107911 7.334026234590775 0.6535278827563795 0.30897383776710013 1.5771236779938322 0.09207428952944142
Ni 5.699700347651868 2.77493081807646 7.493884956713498 -1.5611856666073372 0.5319242201845291 -0.5366625062004629
Ni 1.7800209850220086 6.4803100286813 0.9399909458790118 -0.9115134062763464 -1.7194002994092776 1.0850975795558215
Ni 4.240065435403771 3.8614427595307768 11.860615003857772 -1.3336810891603224 0.5807900926472965 -0.9787248711258371
Ni 5.435968771036442 1.8813417503426788 3.5074595157969224 0.38776349437249347 0.8086512821027815 0.9016907637589696
Ni 9.38520904846708 2.37242586124304 12.154720208541677 0.5655524497619357 1.394308215924076 -0.8169356335987609
Ni 7.510807850595945 2.5189779339189644 5.06052066807818 -1.2255384333141086 -0.6701086738084717 0.0179414149697691
Ni 5.251238951115421 1.4033476909151061 9.457022577615314 1.2636496383635334 1.8838262032282524 3.1769669090723673
Ni 3.1445599693764232 2.1521928081907866 8.54482397699277 -1.0327488907507762 0.5092324350139681 -0.26012519169551324
Ni 7.797385804817834 1.7607625999415393 0.9875869380722639 -0.9525554118193208 -0.7966270039483958 1.0751623227199807
Ni 9.506673425370696 3.4237830097851853 0.8368262725882898 -0.17385953842804897 0.36162977339991914 -0.879067627042815
Ni 1.615227596013141 3.1298030552340776 2.703059843378598 -0.4270553499935806 -0.27211218885406036 0.696038506300356
P 3.1531391326078695 6.312512519945944 6.679794879284024 -0.4701640082575967 -0.12128125011070082 1.7413343804782075
P 7.077169289324368 8.970593439695527 1.8827543458253537 0.2830902851321189 0.3879835808030996 -0.08027266890882305
P 2.587526484041574 3.554174990139307 6.700552499036772 0.632755172860678 0.3089887501654356 -0.4254916050508865
P 5.810504337312896 6.792776149449015 4.0528051861081185 -2.2249748259556843 -0.6237408851772096 -0.7983812676353412
P 9.29240152525533 7.911495267908323 4.259262608013325 -0.1252716022170165 0.45339450210874166 0.09071880394281151
P 3.4744292664906933 7.195073925611642 0.011783871516475003 3.907969590152734 2.7632278165717183 0.8966272331931333
P 7.65865951111593 1.4300551628408815 12.62067424580525 -2.1855919532826875 -0.14801198123732573 0.5812544338782248
P 2.045315833971595 6.089670873902351 3.0839718656638477 -0.433080473141738 1.2747650315504044 1.3473159063349376
Ni 0.17578526532472288 0.37026293580652336 2.7756973865583916 -0.6746129894367285 -0.238408368843712 -1.5078540450637323
Ni 3.6247105912408797 7.658245149774345 4.02161319439001 0.895367135533787 0.24063442996075332 -1.3732742780719123
Ni 6.935824985327905 8.612509902140628 10.224938675637429 -1.2668851145816955 2.3263377398759033 0.6662080532024849
Ni 7.4277660708210895 0.5086172460313236 4.007499482057443 0.695274374440822 -1.8271439200448598 -1.5408785796188689
Ni 5.630963451464901 4.35899655774179 2.2710259905753403 1.1999641843894302 -0.6648703082276679 0.8406244925752684
Ni 2.745793681920483 6.032244158880003 12.400363970866609 -0.5560439960508682 -1.6444279596674454 -2.149465639873776
Ni 2.251856128145118 8.996538110060657 6.692765331005946 1.606961330180555 0.908489788958674 0.23913599103835592
Ni 0.5921524924947934 3.037984348860202 7.198594113554468 2.3894264408062718 1.6658845868793248 2.919907243676055
Ni 2.226937943830731 1.7082234652892463 12.304612598668966 0.41688175189468846 0.1711177140168537 0.26134620858680796
Ni 0.8262402820411233 2.0284871131213267 9.828602994142011 -0.5272131878621049 -1.4270401589394583 -0.6102960725262134
Ni 8.312512290833325 4.4997852408484 5.992593545411636 0.018141189685401016 0.8987447937567683 0.7653755021332818
Ni 2.0211321993081985 3.6574733891357223 10.615208672130239 0.6343194320240044 0.8015285550150713 1.2963954653359866
Ni 2.712107988310293 0.239289907843861 2.5354563310895295 -1.472499319713522 0.5294492762814753 0.509558193784503
Ni 1.1239928082612944 2.6381633234438646 4.975215910340079 0.23272006020968308 0.14929419038385902 -1.0297494418028201
Ni 3.893951290238738 5.265185977181032 4.863668895455163 -0.7523207258318528 -0.29733419664564276 -1.527996324339562
Ni 4.532463283014282 6.8369998053599605 8.509787842101144 -2.17407649644392 -2.2468713689184594 0.6052088878112932
Ni 0.9841835246893389 0.2761690089752186 4.892944465968442 0.7632818528290467 -0.4813521636639323 0.17046388248293867
Ni 0.9392620466099515 4.858414981989934 4.580052683095282 0.2729562820219106 0.7977081528277165 -0.47373989853431314
Ni 4.412449170806212 8.098598248240238 6.213786221661787 -0.27795322101586967 0.9534252160187837 -0.267462605897191
Ni 7.767391694069035 4.269014225495392 3.7246545468311028 -0.4617942961366628 1.2080569886998935 -1.2501883706523051
Ni 4.516595127092232 6.623641383656726 1.9939020670538332 -0.7935861602395429 0.2263429530387457 0.7310924125806957
Ni 4.168051317696999 4.518026557181344 9.147024732020993 0.6987366219578096 -1.889661321852791 -1.0143999559299433
Ni 7.891841356092704 2.5585871112531717 7.442198088002419 -1.80449790051057 0.7170840141167457 2.958138262132796
Ni 7.031834391633717 3.838323280130996 9.728357684848817 -2.204033962037959 -0.31976372929375246 -1.7827633370469556
P 5.73364030844894 3.930471592117496 5.335343002693248 0.1073263305925055 -0.3177487557462528 0.24440366719519843
P 8.274861912568426 1.1108085837563275 9.817935073056848 -0.42548466307235105 -0.3419217534480305 -0.8226460537199767
P 8.288620592569682 7.6316789373968374 11.845481397586715 -0.06552610672726779 -0.06024608927525108 -0.025103479935847085
P 8.976695852180683 7.64310212620007 6.982101613340339 0.17140002114396288 -0.042101042935108135 -0.16411377189519477
P 5.964637339079176 8.163257452133882 8.111825792340007 1.925946272326754 1.5013357843292403 -0.7815762802628604
P 9.11401896770313 1.5974383102346537 6.094217547895921 -0.06461207955343067 -3.3911367170836884 -0.7210144595194034
P 5.388175957205937 5.3596697803655555 10.645462700447851 0.8914708858031744 0.2627225201090443 0.6582173216875244
P 2.2782528290647055 9.327358554799929 9.187285586737874 0.32821803070869277 1.2505352124687623 0.39779439624593427
