# total energy = -340858.36785322794 ev
CRYSTAL
PRIMVEC
9.37381970521597 0.00000000000000 0.00000000000000

0.00000000000000 9.37381970521597 0.00000000000000

0.00000000000000 0.00000000000000 13.71953265880309

PRIMCOORD
 96 1
Ni 0.7957444890212907 7.624018124612593 3.848219190302851 -0.9166291302363568 -0.41331486047903654 0.500202463601216
Ni 2.521688724239617 4.00009944085994 0.8082791606816996 0.4452325351232396 0.08974178474152286 -1.7140760589828867
Ni 4.668555895223844 6.028209690466873 10.712444236467864 0.04759523328045996 -0.6492991932622882 1.4092704936608633
Ni 3.378287113165341 1.9101313552621035 5.292392030584823 -1.429692766070957 -0.3892133394451426 0.8046843270352334
Ni 1.604366731502849 3.040923343304353 2.5347248952522783 -1.6235362038201007 2.1144929804533326 2.9577541393204996
Ni 0.1507253959739586 0.6867110307858906 8.307080864783593 0.5376816914935965 1.9708809280559156 -0.8302140958752219
Ni 6.519107252674433 6.373185001898495 8.80577182066335 1.2973704276547462 -1.7308005708264191 -0.14452865067441562
Ni 6.6400295263950975 5.461890375208424 4.0213873853265785 -0.7977626602147357 -0.21898625556335835 -0.5156298538998797
Ni 6.306893349204499 3.972024850953476 8.175304645269039 0.4683372394615031 0.4345125776025743 0.24886504540066173
Ni 8.276117263655369 5.8017100858224975 12.30702470023704 -0.9413034930545854 -0.39603704723519534 1.899671140680309
Ni 9.273960367342562 1.2515267853695493 12.536167722027868 -0.13658162791319703 1.9486709676177794 1.7907263006477738
Ni 7.185257747399943 6.740985564222351 6.492439673100175 0.5036508271611326 0.2429574216669751 0.8175634969907468
Ni 7.523212067900031 4.164385004366016 5.996505557584855 0.6447048890233865 0.7362127645263966 0.8177573581691078
Ni 0.1949492024049163 8.024280224447663 8.842170362435239 -1.7125981888857797 -2.860960589938518 0.17490237787026652
Ni 4.190856671109207 2.001516723208054 13.981438236592991 -0.6020957961036082 0.6863017386285665 -0.05386049746388144
Ni 7.66182273933472 3.0704508752593993 10.29667408937361 0.09751911469409658 -0.13871538642674822 0.2063359137891995
Ni 7.391228686970809 0.10701996177065612 12.273040854411699 -1.5211134811768 -1.5040454699509194 1.1169458344146699
Ni 6.296029092208975 4.112510286321817 11.731654962088877 -2.114747262555984 2.2515587470917997 -0.2860894769697589
Ni 8.85622546764584 2.98360243603289 8.30721772255075 2.4190013262499113 2.8455799937173896 -1.046740577044178
Ni 5.021761420324207 0.6545888255466675 8.408234690205846 -0.6813467086161362 1.0872760752643793 0.11456501443278978
Ni 1.8240515692483927 4.380732762309656 4.954959831840258 0.7002733703173102 -1.1123895825025554 -0.7152662441817166
Ni 3.5469689980958345 2.0305661903600187 2.9577663142632082 -0.8548408932849666 1.1536694150879485 -2.085870174510317
Ni 8.659665843021916 7.748090001741796 11.276372290328936 -0.22063741801353612 0.8903300873305118 -0.41410264648765455
Ni 7.647143337734211 7.920043349736515 4.560468255392973 -0.8535699969923429 -1.9540764549040668 -0.647865289029239
P 4.861009786833067 9.31247739235948 12.058906255291737 0.9295993172437796 0.4485477155394017 0.7555852555157374
P 8.065215694938992 2.035524940964533 5.790067801794509 1.754657322839359 0.17946197221649093 2.2782509116710057
P 2.7903330221125278 0.2870479180276225 8.290219237964312 -0.37207565132359144 -1.707610505863201 -1.547003461569684
P 2.8594274468873353 7.870437096052038 4.53659688622576 2.024258572346107 -1.0069424712106334 1.2448710722044496
P 1.9521541888349516 1.9795819851843057 11.98065079655513 1.7866783558306456 -0.21652133896263354 1.9371380272775152
P 0.339626609928908 4.943668128667861 0.22163084270867617 0.02425887254736467 0.5515826178454049 1.900416503486766
P 2.040849270536109 5.843273602231601 11.238327705823302 1.0751247846138257 -0.2587735627636253 0.010427880201543331
P 7.70421115187463 1.7802195884795684 0.3658217489918847 -0.7752619080090584 -0.7150479575233233 0.35218456882661925
Ni 7.9727335900918535 3.6774994369764755 13.168103774964196 1.196106758316553 -1.189852806987041 0.7436442811037773
Ni 2.4385804390607473 6.238980025707893 13.770431681096332 0.26512701578547887 0.27397469598409585 -1.61059378472682
Ni 4.9705897387551286 7.068122496825258 0.36348016883875117 -1.297869992998984 -0.28196131373399824 -1.1344020822179044
Ni 6.685408187409186 5.330441302000293 0.6200350514854958 -1.2404816848875022 -0.9211151910321684 -0.29267381505549595
Ni 0.6495663329684093 2.1270134209268345 10.43020602531203 -2.0242212913502686 -0.2571743365973055 -1.44354689834523
Ni 5.838567944758131 0.10133099061398389 0.4958553754301071 -1.0410491830863555 0.6136595896818077 -0.15870777038827508
Ni 6.176466022340209 1.977154165890224 2.064775945239365 -0.1927399202723197 0.2820297050780885 -0.2566863412172934
Ni 0.060974822178153774 5.784218538321508 10.379594898159112 0.04194343431132132 -0.17740843212157187 -2.2822394640051082
Ni 4.1978214191227305 4.053352110395375 5.035562495021798 0.7916035825918755 0.4198426342952254 -1.290145884881849
Ni 3.4372203174197455 5.618976845209269 6.70865900971436 0.9065727744416193 -1.131026223767136 -0.06276628459394351
Ni 4.175596092689266 6.597341151625803 2.5000417624796842 -0.29646156423270237 0.3560623066144707 1.0414451329731935
Ni 7.256255057567409 1.6337630299825394 8.244766523774842 -1.592213225337103 -0.5697911704336316 -2.0562307543773293
Ni 7.238866622082771 8.719761400915186 8.965632003904037 2.9297735949471737 -2.353518156945437 -3.5947027814372343
Ni 1.4411966525372968 6.07202292359636 2.069687826745538 0.43635682990016467 -3.118887745541448 1.5016499731355493
Ni 3.5080395250135155 3.718556767123492 11.76263356132857 -0.5734362233853866 -0.41632999315627656 -0.9497891619280934
Ni 1.3322072512543375 9.159365421897979 11.677023403680241 0.8052314577879551 -0.6758162657162103 -0.07963709220735318
Ni 7.224843387859041 7.533682624469487 0.4148843211356027 -0.08644357360622533 2.785835012448273 -3.1262709253793965
Ni 5.013578075753808 9.612008426039335 3.6161393508099557 -0.0918302918394354 -1.6803884369224542 -0.19013153611519515
Ni 2.060899870806536 7.646599656193452 9.816353007897757 2.384325115023965 -0.7851768531299251 0.44258018510205716
Ni 7.328827169439145 9.242623688191541 2.5889993111315537 0.41443431879546044 -0.867170618494913 -0.7709560815448528
Ni 2.60743105274527 2.0805567706508956 9.261740656023008 1.3484456490640067 1.0263306459292583 -0.40333075268313123
Ni 4.726270502921374 4.212097746477504 1.996000230333278 0.5656974599802322 -0.36736821854559315 -0.3790513113104762
Ni 5.196864371727464 7.4143539000924275 4.801396980652713 -0.590752346066331 -0.36781379072344395 0.4055524429247983
Ni 8.929481868353358 5.391680465893091 4.0005334487105815 0.06053148172615382 -0.5796248686946017 -1.7410294476432788
P 4.033329631583952 6.411317700309012 8.671938047731613 -0.3177680390199625 0.9828067545046943 -0.521467029406947
P 3.0031843453199034 4.828492006403844 3.1959513225060467 -0.3733871710461634 -0.1656464064896373 -0.9381965719944876
P 4.452479978050584 4.7630346236603245 -0.41210498360396103 0.9342854098655394 0.6359978481676918 1.69524787053279
P 0.19734608809409263 0.048622940001276205 2.2061143981975193 0.23060198542541574 -1.2539671209684466 1.0259928029738652
P 5.568573816852989 5.38172546940539 5.999620477860621 0.222912587200958 0.41866841148146605 0.3087848616847456
P 0.15415340182664444 8.11379082845996 6.659255230534717 0.3085912576167008 0.09658091915054334 -0.7047717724082959
P 5.167889895132846 2.7280346165972142 9.622386181794075 0.7934992569526915 -0.8461989013392524 0.38810622242389287
P 5.130104028050055 2.250766588187317 4.172837377560894 2.4042730189008013 1.724256084839682 -0.5880760847857485
Ni 2.7330121148410647 7.816959454844566 6.906467227118098 -1.682439148803896 -0.3489313519966442 0.4162078657561154
Ni 5.3056194275187165 7.981882438088084 9.547491237408542 -3.156776293057105 0.8514892032039142 1.7506625998576688
Ni 5.932362384358826 1.537362668514065 5.936030359995019 1.2055141676733818 -0.25146443069672175 0.6226929035286696
Ni 4.3826450215219825 2.8424233380090964 7.224006305762664 -1.0056687467045324 0.4025190554151132 0.49655663931851257
Ni 8.651810582139907 6.841979097328277 1.769517498564306 2.5260810880492497 -0.9752911628539397 2.200109173062256
Ni 3.5100923915208657 0.19552569231451486 10.424045551026044 -0.27947865652146064 0.05501003768729236 0.2862748535076876
Ni 7.745240360562642 3.963007236432601 2.204249008083534 0.6629579216963034 1.347498711769705 -1.3971161176865166
Ni 3.2233753693275333 7.701436501252823 12.045214854284264 0.732482865170319 0.07803632337913657 -0.21218183104701524
Ni 1.5101223485580761 4.065566197423129 9.569277869081532 -0.4302617727460203 1.3154270280461409 -0.4921220005859267
Ni 5.943348501010036 1.9980765313897997 12.340925119067332 -0.20835628665333794 -0.4031582316610089 0.4675569096520529
Ni 1.6557352632849611 1.4325914860818263 1.074098189306594 0.4460681436506576 -1.4228634018539494 -1.0838454523162753
Ni 2.1180051802256283 0.2311265220326323 3.7907483019166963 -0.5843865517493032 1.946492471909222 -0.9981976351384678
Ni 1.5118190099180329 6.043601502362169 7.9310697738122995 -0.8990312146489354 -0.6375045146202053 1.7772532058620034
Ni 1.6907933488442857 0.6142664028616434 6.2120124839042505 -0.747166692434739 -1.2127855045238145 0.810408116892888
Ni 4.274977328812249 9.248810409172599 6.321905521403231 -0.49554928109992075 0.4660119337624361 -1.2634886873056368
Ni 0.8923763838355716 4.07405887804258 12.108722482536784 0.6523225534696443 -0.3709075991574193 -0.8704783427119073
Ni 7.292822328093325 2.8093525022194448 4.023883633504238 -1.5082355967728671 0.10945109024499214 0.9761409124487447
Ni 0.7915403309000724 2.30440358432915 4.707212590153818 -0.4756034341056131 0.04644286484357163 0.339359392037493
Ni 0.5010887789509015 5.754981594776178 5.9166031187325325 -1.557256249645944 2.191110054887439 1.6733904083380666
Ni 8.850423073271182 1.9000451252990462 2.590810333091463 -0.20537766364098825 0.5486261063202422 -0.9394044762596597
Ni 1.757347468488993 8.189540665199239 1.5890096027403244 1.2439423897425932 1.185977640302351 -1.3006979493660826
Ni 6.54960028805531 0.7937328673204803 10.233879808797845 -2.199947193563095 2.815250232385597 2.890836294452028
Ni 8.791489869016777 0.35763465489361884 4.703316830699685 1.617512366223524 0.5978233939804994 0.04931915795010216
Ni 3.7857108112269686 4.298449373261594 9.071711771561967 0.31019459754807865 0.26550522506050406 0.12935477114745467
P 0.16917963475487904 7.696468376828641 13.344166605501485 -0.032894693845491735 0.08039788163277767 -0.012864257557177846
P 1.9473922884434711 3.7937629223220113 7.128586445831491 0.43537569693381795 0.25733965853057617 0.6047260346376037
P 8.397686330933144 5.292571070540487 8.176855075042171 0.23046623117849985 -0.2377861618786808 -0.36183906119724785
P 6.587761107924832 6.983476905220792 2.3936601578284376 -1.4915393670641086 0.2523231791525912 1.231779014907182
P 6.298728752273437 8.937571474727076 6.828952300135285 0.6786804746378827 -1.3910244029664818 0.34437021498852305
P 6.32400057009909 7.1397384790908305 12.189352329795364 0.050616793715603146 -0.5778307529086565 -1.135833158237476
P 3.801599435564684 0.415683907953306 1.6769660274516227 -0.2919297378006198 -1.6055143133213832 -0.9901436544857399
P 8.753225937130905 0.32456194434003344 10.412219540132554 -0.06412639816626374 0.6534780072303262 -0.323255801607411
