# total energy = -381164.8195569657 ev
CRYSTAL
PRIMVEC
9.32392727914572 0.00000000000000 0.00000000000000

0.00000000000000 9.32392727914572 0.00000000000000

0.00000000000000 0.00000000000000 13.64651005004089

PRIMCOORD
 96 1
Ni 1.4260387298644173 7.46150075642189 0.4013092881338817 1.0502092523190685 -0.9689505653478926 0.3615989201619837
Ni 5.159684187487584 4.629339205306603 0.17428751018667368 0.20038175308829362 -0.8481701661330103 1.172389360094955
Ni 6.725880191827116 7.493276700501931 3.3534520675403625 -1.8151862334623514 0.5283501296800255 1.2056118695935107
Ni 1.5099447512189645 3.130583166791878 0.9742459700090041 1.9060706164487495 0.3520688691843614 -0.5521991683834813
Ni 2.2791594257082193 6.1431720341902905 2.3002967687919798 -0.15505217591355877 -0.979594932435616 -0.47800587289951874
Ni 5.279450033059221 6.90482500367693 6.017742835204857 0.3071313852417226 -0.9133432603962335 0.1930397109009256
Ni 3.1473662358482386 0.6173017925328852 4.48807797784467 0.26734022138671376 -0.09467058950170794 -0.26991826652653517
Ni 8.081616510199892 8.922336382796495 5.082819595994905 -0.8785405508947514 2.5295237951822114 -0.10789145906735613
Ni 4.809775845516982 4.125241078344318 7.445386212949607 -0.5638640063159193 1.4490362035945754 -0.8517062043107266
Ni 4.134303935634752 1.8690931050978188 2.4822187106138465 -2.0976399134517356 0.003922989203490018 -0.423638868112864
Ni 2.7049272398135695 1.033137759327772 7.844791555138317 0.22951492300882406 2.5629414514107087 -3.1425794327314334
Ni 7.6188886484615335 3.455344876959701 6.0687941340961284 0.6695080641099953 -0.13159085956682498 -0.26187662716898125
Ni 8.844500238083997 8.176273019677764 2.749021024188255 -0.40801967351836826 0.566734900105811 -0.6291787683633292
Ni 7.866093931734466 7.934195896394273 11.30961327175851 0.6253624799410327 -0.6112417242689343 -0.33590794315378275
Ni 8.444886039924807 7.746756986816491 0.24886307753861012 -1.4081309807397815 0.4891521193243253 -0.19863828803462563
Ni 6.28297499942977 6.238593105702952 11.306419826674176 -0.5081996228740796 -1.0187073250560454 0.7164641211445596
Ni 7.3206162156209995 2.466020251796283 10.318698916998365 0.608111920390701 -0.6483998213764705 0.04482486962417441
Ni 7.190668641488504 3.7013846693259413 0.8068516392408677 0.31972773384949454 -0.2850121847451801 -1.228028546725814
Ni 2.320427127732358 6.431197470979192 4.607279725817468 -0.029544803536652342 -0.06849058867223043 0.36943744236979603
Ni 1.5650864569963614 1.8298859909967107 12.4587723874729 0.18760722703144464 -0.00576724150108039 0.05360184448585607
Ni 6.856918665448275 0.014706630456998283 1.6829008045938336 1.9520062026385991 -0.23510604394335638 -1.5973726580508554
Ni 7.091769745110275 6.595494393113705 9.200272397904346 0.0426268335315911 0.2895429827359981 -0.8346394786364271
Ni 8.473202806993788 6.8400330331921255 5.555467183938297 -0.9195974688360613 -1.339998289627602 -3.0433191669765134
Ni 4.714289506513545 5.585190931629836 3.941726609747547 -0.7371044231027306 -0.22539858684760536 0.31204579182420455
P 4.073045733579037 0.9862477291697522 9.946149282478007 1.461687830920315 -1.9299543650448827 0.2244449646850844
Ni 2.6485920713477205 8.660576449080796 8.79046807964977 0.5348460218170143 -4.372793160034024 3.9881245025367704
P 5.289799592310643 4.636248235401471 10.081114061865629 0.4977046368800267 0.09977268661496365 -1.409970090831049
Ni 1.0671794177304226 8.505519538854534 4.4123807420441326 0.1162873964405352 -0.2143695827269534 0.5367357826405594
P 0.3373741865636776 0.9909376645782796 9.247420700847288 0.9390748608343827 0.2771458946232259 1.0617974713773002
P 4.488538579850994 7.926261234301517 4.185234955864453 -0.11402533987923588 0.0631141548516655 -0.2524447923321201
P 1.5774966041708143 0.44216766975159055 6.021235578354031 -0.11242842770576121 0.5958793828802511 0.852080814041326
Ni 2.1626476307480655 3.309238936896832 4.006847714864401 1.2491090215451972 -0.17237009836671605 -0.6251022843011105
Ni 7.401594523817937 1.8102218284190086 12.916053210909743 2.1060530772160955 -1.6707611982453354 -0.12346205981210351
Ni 2.881680928758803 5.705245818946333 6.866173595640133 -0.7364557337751382 -1.584007292487543 0.35481120781618897
Ni 8.00434912504986 1.5626995316194567 2.875224109135731 -0.2533907011851572 1.139436045097386 0.769400564132275
Ni 4.718531893413903 6.419122985185866 1.650122538334037 0.4840991302814502 1.3541619827224936 0.43944163947307546
Ni 5.68186140939447 0.6055611033352358 3.539877466225686 0.1322112667596433 -0.4287113975397649 1.2475889853562452
Ni 1.042545601926587 1.4933854564166893 2.791366572202902 0.2513371610902381 -0.7326484442139058 -0.4662487323635906
Ni 7.42141719315895 3.9077697990829035 8.574662053795837 0.7083088390272769 -0.08441137366754495 0.4534065862935998
Ni 5.381966613211821 1.7724226273331842 -0.01993828603895589 -1.918000535117116 0.03197295336217074 1.2799632879218923
Ni 0.11015940332232144 5.494907344033872 1.2739915833555968 1.2143775316012828 -0.16317171969689961 0.9639312577564302
Ni 2.441293196719912 3.069744541462572 7.031132516609645 -0.6871712857177134 1.547040485455207 -0.14380051425913945
Ni 4.544547410862969 1.8834333052137533 6.63808516041512 -0.15875199336264917 1.1926388543726105 0.13478391258282596
Ni 2.5411617815325087 0.8684538942122377 1.0155080776767909 -0.032167071650847825 0.4676687526395688 -1.6756108130281528
Ni 8.706944339312617 4.293267571380244 3.6846668677603556 2.2022969247421944 -1.646231074314455 -1.0576482250956172
Ni 2.773728499017393 5.255273089690809 13.610892782483013 -2.1811370028351273 -1.137162418571861 2.0075433164739556
Ni 4.807799172939233 8.84129280710878 1.3187548257070856 -2.0694809345190164 0.21573355295401556 -0.6665153000302586
Ni 4.881476846096653 2.782381103508672 11.27776273626044 -0.8940630720103829 -1.359693454063684 0.03222594991324128
Ni 2.3338256111956857 2.1453144499837467 9.818090736007077 0.004763739937230505 0.3353389580241902 0.20585100373298099
Ni 8.975305613523817 3.704545480664889 12.78481520524536 3.5838252152927823 -3.823482111831615 -0.17174943406358165
Ni 5.077428501256913 -0.11076452620107577 6.00329074796188 1.319391669120844 -0.5982435122370535 -0.47379800546575823
Ni 3.0394977214521095 4.552687199355304 9.390873051213802 1.456897351510207 0.06355329927161313 0.07022762596799519
Ni 8.790104446486882 5.427970870280755 10.515085999561363 0.454264820528837 -0.16972134788995932 0.4734982148371522
Ni 5.492585686147741 8.877133983471364 8.491895416351673 -1.4019335936798178 0.43635348746605496 0.8029940838170042
Ni 2.463120510420434 8.473137539503014 2.379009362666309 0.34024745106940113 -0.4495653581706387 1.314599132828207
Ni 5.86931896682676 3.1918600167021 2.427550660340929 -0.26082787418949277 1.0390982300075717 0.42479689297670714
P 3.6937297250507903 4.074518914085096 5.546324140873482 -0.4587513955452809 0.19334952883186057 -0.5193625814694346
Ni 3.9213734089458088 7.103601808795009 13.111266411031522 0.9863847016639399 1.953100464144043 -0.4760410358636641
P 8.961981721478518 3.3729679796747334 1.6904205519238082 0.2131935601409812 -1.0919976491097645 1.2664655105457738
Ni 6.817953973455759 3.7312025886827414 12.12407789760189 -1.2859878968494176 2.5619091534914524 -1.0370403190372786
P 3.513059986659073 2.781858963582474 13.055329374259399 -0.6066240229912649 0.2602786865542421 0.2679079209647257
P 3.845719063210639 4.523624518106041 2.127709010543625 -0.11833399455691877 -1.3664042904249563 0.1466302703984507
P 1.1438966911724955 5.933215840295224 12.081869411317868 -1.499364262425166 0.5232120371225119 1.0049822621604692
Ni 2.0535763297362313 4.070863934601711 11.50092347593196 -0.14856348286542154 -0.33476354513669443 0.631605375526951
Ni 0.1522587996574756 1.890249096036086 5.009688304974541 -0.11007715386476527 0.1610364185214517 0.6048520186925067
Ni 0.3411531742795348 2.8968416344730485 10.568649164454737 -2.049533801973128 -0.3049230647364942 -0.515824229298873
Ni 1.41390830050757 8.440606357315435 12.012449975737134 -0.0030421292604334705 0.6477524176004587 -0.029661274509858598
Ni 8.169690327036767 5.527363934803422 12.998368570274838 -1.9837374723036092 4.309289997274056 -0.6568672354175332
Ni 7.196663926712526 5.898652041966376 1.8518037467915918 -0.43363557431425964 -0.28329314517154436 -0.868558242871059
Ni 5.287216864461414 2.5808164441417865 8.903652164973138 0.44714415032365573 -1.3998597418699246 0.7213263343328674
Ni 0.9688213091328983 4.322488759392817 8.645105256589007 -1.0452107706632128 0.24766999665129605 0.0861394121022452
Ni 4.422264104932879 6.319720596735945 8.632945923057676 0.9681648362218035 1.1861002819231443 0.42962388205170526
Ni 5.415887060560176 2.9581371322377774 4.6671337444288 -1.3047415233078368 1.2796699250511898 -0.02190091383814938
Ni 4.726363992306871 8.047649443215269 10.854420075633733 0.030527479164895812 0.5401543214038051 -0.3963617775644658
Ni 7.885161362967941 9.177411060671407 9.089926516036954 -0.8529418764900408 0.43236467802163603 0.8190529370520796
Ni 0.49399192221218013 7.975221176309821 7.041367391555848 1.081833821202885 1.3533564561020628 0.5937592512134547
Ni 9.299955436564597 2.353722871954726 7.621876034753566 0.0022836538278541317 -0.10570062206362442 -0.2798895188066341
Ni 6.953374692886078 1.1381345041298119 7.2141453579201755 0.0331479475068784 0.6394318135499052 -0.5020809115708514
Ni 2.741309203956857 6.795688435174321 10.972503884728834 -0.2512446013764318 -0.3550197242825692 -1.6067145042770714
Ni 0.4584920015870769 8.062241389367049 9.862496871944755 0.6863145941443729 -0.5123820363865434 -0.5982219149704988
Ni 9.168805075816396 5.774308148113254 7.2060400679586785 0.20755153136385546 -1.546173252358905 2.5290892787479535
Ni 7.240104103786738 8.017458566768328 7.256572956494654 -0.006347796594898744 -1.0045112360613218 -1.3859264196182841
Ni 4.173408486536071 4.998687935600822 11.897695741064272 0.5824116874111195 0.22872225190419962 -2.3904075737726185
Ni 9.008069893892733 0.6944060089559798 11.629392275202045 -0.5183403108525073 0.07738506294838285 -1.1362581615900367
Ni 3.5179457245399246 0.3536183326247836 12.505061024323068 1.0607183793805088 -0.0656754878209385 -0.7032512219987115
Ni 7.002371930603396 5.216616087297659 4.4095555920863125 -2.2547831675663685 1.270663350677205 1.2981736402823318
Ni 6.245912388596976 0.5586981125662515 11.026066117229481 -0.541543488441848 1.0829918460667285 -2.1935641728548867
Ni 6.420223208601783 8.811782577351348 12.824048426342776 -1.1060453854520822 -0.9129149146095633 2.8953583506920975
P 0.3692890571597972 9.264449921583141 1.1049105541472963 1.3019143382716867 1.126383325678486 0.097372047593271
Ni 6.737665635875581 5.339151139263596 7.087874208303749 0.23096476808147323 2.207085347269773 -1.2033868369177338
P 6.190257866820635 6.72531143226465 13.476010053655221 0.07467357755449075 -0.16062041402995564 0.8624631857169147
Ni 0.9007706260729845 4.42155548646161 5.525404045294729 -0.32360495741671363 0.36177092696347374 0.951006579274962
P 1.9127757042806228 6.637181671864252 8.758602625868095 -0.24415504151950207 -1.150056758036026 -0.4747125468602276
P 6.986055057909712 1.6880224378341997 4.986025109997798 1.8725069215606913 -1.7250582690260032 0.6503520600068348
P 0.19217639701530292 6.319748568517707 3.4891804765700485 1.1239325501451483 -0.7342885509204903 0.544908548259339
Ni 3.1902469772872384 7.873898058845673 6.582994736237618 -0.8387265042216072 1.6915215707211384 -0.45104682781217165
