# total energy = -340876.81372707186 ev
CRYSTAL
PRIMVEC
9.20003207765893 0.00000000000000 0.00000000000000
0.00000000000000 9.20003207765893 0.00000000000000
0.00000000000000 0.00000000000000 13.46517689914552
PRIMCOORD
 96 1
Ni 0.32988094927598144 5.563783783729441 10.341767069799614 -0.1237878185826384 1.7992330525672044 -1.874421879195217
Ni 5.1415023125382335 2.904450118846718 11.51498827719829 -0.8877127043123227 0.0008320089829921155 0.019318497822953824
Ni 7.083279477517727 3.959647795061873 12.932481375618574 -0.40862002610652853 -0.3060980588812019 0.18526443783088092
Ni 8.662014177689459 3.1527957840609986 1.4089830687720972 -0.045247816094205945 -0.9803215261889956 -0.4270844034593032
Ni 5.255444709503443 3.6214362167627185 4.961392365051145 -0.00504733261592034 0.13367268179651817 -0.395680435226725
Ni 5.6128751547594256 5.048075987049199 9.943481122206682 -0.7936357825305558 -0.04802306484649794 -0.11096726977920243
Ni 6.886564392179809 1.0497328571762095 7.512182211776827 0.28941057092319195 -0.2222523279091398 1.2928985079263215
Ni 4.848352491230246 8.103204230845146 4.679620223381983 -0.6007127997131525 1.5114841856171517 -2.1497569458619497
Ni 8.627771658391557 0.8909274239121591 11.228920640564004 0.27253847775820156 0.6868241867909398 -0.5818874394765334
Ni 2.442544109607132 3.5848292892274283 5.575121903230444 0.30906099816426774 1.0095894219151775 1.0302844883706836
Ni 7.660149087280304 6.509675879133643 8.93433328642509 0.37454185347589686 0.5181744746986043 -1.1808156364854374
Ni 7.27488854506673 8.139995159021478 4.828989183770199 0.6689948719190028 0.9711295752770823 -0.189117493028384
Ni 3.9689398274344896 0.9622681524569326 12.24167672891643 0.12283599619233039 -0.7711167754924333 1.4969019169276028
Ni 6.3675261838967065 7.277878555483662 2.5083878190007787 -0.7602299533766003 1.117553900312314 1.2798676428842926
Ni 4.772893828338954 0.4226798325790637 8.441252048573773 0.10138965339309636 0.19615048861576542 -0.2602169800783712
Ni 6.51567430003161 9.15656190064988 12.600578259297542 -0.5535682808168659 -0.47281532983751473 -1.0197553067045857
Ni 0.8106378241903118 4.939101607392121 6.891841530564891 -0.22999340530713935 0.563157467167198 0.022310233461426094
Ni 8.66676139422834 0.7281126166798052 5.895189178316455 0.921404183027497 0.13884934090145118 -0.5550186401101473
Ni 7.794644355849896 5.371687114481676 1.9828553080921019 0.8734986175954699 -0.7265536441700777 -0.018015205630498004
Ni 1.696320309829571 -0.10463748454771946 12.323262613154418 2.0403783607261055 0.10888904709393506 -1.358295545274893
Ni 1.309854563417173 5.07713888830177 2.73764525771337 -0.2908267345444282 -0.6824566538508633 -0.27524687782830015
Ni 4.827118817254007 2.8066537781329375 9.020550466798102 -1.056744225224109 0.12655869645955622 -0.6083613173973458
Ni 7.976298988718533 3.7365194177023877 6.178415845053052 -1.5390708369861688 -0.818435615183055 -0.9852068793057548
Ni 5.2905336317501375 2.87395201259402 2.6115707784810613 -0.3588077305700917 -2.005815278039255 0.7287308543270546
P 4.575939542167682 5.926752648280786 8.188241047105874 1.714800081633105 1.674119058973975 -1.111921384616885
P 1.2430071305266432 0.8168938459857371 9.880114061441462 0.1150391258557309 0.3920775483668151 -0.2246935903607808
P 2.641108401387521 0.9783682085481006 0.8620255232204995 1.975754454098133 -0.0427931839061263 -1.5717202475900738
P 5.933091470364681 2.83181586579542 7.009189779395787 0.9119484369312357 2.06393660766202 0.12109201691803015
P 3.2963898843301136 4.263791654672115 10.55653721803977 0.8661460338851404 -0.5942752716179249 -0.3124641103085457
P 7.453599167678696 4.736949303111414 10.87395212388516 1.085482473699066 0.3688877405139131 0.13108435224405166
P 5.577353831006283 0.7291752203818224 10.764318101929948 -0.1765558543132895 0.5362431592748571 -1.4446334465411894
P 5.228415015334385 4.22786552950868 0.8398718460390522 -0.3152784398288893 0.2997844579583482 -0.36887925587348086
Ni 3.100098000466592 6.499896245062265 10.50048142274635 -0.38382970653572607 0.32406312800005477 1.3863807335468832
Ni 8.090296585876054 1.4446258329483277 3.32259985564333 -0.1442625414972225 -0.7430362152061333 0.022479412049438704
Ni 3.3910766142102853 1.3594059360497621 4.180802765546183 0.8784101959644743 -0.3163727013343326 -0.5969649026349461
Ni 7.179107011372359 0.30898675648246615 1.3493990611866973 0.6576581067499447 -0.04743428222256347 0.2599382724956878
Ni 4.120611555845345 6.100633254065401 5.59950750818773 0.7139783786082284 -0.44518059883938166 2.5165952600460013
Ni 3.2550081401597852 -0.01614329624181291 10.093389204473151 -0.6246937360087822 -0.24537837240364194 0.6667202169522131
Ni 5.612488753413238 5.08117770237264 3.0916588110652046 0.19971686581078507 0.9855434367095671 -0.06017152728357379
Ni 2.822128232044563 4.9431680215591465 8.548125140910152 -0.43981933452746835 1.4833349768764454 0.07260666772313303
Ni 3.2457161077871683 3.171425848966493 13.302221463760262 0.27128635051865535 -0.6350383124678999 0.5705234206139658
Ni 0.7228409983139541 8.963306027363553 7.7618260015136595 0.5029365747029274 0.48375177424436044 0.8233819034447367
Ni 5.683144999573336 2.174556375961627 0.34542992344722895 0.30478473938641704 -1.0789459581321288 -0.676191646777758
Ni 8.682613049454101 5.186591669625556 4.297168450953914 -1.4903779997661557 -0.3854443593210136 0.9163781905678154
Ni 8.888620167164635 8.461490279081973 12.955317695178287 -3.0381203963843935 -0.6329269225518519 0.18261157358906613
Ni 3.0120996938882936 7.520952602332091 8.287735713736472 -0.3220954627507227 0.5473482680490831 -0.9164041587097443
Ni 5.553985749593959 7.750631402512669 6.845022567451775 0.5184922630493393 -0.7173177273941066 1.7445857975359698
Ni 6.481983782656834 5.301398869603663 7.199493362396599 -1.2783216385534113 0.43139897167425695 -1.1248332075825467
Ni 0.13474642944461415 7.2969778220238135 3.444661280894514 0.7554227617959441 1.037685408820445 -0.6919244841319825
Ni 2.394869543513171 2.0069777921326977 8.180889301493044 0.8880330637662189 -0.6697620891023304 1.2568153890505194
Ni 1.9854589171628452 1.2538631683481163 6.122777731214796 -0.9745771675060506 -2.2003171753080037 -1.846861453078445
Ni 1.1163870893936454 7.26518251125177 0.8002261479169547 1.135485030869438 -1.5094378446110843 1.0192215456883027
Ni 1.7299832271081905 4.769692217184824 11.986727280695154 1.3585703962028344 -0.21618041068344707 1.7232548972686774
Ni 3.405465464339764 6.128656551696086 3.6037390351073064 -1.035509998435681 -0.09058690635063754 -2.507995177081816
Ni 2.259537072026838 8.059734079398991 4.986236131604624 0.7023078842488357 0.3652511722025903 -0.6381079525321591
Ni 8.738208843144918 5.7273511535836565 12.613867705596796 -0.05286856586425733 -0.47899883294040724 1.2755713295017839
P 4.311907822304578 7.09233230905699 1.8208823037925148 -1.1931137371265 -0.5303923569210349 -0.057191104499011186
P 5.3136809123932105 7.058347390656547 11.867062463793543 -0.25997941014626835 0.26911402545768487 -0.34179268406933394
P 0.6425615186273642 9.56269731558966 4.020836288237158 1.3806610574542866 -0.5210505106948188 -0.21721193727175495
P 1.1855621303933555 6.9661906695907 12.012499330482692 0.9608685596707065 0.39803479439151446 -0.5577514656602781
P 1.217992243376994 4.129406786487149 0.7194057063457016 0.33247706309536285 -0.006808281171085048 -1.2741618507487669
P 1.525107713340064 5.827061100964274 4.828006620347035 0.15113895690208162 0.44127355047549166 0.9436550240058974
P 8.053652858212557 1.704554338516197 13.106895583262212 -1.0251250556569313 0.3090615123849 1.163939686665705
P 6.372411400916371 6.244346954751193 5.019602807851166 -0.9429698250134146 -1.2643605483876288 -0.3397509710489568
Ni 6.540891587886406 1.4889515873753265 5.209986431130831 -1.02740176750625 0.060628155205018165 -0.8723637326600783
Ni 7.390900949243662 7.135581659733893 11.148667840970365 -0.481345478795713 -0.26523628766983354 1.3326202519959758
Ni 0.24881762685855288 7.4420071272930555 5.967712110979924 -0.9690379828553762 -1.277891235884212 0.29875807357636286
Ni 4.158156886649949 4.172407736298646 6.925395887465297 0.7635788152441754 -0.4475074472003454 0.913912245525826
Ni 9.144224657668019 3.448484814215365 11.101553556828376 -0.6268413784794042 -2.025221450480009 0.4628607897279642
Ni 1.8273103661873142 2.4133800080019876 2.3962090681799557 -0.018063285259614054 -0.559252732796153 -2.6248219909655894
Ni 0.6495995431472177 0.4032199247824702 1.4184085016094694 -2.339555781228074 -0.2049560027225373 0.9881448788881562
Ni 7.353318818310849 8.853558845014097 9.562483874846052 -1.5965815296081278 1.695049895589371 -1.1059996198158113
Ni 2.523476791569421 8.866972491746054 2.5148913216584052 0.8836585888476072 -1.4350861691723864 1.2029116970535283
Ni 6.724487427518033 6.580203324845011 0.17910162397417953 -1.2396285928585877 0.045333433829476764 -0.9718535979273004
Ni 8.882750546715398 1.9721004706232017 8.805350677061114 0.04621557932411396 -1.4220689309771122 -0.6799241172369969
Ni 0.2306834436806664 8.074831331996482 9.95862897498046 1.701384322447831 -0.9473869802445037 1.4062756726985974
Ni 1.0872045877243968 1.978549693091721 13.159504126545713 -0.8211067342573148 1.8852966171261918 -0.6536510424730807
Ni 6.881163973365229 2.591483428498515 10.044429393901513 1.1520956428429254 -0.8982028052103692 0.14255044390212224
Ni 7.955451716088484 4.1274379796280005 8.564108356594257 0.5275880547030204 0.2266417152260871 0.8036324887319515
Ni 3.534127912588327 7.545286687109885 13.085620509141739 0.10618758900237195 -0.48804885895781747 -0.12602287856074426
Ni 0.7259708492180772 2.8576127556694972 4.266481744044149 -2.166469887741256 -0.20217998263929698 0.9703050224932579
Ni 2.981702787988169 5.285952015788194 1.0688385637387974 1.583375572440815 1.2748262238056431 -0.07120670205181284
Ni 1.2162074371588874 3.6939600694293913 9.015474809114961 -2.1990758467017355 -0.531822147389026 1.164741356631394
Ni 4.796013508885871 -0.09985714789345036 1.2684222190705585 -0.7240002816206048 1.0626922152774279 -0.18172839965316445
Ni 2.469693404192868 2.3343057325142227 10.905028912153938 -0.4121892315150256 -0.269102198383143 0.05690699759968909
Ni 5.177336437381148 7.551358708264269 9.619980395158832 0.5245916910788578 -0.24856294077921065 0.4626273335609194
Ni 4.503397289436904 5.009831453808634 12.248248311811242 0.16630718000208775 1.357411600008043 1.2022869189853358
Ni 4.1945798135441965 1.8221307481419844 6.4078352043297615 0.22231352016437844 -1.1485722030706993 0.08729640852482386
P 7.458337184185526 3.457712446363617 3.2239138718301112 -0.2805898873077684 1.6329865505997232 0.9751813767489528
P 0.840525048314751 6.76656837412432 8.303799889702637 0.1820780696830993 -0.9397256070445041 -0.6367676364541809
P 3.1302281054372068 3.4455408039586946 3.618671607131063 1.791700234525269 1.2539298399726082 -0.3852656676513042
P 7.68826438523151 8.240505509190626 7.130915403477069 0.42072220868670124 -0.1578626487791604 0.7817367171001246
P 8.23011867300381 7.449256752550107 1.518642850817056 1.3225834365852642 1.18262055090466 -1.0099712307346285
P 0.4577981949283247 2.6141339074107757 6.600145314321134 0.7530388349447998 0.5755563550521829 1.6025251487860723
P 5.91447980552329 0.5135347491095381 3.224748314737236 -0.3719617514535465 -0.23871741544369857 0.3265601833902957
P 3.615152594871137 8.827292753505365 6.509672199120823 0.12248298372828584 0.5673496508716745 0.15680386849734287
