# total energy = -340892.1260023047 ev
CRYSTAL
PRIMVEC
9.11232459841379 0.00000000000000 0.00000000000000

0.00000000000000 9.11232459841379 0.00000000000000

0.00000000000000 0.00000000000000 13.33680813766928

PRIMCOORD
 96 1
Ni 6.266737009654803 2.174565150670144 11.391794510839098 0.9346610480374032 -0.7311908858317729 0.4031993693115895
Ni 4.434120953202091 0.5179463546644365 6.213165653131211 0.8414081648188283 -1.245483766087784 0.06707879592636834
Ni 2.9125540981327394 1.5853166782091783 4.795356282507493 -0.44767636867804195 0.00205971074250613 -0.549145212048506
Ni 3.536566089072613 4.725123040390537 5.161358268828967 0.10055584463789134 -0.7549381088500418 -0.9483953669043603
Ni 5.305113391023307 4.687069972718737 2.6577188274168435 -1.3824726567417287 -0.6819827995382384 -0.03111291935472061
Ni 7.323219927726779 6.044250491389792 2.4206844828735687 -0.2874462481079694 1.180816664926702 0.5089838093382718
Ni 5.292155665393684 4.753389471405367 11.35293135750733 -0.526521561111719 -0.41045373688115766 0.618741117969773
Ni 5.596798902559308 7.80232773233596 12.588800409557715 -0.4382352778698001 0.9281952378074015 -0.26872810287317594
Ni 1.859716109914383 6.39228661846277 0.542512270645377 0.13140496880826402 0.6294993849275416 -0.6816344150598842
Ni 2.7621278430738103 1.500635845384934 0.5355905488533512 0.467175357942918 0.11581251368664569 -0.7088456853673535
Ni 0.4725688004517849 0.04039220140536184 4.93736639453441 0.12200450142997052 -0.6531563622248493 0.3289327973875303
Ni 8.863931776852274 2.4146384554788756 1.6234626915922463 -0.3435441195428019 0.47029024942281583 -0.26644702014848304
Ni 6.960549407291515 0.7203347297165827 4.81616154211196 -0.6339479076171984 0.28986771306526854 0.690701667468475
Ni 0.7641713898336161 7.57804608611804 2.82324238192947 0.7809592155041518 -0.6847122826542594 -0.5367344970889788
Ni 7.781925237480318 3.97865051869364 3.642962502732266 -0.794761668604883 -1.1093837057966958 0.44459361598766006
Ni 7.676158485452877 3.890616350404065 12.614580087179911 -0.06915907549416477 0.17288894698466353 -0.06594185410844772
Ni 7.795274793069204 8.911753256531778 6.977711559507288 1.0701335020468214 -0.2287127388225029 0.12121748675230093
Ni 6.829268146288729 0.8264769095189459 0.3152618290616836 -0.5191669205188607 -0.5855273502219659 0.18680812816891698
Ni 1.9212151888695992 6.413126504900847 9.53002995034698 0.4310089353246899 -0.4143402164197574 -1.406612487212726
Ni 0.01993321013698852 4.978390991269376 1.3633550298430885 0.5678057645724867 -1.0974725561814067 0.08737816960535273
Ni 6.332518881188023 1.9100617035175198 6.9719097424127865 0.21371086609703194 0.9526142900817142 0.13416067717653024
Ni 3.558545016089946 4.512824101066396 0.6998866732377703 -0.224128204775614 0.005250192655345797 -0.09364626200225162
Ni 6.005942278628238 5.55920145111921 4.744662598103336 0.28908301238044404 0.8466305895600321 0.6824180873034441
Ni 5.450555204507409 3.018202389939937 9.368534043322606 -0.669555372408163 0.8531779037602467 -1.1454287723457113
P 0.15802228887387432 5.612945941810848 12.541694247361985 0.41501255989643365 -0.6635937555080894 0.00398443856904475
P 3.8999109215307977 6.188607938242441 12.663672736145866 0.6998411678758979 -0.042395691357391505 0.2657448518751359
P 2.1335688021415447 8.497607214238753 1.2482235417892331 0.7346991560953476 -0.0926630721533759 1.0055479048559521
P 6.374143980116373 7.8702145508596475 5.7692232205173015 -1.6484774471464705 -0.5238134181519366 0.46859743510142515
P 4.701075615681274 1.1294544137414642 12.5731955536219 -0.44443806424640236 -0.4635645006632081 0.8143254496694233
P 4.297636554833261 6.103152557824303 8.388185508800595 -1.2428936367631045 0.6322365813530466 -0.20692443930281784
P 4.6670137461991885 1.1099904883231295 3.550845101774172 0.18636358443233064 0.18807413936553416 0.9422386032743449
P 0.12645537387659175 5.641777336952988 3.71119376712712 1.2958079682636328 -0.5166297559193038 -1.3373567382396967
Ni 1.5263781624761306 0.9524657323742743 2.8738021151615065 -0.8187091805594158 0.9065015548840517 -1.0864332676481097
Ni 1.7526189584903713 6.657191007899293 5.0157597233611595 0.26309867250154045 -0.018306768728987826 -0.10934284680190202
Ni 6.189637630926089 5.622349860833189 9.384352127654855 0.027962032430564745 1.1220746710008032 -1.1174703394595722
Ni 8.550458697116254 2.164915198882683 10.003032497451345 0.4735038712641071 1.7711764035403044 1.3729374635577838
Ni 2.4425586181576104 5.2053060993065365 7.21167869557874 -0.7246150323864682 0.15723761360065178 0.5851000328765601
Ni 0.39495184168385766 0.16546888056482154 9.532136719802374 0.22353119462156343 -1.9215383730670457 -1.1631007357041776
Ni 1.510595616209953 1.0121605710519481 11.4758165225923 -0.15349331606687114 0.65333762499772 0.4178364024984739
Ni 4.251601090782031 6.835446302390616 1.6191152015093404 -0.3892015123706007 -0.01796378356727229 -0.5930380567767142
Ni 5.730768299329139 8.093320707199773 8.01731571865961 -1.0182267858752012 -0.8779941914729781 0.04716765882473812
Ni 5.224123049675853 3.031971112461989 4.694116533358249 0.4879403584044112 -0.6060311266022723 0.17123058544563413
Ni 0.8368604034394481 7.741174921716837 7.490898547015359 0.17792548096730645 -0.6707882163739995 -0.8731517757790125
Ni 5.151242677252706 4.503766450380149 7.15401043789968 0.35722547368463636 -0.03918284084704864 0.021316759199905225
Ni 8.030318094679938 7.232889453629423 8.82261831942641 0.43987281347322316 0.3706468892968649 1.954467005474266
Ni 4.763695510566479 0.2205984446008355 10.467207024450241 -0.618703065642986 0.5159697537378016 0.4015137540790505
Ni 8.09556233905975 7.081606640054893 4.7353935414855775 0.43345199754854385 1.1197740478920846 0.017672991799730853
Ni 7.358220366646173 6.138599500650765 6.938207809753746 -0.44522456470343963 -0.6162767155896806 -0.5850136438103409
Ni 2.4087063321421076 5.46164490358705 2.839019460800867 -0.7891229822618667 -0.654005340488706 -0.3171520027025183
Ni 2.435277870775003 5.042377734849689 11.522201899909478 -1.2519580609582182 0.5076663760784289 1.1227346731823051
Ni 1.0263028988839968 3.4011022710627974 3.9092720126273592 0.8334359452466291 -0.418144420657196 -0.7677499159027293
Ni 3.4511927195761802 2.8492690035492485 2.678897692331307 0.5350540240627624 0.21415515272330213 0.2618187773478523
Ni 1.2017333727387638 3.185367985351619 8.24752219835459 -0.06762849778225127 0.6348817322853776 -0.20700979992777252
Ni 3.631881004744795 2.6406423310526304 7.240353358737175 0.3261804314533738 0.8595118163980746 -0.01409015954447896
Ni 4.174720407844535 6.813412701425478 6.207937001256193 0.5307631099968924 1.0566110420803545 -0.0004185755946573436
Ni 0.5665268909859573 7.316075865213683 11.258346339038335 0.051837553496581694 -0.5707643329801783 0.6208224259788341
P 0.365784201762721 5.533322449158502 8.17147529312111 -0.08785665190366804 0.5766195062093746 -0.7441181354164024
P 8.704201838341978 1.508326647376074 7.9195031148052335 -0.22183503786606312 -0.037151926459948914 0.19637648858364243
P 1.7374013763515046 3.1400979565696487 10.477916739592644 0.144673403782396 -0.6808296597704017 -0.33012810324721203
P 4.115353612853687 6.363491672619166 3.8078992235384588 0.02691790743676654 0.15980820254130543 0.09380901283236102
P 7.184120292187977 3.897076988569608 10.143323113819818 -0.6396971513961499 -0.022867391516476748 1.2436587970639033
P 6.448108719170971 7.755754641131321 10.346655525704051 -0.27546799270017075 0.4584127812589395 -0.6930087183350968
P 2.489186383310054 8.37563874901197 6.033478812439879 -0.061417226765216805 0.6632250593147611 -0.3333108718505679
P 6.944566389883387 3.9036651992800273 1.5460562275233658 0.7166888355608559 -0.48908372798023514 -0.726464169780065
Ni 5.31800733038049 3.0611123266416866 0.21070519374564536 0.4287337661372681 -0.5036246019088875 0.48996021704791753
Ni 1.6494492189836356 1.0740605922910629 6.8497982136892475 -0.06596550825753156 -0.015533833969540991 0.9414544168101528
Ni 6.822424790488555 0.7182343388884338 9.214121146236279 0.48068984748958504 -0.08981608962288404 0.24653871126033025
Ni 2.5748148978962395 1.4072345178859023 9.135646717720286 0.2774073758147287 0.3565724134816698 1.503708912547107
Ni 6.525517916937242 1.6968788687038756 2.6187089656584677 0.3348036543460105 1.442103481030484 -0.2816774639449923
Ni 4.1641956728922045 7.046013900034287 10.592519712817724 -0.07297407836488078 -1.0886595858754669 -0.6536872950276549
Ni 8.265625653705062 7.271771742842923 0.2995858969937242 0.15832621867914023 0.6208206262066212 0.9186127363252888
Ni 7.959214625560432 3.7929048933531266 7.858487900288085 -0.07281775529267459 0.21170669118280958 1.5783043285654945
Ni 3.031615731801261 8.37543827787002 12.541707915848935 0.7415020379497939 0.0021828665839317245 0.2696184758979292
Ni 9.090974457434312 4.73326945861338 10.316034470003785 1.154266168131683 0.5058655754242644 0.2854454156278568
Ni 8.938251896567602 2.383674776372367 5.950216768561157 -0.6636588044180699 -0.08577740077713614 -0.9252862916907226
Ni 3.7451836492445967 2.913082612961514 11.448956123268504 -0.20105898166097635 -1.2638764096623587 0.6839077844750932
Ni 0.9249100626809013 3.186106083646977 12.57358282741885 0.06168487860430667 0.15700595720581992 0.5555423738241013
Ni 3.1254362262334596 8.449129647185599 8.146322543433737 1.0487372957592327 -1.0912877675269335 0.8184183887918743
Ni 5.828835137040805 8.087816863120807 3.5852404823378645 -1.2884993504173614 -0.695988369788711 0.24808651536342435
Ni 3.232250895593816 8.510173109909111 3.250513816625382 -0.0250775117939181 -1.1295712364881643 1.0418693649948056
Ni 3.398887976176723 4.322677222927635 9.515092116574378 0.505269336601162 0.13211690727362407 -1.4416072581203558
Ni 7.271799079816825 6.2799134310756415 11.717960147557887 0.7531776745155092 -0.7633677276746337 -1.7872200872667283
Ni 0.45306386957259676 9.506159304735618 0.43925140789230094 -0.887437082053433 -0.185204531127223 -0.28649211172481626
Ni 4.832156405542111 0.17521360052847665 1.5611936212054527 -1.0653782467500232 0.8313548943478843 -1.2346434809391704
Ni 6.050301074946803 5.542999737919865 0.21695260351475132 -0.7549653625435514 0.14403756997060999 1.2388935144647761
Ni 7.993622763378612 8.804428296991915 11.528817447593799 -0.8869930525374788 1.1123947247088777 0.23361814654392024
Ni 0.0808600351051863 4.818597266486642 5.699071989322053 0.0244560761598353 0.24421212000968262 1.4301334531528016
Ni 7.925362339544929 8.733643759234601 2.5178291533322694 0.019680766258379008 0.6068510514004064 -0.44684873057042396
P 8.582488518204947 1.5190427411457188 3.675878041775388 0.6064692425809555 0.8129200846814646 -0.3494064918608498
P 1.817052205977752 3.3651268134075605 1.3753186008551355 -0.7056947984431976 0.14079566599454463 0.5262006874371906
P 4.703526831007834 1.277238094656518 8.517539513143278 0.14360665308077847 -2.235963463756704 -1.347802616163369
P 8.269780873738188 1.683046359909385 12.393948838210394 1.4386016385248128 0.5588359569737086 -0.3463160258609842
P 6.278209426369075 7.714749180278088 1.3304732064011124 1.5993071560694068 -0.3700470509293369 0.1864790269642724
P 2.0553941691060134 3.2756711224750727 5.941521788395345 -1.4224669377464791 0.2662346470273609 -0.23927920148443954
P 6.98692047478246 3.981912730912631 5.993201426324907 -0.42880498569483566 -0.3076561473969411 -1.3633415923392327
P 2.275165214630077 8.34159510417915 10.432118195981898 0.6689550198200027 1.2062811277463936 -0.8883451956899991
