# total energy = -340889.5593380463 ev
CRYSTAL
PRIMVEC
9.08015262799235 0.00000000000000 0.00000000000000

0.00000000000000 9.08015262799235 0.00000000000000

0.00000000000000 0.00000000000000 13.28972120695962

PRIMCOORD
 96 1
Ni 6.669236012042338 1.8556200214040754 11.582284215659588 -1.0896003525221813 0.8585054866207472 0.638025934341314
Ni 4.627382057192396 0.3477535070646778 6.047753127392785 0.3954742327531899 -1.9797630610368937 1.0227892084349028
Ni 2.795624677284943 1.4480846044895241 4.944892299404408 -0.6901015719906308 0.6755105615503334 -0.3194315427653144
Ni 3.5274849910702653 4.09449513119836 5.2516988575234915 -0.6187940826948956 0.9407018549148444 -0.6883300819125049
Ni 5.140065643258734 4.46780745229831 2.423115041690435 0.08569383992439435 1.4143198831593125 1.6653413127813448
Ni 7.1801035675533775 6.136594250173268 2.575667964442458 1.0756222930755346 -1.0459407068507018 -0.21516173961094556
Ni 5.032701916829482 4.735962524093696 11.438410102931336 0.07941777710769549 0.13910979365168946 -0.27327098504885194
Ni 5.758578409935096 7.761287826165578 12.380212629061948 -0.5670562880009717 0.6329269225518519 -0.4462946578391669
Ni 1.8501174488215206 6.5480976938511475 0.1900920903605998 0.21602511605250535 1.589235887876334 1.8008248225343566
Ni 2.708736695366683 1.4141520735637703 0.46844962181565347 0.6158203447785523 0.41357557033959097 0.3733030959727893
Ni 0.5666696343989764 0.11884648763040409 4.596569466760645 0.6906543591703073 -0.14668863444021188 -0.07387499291259536
Ni 8.386519905896545 2.2362327853363255 1.5361584543603939 1.3675725997014447 1.0975445470699225 -1.2113793682049074
Ni 6.92870137763062 0.7456448937153161 4.804260709232643 -0.8922373316555536 -0.6142411732168905 0.8177532444040497
Ni 0.5909781113969255 7.32086409589457 2.184099088170092 -1.3660067978762218 0.7024202414569839 0.9818485043564832
Ni 7.641457049974202 3.7365736690545654 3.728351590715451 0.6197780438747197 1.5419296465912025 0.3629317800407943
Ni 8.186475060077631 3.838561945040133 12.361341347546563 -1.8098511944026832 -0.7023631629668033 1.426481715332827
Ni 8.35668252387299 0.022227305981576802 6.767258985310411 -0.6725864459250029 0.5017371550781875 0.019094554737605827
Ni 7.061589413514594 0.49765048512957677 0.3474947227105477 -0.7363210079694867 0.49571306037129464 0.022002729523336297
Ni 1.7200987412149198 6.4750387846114865 9.268490581337014 0.53998000060947 0.7176301164282028 0.03875423795006229
Ni 0.19663252440550757 5.101665677166945 1.3485479697536096 -1.7669327977726021 -1.7854964197074021 -1.018368453659388
Ni 6.66288898525157 1.8571091664594201 7.174469332755564 -0.366456248254285 0.9423193359136093 -0.9377489429341076
Ni 3.53384109801381 4.57538002224142 0.11249219671741441 -1.022988983150535 -0.5187966816636356 1.329749358206084
Ni 5.940680873867659 5.411553131123092 4.820141896438729 -0.46499146291772175 0.25087513385215504 -1.1650457752456902
Ni 5.106977566541193 2.8881605142301816 9.480262444466769 1.0507900645232033 0.21762434221882518 0.06755547845247076
P 0.24727162842473047 5.614049618191658 12.339346493476063 0.32201498722177446 0.9223547198662243 0.15572657627276407
P 3.945889350858278 6.524616418771137 12.626976676946471 0.34553235361742424 -0.44042997152827373 -0.22170776825957947
P 2.1051516998548747 8.736659677110886 1.7112510403495051 1.1660860435847467 -0.1365111796865778 -0.17255624623559315
P 6.44595505526838 7.8638753922343945 6.008402469305299 -0.25413297866782036 -0.20869335827778254 0.5110754017599779
P 4.916139995637644 1.1846512121379138 13.060314255990706 -0.21753718182165763 -1.359027538344911 -2.5710111157927207
P 3.910839961141016 6.195787766123225 8.049158633684563 -0.6780526112458968 -0.8623518569500309 2.274479874664347
P 4.927226862177742 0.9261755832022689 3.835307618285038 0.018681892680219442 -0.5404859937116111 -0.0346903522933338
P 0.10012321260527586 5.428378654217934 3.5959066662869716 -0.35434352415115106 1.4397401230046303 -0.37487352578370275
Ni 1.468978036028234 1.6378779578237772 2.526933876475743 -0.4873181514393801 -0.9502442471876409 1.2405323356197795
Ni 1.7896345511773017 6.499927483371853 4.622696698359724 0.4038755694430077 -0.33847364699843 0.12637280570099527
Ni 5.958959221406739 5.393374665264554 9.131367562198086 -0.040174001115724355 0.7422777397735539 0.38337616393807517
Ni 8.692857020117083 2.391893844383742 10.427115351571667 0.7110516918797367 -1.2588874410881996 -0.015059722546599869
Ni 2.1299586772402535 5.295118332070125 7.113708582436385 0.07629748631115892 -0.7412045613140332 -0.5443344209234239
Ni 0.5710953008622391 8.70071135226875 8.93467964886064 0.7482799801035758 0.020899469156828523 0.49871070954703783
Ni 1.7005673325926838 1.204418704732339 11.587587024881058 -1.1603478555493887 -0.11209084186068437 0.08593398095965846
Ni 4.058510485745119 6.93590193878238 1.9811122728515944 -0.19941836073375976 -0.08223853438594224 -1.7126141297253794
Ni 5.25777166370041 7.862949216651192 8.145509042811206 2.0156520616240186 0.5427837886068523 -0.3664778455208398
Ni 5.128642811065905 2.4533573985278223 5.297216755376772 1.304323976154444 1.4791965292280398 -0.7266922266304711
Ni 0.7266274217402295 7.236400514767634 6.704930092606731 -0.5380632432027315 0.1201337667698189 1.0111688505871554
Ni 5.050408214743643 4.600704568335059 7.070596925068875 -0.6851704532376006 -1.242011234158151 0.3288420374459369
Ni 7.7059079743817485 7.443673162196635 8.477513024885058 0.31071961681361326 -0.6107940952085545 0.1979870276038719
Ni 4.69069796250288 0.6616825370216421 10.66227678023839 0.3001446695112444 -1.5103423587032248 0.3513641298078529
Ni 8.199232674728604 7.316442061492418 4.8757196955530855 -0.595898923264277 -0.7567371097319935 -0.9016090026784408
Ni 7.097991745995553 5.780062051404277 6.844259588870348 0.6761962747634483 1.166958418887371 1.1985349081420713
Ni 2.128424131421026 5.631174786328125 2.3929335218766505 1.96380370949416 -1.4379817455526267 1.058493346704732
Ni 2.343660072835012 5.5400100524521365 11.534321940678874 0.5472027436101544 -0.7273920809109732 -2.691138454804636
Ni 1.509130471605885 3.655987313163192 3.910221602736937 -0.842977309078161 0.10322362127804158 0.10670849450284849
Ni 3.8456626245113505 2.6311195494332225 2.966717455976009 -0.4590560712698933 -0.04458215748574902 -0.043574285046524955
Ni 1.3118823128421315 3.3187413588914714 8.377122855788153 -0.6870782117832749 0.05105131014986046 0.11002881712533309
Ni 3.6050385759342904 2.5992936139516147 7.0862792569291555 -0.4016273968387793 -0.3314712475386678 1.7763044687954894
Ni 4.0482045123437995 6.712185134675149 6.048830033512077 0.39622808020007894 1.112569045503213 -2.008510565483231
Ni 0.7173484136179314 7.609422270978736 11.540834226250174 0.9437900069218649 -0.2770983292147421 -0.9290987234582773
P 9.136631326762616 5.518744334649591 8.153761993669761 -0.08846883156637021 0.5547214205847028 -0.11794987174462268
P 8.850234228039257 1.5182469449934841 8.407130944683907 -0.957322494190661 0.6384931037857197 -0.9155253556492168
P 1.9352802017122468 3.116362913808999 10.520940570211167 0.2733344912969357 1.012524079063469 0.5780649804066497
P 3.9258676139861115 5.790640429388891 3.952243641771268 -0.03912884768066164 0.685735067491819 -1.1154725923032531
P 6.902241812439921 3.8832998577699134 10.545194566292457 -0.44316613951251416 -0.04802820705282051 -0.34841507448185804
P 6.353255775573165 7.75561273068027 10.14348588341458 -0.33569119915728635 0.16569114368464366 0.38680395867270156
P 2.3206872863104855 8.322904355544436 5.716945909454876 0.380818430513228 1.5387941862860144 0.06557238658417094
P 7.077824726678963 4.157883677731057 1.2123347819228851 0.08832073602428016 -0.4353769824853986 0.7822609650347108
Ni 5.099885967222753 3.0120864393237556 0.6897747136815556 0.6402874766819812 -0.0017120975951002773 -0.5377637096844415
Ni 1.5003318035654636 1.2190377507024923 7.015896268712726 -0.322871935905431 -0.8504404502244257 0.1756207440935298
Ni 6.85732229665461 0.8367197340788168 9.238137446635754 0.8587158028593405 -1.0275848300513335 1.1933572205958738
Ni 2.816354666073676 1.486402849206324 9.371140800459987 0.14810222695828684 -0.26437316833858987 -1.3535806562977268
Ni 6.429892265006764 2.2249007546712622 2.5712949628652995 -2.1440987191349077 -1.2053048798760533 0.6196438322897005
Ni 4.2045284225439 6.951238316821875 10.24365086472263 -0.3722535716623524 0.46471378377630285 0.42097597656872016
Ni 7.896327858257579 7.067364390680443 13.299555397299905 0.35914531641516856 -0.47029076364344813 0.41621969283065735
Ni 7.850355044750197 3.7158890810297147 8.519296255901367 -0.6749292351255667 -0.11191137886002664 -1.0802011706954686
Ni 3.1638521128300567 8.475959410744998 12.367640249527616 0.34150729161843124 0.40869433098788965 0.2277624590940916
Ni 0.24081473178536641 4.686947859406188 10.325741801929068 0.6531419640471462 0.5471289529494254 -0.5823718353121196
Ni 8.662048061746443 2.530211811628057 5.70731095934374 -0.08428641805390645 -0.33499828685531985 1.0167741125890748
Ni 3.853707639871323 2.6417342480289423 11.703938286528482 -0.5205221489951745 0.5233120530354858 0.24289442963952362
Ni 1.4338378447832067 3.641640671776333 12.732137558312147 0.2594615899695854 -1.10582504191116 0.5440965938810048
Ni 3.0060299774218344 8.303018820963917 7.76926383236445 -0.9436419113797748 0.337060054480355 0.9899001710163662
Ni 5.573724659711255 7.573274182775518 3.6195886127433425 0.7856280817347309 1.023081285754025 1.3540298280200036
Ni 3.2917006639230757 8.497052605644793 3.700802407191572 -0.6987013978444999 -0.2301947226846681 -0.25459834834001316
Ni 3.4101330965868715 4.4766969218664965 9.375805274941273 -0.3989830172373967 0.13198012458544367 -0.1699154661786364
Ni 7.385505703510423 6.024154718341958 11.111430169388717 -0.06804295961185054 0.33640108074011743 0.2973928177977201
Ni 0.3150059360762564 8.871272942022392 0.3123418192516334 1.316922381644745 0.69058776759843 0.30532364260902256
Ni 4.8190459219986055 0.34870692310620954 1.7235437511783211 -0.3803841711892868 -0.5993963948945741 0.17065594388908673
Ni 5.655618557602444 5.627243080175903 0.39768435916733424 1.2774495203611034 0.8607608583138272 0.08891234686169204
Ni 7.880855277926436 8.8219041513766 11.325381269184831 -0.21103126238233977 0.354861344327834 -0.042950278309280866
Ni 9.012750802432926 5.017592542609398 5.738196190997702 0.7478873726508475 -0.9780743820260317 -0.05099371743904766
Ni 7.815696101602323 8.953757049844052 2.739356786559572 0.48918862898921556 -0.5327348890112825 -0.42935340199913796
P 8.511353846267768 1.7277623901582797 3.7345315426951324 0.9801595466898345 0.2995242623184261 -1.7180142176950282
P 2.218798892005459 3.5130384680028652 1.7378704162290717 0.09732576773636788 -0.11751201287625569 -1.4871620639320193
P 4.894347628974061 1.0175491605921163 8.429723272807097 -1.1424259809636454 0.11326249357128235 -1.4828958324564978
P 8.833799151513805 1.6595613626540422 12.685769758158985 -0.43941669977241093 0.31834628012093563 -0.8364055693979143
P 6.4233273145493595 7.840702842348785 1.444167426581745 -0.9485604317273147 -0.8867264291396535 0.3036861070055996
P 1.6113185109525356 3.2180061439890597 6.112514593025287 1.2869217215175965 0.3091622996288224 -0.07184896362150206
P 6.806037593772979 3.814899066904593 5.9572376244403165 0.8654862888139546 -0.9837884016916734 0.202218034966084
P 2.3778740884968372 8.616565576488991 10.264316384426648 0.042535559369365455 -1.2010903275740734 -0.10599089961053358
