# total energy = -381168.7187571137 ev
CRYSTAL
PRIMVEC
9.22705010233781 0.00000000000000 0.00000000000000
0.00000000000000 9.22705010233781 0.00000000000000
0.00000000000000 0.00000000000000 13.50472050928348
PRIMCOORD
 96 1
Ni 1.3917990330855596 7.2115764390485735 11.55498981906393 0.17052918850323534 -0.31097209914405155 0.3879133896867965
Ni 6.738597843088869 8.286712334507502 8.456764102551954 -0.36963438887195055 -0.4267704717633101 -1.591586904607014
Ni 7.364782381446446 0.5590549796532134 12.656489242505225 -0.4222476441922922 -0.15954543579822203 0.9396826696217107
Ni 4.721204802861914 6.895171658829022 9.734891412752887 0.062017065132744804 -0.09614717404723441 -1.1118969591368528
Ni 9.080764598114687 7.966146154623928 0.4146977784477985 1.1686990557275614 -0.4165601068892117 0.023778847587152596
Ni 6.739917311275023 8.503990913860978 10.637101314013611 -0.3095765043481056 -0.24925225353675137 1.553861622142098
Ni 1.339970691815453 3.836579813973021 9.663559855363387 0.19868431078121265 -1.4540377705742247 -1.4370317229345315
Ni 1.9559777937441656 0.22575731583079361 10.543229918266515 -0.3358292673970475 1.9479212339359484 1.7083355569546839
Ni 8.76120416670867 6.328944493014289 7.648749466502198 -1.071349890952426 0.6851120891958394 -0.8773691562944695
Ni 7.010786598496894 4.931323191219199 12.521792762914517 1.6466745896097772 -0.2672443192387978 -0.8225054143770544
Ni 7.1549038963957345 5.688670248920652 9.300174626076563 -0.6291018923788069 0.38436089644884774 0.14324567019693393
Ni 2.137409282865423 3.242025603882121 3.1033984008837097 0.09563526740782238 0.007649289015141666 0.19655518025335184
Ni -0.1067172951090743 4.761499331315992 3.8405935808329983 0.12275397800148538 -0.6977140942305661 1.6497766255738684
Ni 8.928841215701956 7.037545044230081 2.5861945530622252 2.423982067293954 1.175584469993485 1.6443089175910777
Ni 2.496156996695179 2.022200333408676 12.321680187851392 -1.516245097340905 0.2988912567201175 1.3690491842469714
Ni 1.2364062797777686 5.123891729995614 2.0277337954452936 1.0612053463192563 1.4886833856725523 -0.979572563838113
Ni 3.453998629340223 3.9196601744494384 0.3283528875919319 -3.839828671510439 0.631757584834099 2.3522032947887554
Ni 7.731732942950961 5.323980314728079 2.0961754406956077 -2.3281256850142613 -1.3432846736883575 -1.4709111492907958
Ni 3.383900728569527 2.932559565452693 10.585176088715848 -0.13637465410871352 0.22644194051045516 -2.6283837401749186
Ni 1.9589304498250688 3.5634775805899674 7.210967453731887 -1.035201466056327 -1.6585721123783115 -0.21845557987086892
Ni 6.394179738301747 1.906502350288529 2.7415393257087017 0.9014305681190475 0.47145933003025253 -0.3887479697729499
Ni 8.45653619441071 1.2436956494774984 1.234917956571988 -1.6763908857272871 -0.9108446623440959 1.463407384714583
Ni 4.022274200311082 7.278583277984573 6.545940724630028 -1.5844544073272906 0.05856021693239592 1.0693860823578356
Ni 6.740812335149547 3.142576456257196 6.944775358283173 0.07196389193281155 -0.3627805991749107 0.11807019937257086
P 2.062799354521097 7.37391716119674 5.298563482101653 1.0570165050488893 -0.6120480222203136 -1.858123913366142
Ni 4.801581637614255 0.9717283432755425 12.356927519817178 0.3973884190567672 -1.0944977898237989 -0.1673857577782472
P 7.829392042826839 0.6203964097339802 6.91892762240994 -1.771509104289375 -1.846190909373982 1.3037781309533032
Ni 5.383771600366372 4.879504076999345 6.054733168190847 2.3544314127883257 0.6643337189979074 0.07732644179630553
P 3.9564022885561796 9.024599543225753 10.402956609503 1.9006867264290168 -0.7187565167231622 -0.24111059826622344
P 8.31575908870339 6.828284771546309 11.377753869692631 -0.7119482355520772 -1.047192834090248 0.6668523716547031
P 3.049955325819359 2.0458308091061554 8.487865720839144 -0.539273975681381 2.325222138214221 0.7735678081360872
Ni 5.8359801062069705 1.0978990284326433 7.576634532546236 0.3736391391559694 -0.10296136875559041 -0.5571963644877566
Ni 7.7852221532665755 1.5711175276989209 9.243765054355931 1.4638285314124013 -2.502446736459761 -0.7374381522930654
Ni 4.780331740882004 3.2630817325590633 12.40896162430792 2.2521377595237215 -0.7040744892309552 0.20420086972406767
Ni 4.561336930181504 7.666986731326903 0.8943835172362795 -0.1790264273409691 1.4326783310618423 0.9790773693692492
Ni 6.81645569312219 2.508604287486237 11.557028997169805 1.14394653137323 0.5808489709096899 -0.16959407828347567
Ni 5.279736608765792 9.105262416535933 2.928458141615313 0.4876716781240569 -2.204997868613125 0.9934354378631342
Ni 9.229357015386148 2.090508186430324 6.6963158080103335 -0.4452253360343881 1.6116425377063084 1.6005597975295853
Ni 4.183876758439023 4.5252038013914495 8.190707644741956 0.7020631152278811 0.10553761412319888 0.6903139451117531
Ni 2.116196294334183 5.716683573488224 8.000250255063387 -0.46402884189413635 0.9881217389597047 -0.9795165137891969
Ni 0.1493914798233551 0.13587754202307062 5.458824427122833 -0.553870128328001 -0.005721218754493372 -1.0164632662168753
Ni 1.0205671202637343 1.0586563837073875 8.64160314133158 0.06998722782241495 1.0009844538549857 -0.18788156373875387
Ni 6.777093096743648 3.8143426228637174 4.182736295027774 -0.906913959831122 -0.3459612136247268 -0.6844870540173309
Ni 8.752945956732393 2.0984434496477515 3.6795095829292666 -0.0668067732119043 -0.6208530221064533 0.290778397804996
Ni 0.2642959366217592 2.0802015712979207 10.836269039130842 0.43272694645706117 -0.7204848122681785 0.3813159389749369
Ni 7.742214872038168 5.005139593241782 5.849124039292118 1.1225492966443764 0.18430798745488255 1.3362542492041374
Ni 5.424139945222472 1.5383061369998823 10.000664600120123 -1.2542908228564527 -1.00754308090911 -0.28433752727565864
Ni 3.750011628501036 9.434105260496288 7.998454671084188 1.185081610850643 -2.334628776240102 1.21629968832466
Ni 8.634276863430836 4.217758486967389 10.680127049342522 -1.7419483599131225 0.5062939212109345 0.8227776942018347
Ni 4.585456439542384 6.718289105482406 4.342713046901168 -0.2306986589042801 0.47868541546504656 -0.6072562572586251
Ni 9.037212920921363 -0.37580945245225084 11.102298738495108 -1.2018878837747045 0.7066278517804282 0.24131165853343603
Ni 0.3929763794476279 6.214224577220942 9.655834968891725 0.4820101089629054 -1.1017704122258123 1.5146173319294947
Ni 1.6453768281336398 4.6414646345770185 11.940212708184111 -0.10233042003981085 -2.132247733333592 -0.806508781838482
Ni 3.6806149835495545 5.208743684120573 2.6785130362517697 -2.3223589577338135 1.8096043684991998 0.8451637752065186
Ni 2.2632939294646865 0.950856755603657 6.54442841109359 -0.8700196579079339 1.2519410916773537 -0.6963274982956845
Ni 1.5424306284628941 0.593469108981167 1.9417496822543125 -0.5503016942504523 -0.12987979041298925 -0.3961625170694661
P 4.046707429380557 5.317927369762227 11.929570228422506 -1.2971110033457725 0.5479144249651983 -2.00034191362951
Ni 5.16542268318357 5.584838252425636 0.09885677099869444 0.6768645044750666 -0.23795662601827408 1.284177583113556
P 4.3397585454102146 3.7338642905585955 4.47044033543592 -0.0501064297380879 -0.5165179129317878 -1.3649451893809266
Ni 8.84668356025082 7.078005659588709 5.410153582449243 -0.8603227423351442 1.9057186324259696 -1.4847148879431074
P 1.0534338732642896 2.7416795768725444 5.077221309816835 0.7264518284848908 2.575506946780545 -0.3617429019390157
P 5.681104067713338 6.490731592147287 7.715409368348692 0.4525936034740011 -0.600453889624811 0.3062165867369372
P 8.04058076901345 9.175913940321797 3.778891373087346 -0.4462825736543088 -1.0581051101273777 -1.6720796599464427
Ni 2.2740249889087196 7.732240430714866 9.232893743748054 0.6676352725673148 -0.660641614858301 -0.6742612625242645
Ni 3.6551298707512574 1.5086503974873096 0.9743792748131784 0.5793469324428667 -0.5811104521011927 -1.3330318856120977
Ni 2.9754007597765497 8.25173258699905 3.089272709651663 0.04076509773250399 -0.41529563835449124 0.9603491968321266
Ni 2.7945321207207146 5.411055987963969 10.064366309655563 1.7897215135323434 1.11803366816221 1.5531391421537768
Ni 6.152818557788405 7.974579678555008 5.914783728891206 0.6939335441422113 0.7143411612642859 0.6110974853815863
Ni 3.249305746531599 4.963913132712169 5.975865878859867 -1.5402368322698121 0.6507927470886792 -1.511048897851946
Ni 6.9291641119604215 6.524613320675653 4.2761620242476575 -0.08795203983095175 -0.5132708667493999 -1.9238379677344997
Ni 8.710566114921177 4.000479907613914 8.074310251212644 0.0035617492093293493 0.23756144746238442 0.48668823116486504
Ni 0.2500622889017545 5.709864783351387 13.38247632451241 -2.0660428553717454 -0.13204568771605646 0.02137383769008577
Ni 5.084935123828195 3.8556428997953525 1.9398313785067507 1.5441935029247147 -1.640246060375614 1.189884174445609
Ni 1.3051754853120578 8.147411556840634 7.015229423193627 0.2207376910368263 -0.7641783965013871 1.7253140937905513
Ni 7.190575672673148 8.17001782996005 1.769793451037679 -1.2468407943363107 1.1723762474688324 0.7326512724273834
Ni 8.752844459179611 2.858604757676317 12.93637428052913 0.8618888012706833 0.9081462895763263 -0.21674013984165896
Ni 4.159203626062975 0.1416481392511861 5.278752082503816 0.12374256716699979 0.0909669153978756 -0.4802602161513342
Ni 2.583075810076771 9.02311398813505 12.836993413076076 1.1443674209607324 -1.6531560835690624 0.6634402606493606
Ni 6.906161075680135 7.353728375243564 13.158702824485975 -0.16553996281876007 -0.6548874859833431 -1.4246248646297464
Ni 2.5456416672010684 6.140537353901898 13.302541465467181 1.4100968462169003 1.554863323933735 1.8315903858519873
Ni 6.689768293150931 1.1342074711775016 4.9355565618751935 -0.6493981807339977 -0.09990484131745375 1.3347828068649334
Ni 4.7232808891688 7.706939858921626 11.965938646994008 -0.3070444819548712 -0.7365264391120734 0.6019867813295697
Ni 5.427194098856156 4.230058144954402 10.49534245015939 -0.25608418885692025 1.5606760739607701 -0.7069731509349889
Ni 4.172693573532602 2.5194460715333045 6.578432859390318 0.5969805863642299 0.2977975094353065 -0.7900755759831232
Ni 9.037360553725408 8.332174011103161 8.861933106203661 -0.502981826118566 0.5118300205378153 -0.29964253306384525
Ni 3.9789347452735733 1.6119933603189263 3.138389220852465 -0.18816309953491467 1.8116445388576798 2.177203472108676
Ni 1.9699290937264338 1.1278684876538123 4.255323653956682 0.87243135267322 -1.6507377039355569 -0.8758205808604271
Ni 6.79396937165606 3.196646970738738 0.7564169710359697 0.6840044579539575 -0.5775394469204828 -1.4946763700311936
P 1.803685329321323 7.218736630044764 1.5859001849089684 -0.4897578712291243 0.5713122350638483 -0.1542625901327279
Ni 0.9159803510580368 5.5260527152649015 6.0287507173839225 1.4808726313788818 -2.4497458065216198 -0.7079555694529163
P 6.703968723490025 3.2333798577952266 9.218633337582316 0.08734140283014635 2.2812261922492456 -1.294716792081983
Ni 0.48950701107758576 0.6358978541587228 13.051853582558284 1.352684883956335 1.7578583462751598 -1.31916412649107
P 5.662336247499096 6.195955017720352 2.211546786236805 0.18409638566470876 0.8130108446230578 0.9931775562160573
P 1.728900087022193 2.5218635586995437 0.9080192520999011 -1.0840557685548686 0.4340875742500137 -0.31868849395170273
P 5.788202439997853 0.7765245589469214 0.9886765891799276 0.5857919167372622 -0.393243029429826 -1.3017775555835063
Ni 9.045563401400166 3.365455855114134 1.7615693811473379 0.2758755125512346 0.38262823002845714 -0.4026447823597001
