# total energy = -381162.0518691532 ev
CRYSTAL
PRIMVEC
9.30540607036201 0.00000000000000 0.00000000000000

0.00000000000000 9.30540607036201 0.00000000000000

0.00000000000000 0.00000000000000 13.61940238883102

PRIMCOORD
 96 1
Ni 1.1201382534181425 2.8660371475640933 9.612343008760035 -1.1423817579892712 3.1922819421628827 -0.08335053650319839
Ni 6.122305803293031 6.636094493006255 10.56744430261579 1.1590378784887134 1.9970146490284895 -3.4147862381818284
Ni 9.018036501566634 2.2008681122092795 4.277840326089915 -1.197472271205512 -0.772158072272754 -0.513235128415458
Ni 5.474761206999268 7.380471144669232 3.9932493706623893 -0.03251365635698916 0.16173678702258598 -0.330193923488141
Ni 5.36935887265686 1.8427774765454208 6.490285293967544 0.7757884699364898 0.6473497828454012 -0.11753052481901693
Ni 2.8753146373971803 4.165993067516418 10.109246108652679 -1.3294117723610073 1.1165126035319932 0.6106084615603098
Ni 6.8250872899069615 4.840058071056218 7.478236532265386 1.356008034792297 2.087732424530037 -0.47873683752827234
Ni 6.876871874582117 5.852114033189196 5.262509547673485 0.16294263440522905 -1.0227966646340707 -1.6538032302347583
Ni 5.3081665224639 4.055900808524185 2.1923015553985072 1.1081212941445044 -2.24903572355963 1.285668565836786
Ni 5.313107693077108 0.6377943918332725 8.517492196286142 -1.7187482676475756 -0.644056199695794 0.10642927269953284
Ni 8.317144012381107 1.3797963038719732 0.048581663912319335 2.624292343714364 0.6822234547941347 0.7807144464831973
Ni 4.854723390992974 3.3640531740204636 13.55032478126229 -0.129703412736125 0.3214729986753754 -0.5158291143948793
Ni 7.752036008295288 3.1313063578668223 5.901205633353123 -2.165338088129658 0.6273769392679001 -0.6389525599206415
Ni 1.6870794224960555 5.97017171976129 0.9735092481063169 -0.678153141379503 0.4600091792117819 0.023253571211301886
Ni 7.75197087045293 3.9639168697076674 0.5113999919798704 -0.08686472030404395 -0.8557004130717842 -1.1491298753463821
Ni 0.920935564998015 3.267202507839146 0.5015027621037704 0.3640450677096311 -1.580683884541265 -0.7698294241395773
Ni 3.4730753113168036 6.72325823148823 10.046542560516995 -0.7201947918315855 -0.046970969432899745 0.37950845345255285
Ni 9.292676255762963 4.686611925271253 2.0124438756183043 -0.3641867354938179 -0.23973428674398709 -0.13307618586309986
Ni 0.6520921482310045 0.43154751103235545 11.39602092093342 0.6892011716635486 -1.154817926870095 -0.6790417146320434
Ni 1.0965583544842978 0.22440638070991406 13.531775384839747 0.07209244709087584 -0.25720390428366025 1.1559733806307768
Ni 4.287503059733524 1.2580257602854328 11.819148900570612 0.9413271472036692 -0.09287210284038844 0.3279781467837448
Ni 3.2005571897001577 2.9968525458324398 5.336340500365242 1.4078347896556012 -0.1454305936633947 1.3606686734927598
Ni 7.304743750224233 0.8028620592356326 9.466764583791397 -0.41734197936055867 0.3161114772531459 4.091934335335585
Ni 2.921246121666106 7.241606570166562 3.7124447849571136 -0.4962943867960614 1.3605221206125664 0.006983630406684746
P 6.660604932545224 3.4147583315936756 11.612406041627164 0.7988214404965533 0.21420606056589558 0.6263958063015534
Ni 5.601472921199018 7.370104922328149 8.222564795816897 -0.4638414084736786 1.0083336951312054 1.7172788821909002
P 9.044780238557902 6.8851443805616706 12.571648241175717 0.20657656904509583 0.7733153258056488 -1.8447094397324486
Ni 1.3503912207500515 8.226704770969095 2.030326074426974 -0.8620888330966313 0.953051634729449 1.252730163237552
P 1.5132823536770261 2.8603515444667846 11.887750215061573 0.6136567614683301 -1.438328587369084 -0.4811948121504616
P 2.1236704636081836 2.6467738647787002 7.28785071607881 -0.5515098556259405 -0.13185362630990838 0.3412342404627027
P 2.8260611231679613 8.504554890253102 0.7647964347018208 1.7080031133159295 1.7334925158362855 -1.2283656183502585
Ni 7.220985790357012 8.710195058579478 13.042253333026949 2.3590771390904535 -1.8627848091769208 -0.24927205103109323
Ni 2.116272665797447 5.5138904394447374 8.080745754892957 -0.24873597602196518 -0.8239534596774908 0.08774866557089404
Ni 5.054929202185425 8.952005340227029 13.540192124613093 -3.099703973524145 1.581932155126069 -1.221022033500994
Ni 6.6321210846223755 0.25288371484852706 2.871555253352479 -0.02040247491575196 -1.7045382946957806 1.1752651389808533
Ni 1.644721214150806 3.219047031523974 3.6777700503883737 -1.031956476756468 1.689172867983304 -1.7815703451801188
Ni 2.8528979142197404 4.6113311903167125 12.843042269741375 -0.10798504722242692 -0.2544263415385231 -1.2424220964433248
Ni 2.9783906202267776 4.008396710632599 1.4427715698643524 0.1721852360494196 0.1254515794383065 0.7889404339374155
Ni 7.35840802692174 7.399035429741458 6.797648439083667 -2.5249634295050387 -0.4580273728950628 -2.9592901163490515
Ni 1.3192646375086503 8.552803420628786 7.514859818861256 -2.604267049632373 -0.2624268432454964 -0.4649721796440121
Ni 2.941569128482017 8.756629034775171 11.349089105513986 0.7387113625785343 0.06580661408216408 -0.11816327330700939
Ni 1.9925572923461972 5.813719927821775 5.543859430173363 -0.34181196734304353 1.5314979097349173 0.24208453214371858
Ni 1.837054651823908 7.157802083269085 12.443516522012551 -1.6169431239836154 -0.8029660587925461 -0.9213795004371487
Ni 4.728523474126043 3.247819347034411 10.760853445228413 1.3047001285469402 -0.047701162730704946 0.23969392042435492
Ni 6.3184730682592445 1.6656211561418937 13.04046855614632 -0.8253981625438173 0.26310638581102425 -0.5040305790980546
Ni 5.926799222156457 2.276213985006178 4.176839448809745 -0.3154262782606632 0.5238396434041818 -0.4135740276776942
Ni 7.267298796274039 2.2742877659535714 2.103203222998479 1.241736897450842 1.493317284900138 -0.23012401734773272
Ni 3.6609421540853098 6.816647286618485 0.041257378809387485 2.9942699748583466 -1.1891256990130294 0.19400490302767232
Ni 0.3040327402903838 0.9889785551258999 9.123256449950437 -0.20721728795288827 -1.898124107908163 -1.0365428105755696
Ni 7.280884689108851 5.536344384246382 12.210774358561935 0.4184169575922923 -0.70462007732178 0.032919890656472335
Ni 0.280400731082652 6.715665020150417 3.332926590779062 -0.15235303181484083 0.5280814493996712 0.5732945556011997
Ni 8.975706209439538 3.2281849402662925 7.738503156274969 -0.13855829202359365 -0.28803374518032326 2.580030031461879
Ni 6.401328403739495 3.152131856609499 8.619528765259815 0.32769481121537114 -2.7484624853370856 1.733709002722466
Ni 9.263373532107606 6.064677423617695 6.6592063300157225 -0.4741219644640802 -0.6680481917350172 1.0708572675867236
Ni 3.2125704689123102 7.444873859949872 7.370057464757289 1.9537105869242162 -2.3695654402162867 -2.412052405735904
Ni 8.172966051023177 7.7608389224197625 10.624836324977423 0.5187264905473324 0.11687926438826324 0.8619978160447219
P 7.551672005199966 1.3019565822533419 7.544304915229198 0.06910405388651325 1.456307283334692 -2.0350641476020437
Ni 3.570167918055453 2.2706214359693826 2.8943274430410764 0.6024835184603301 -1.0462137580064303 0.6080970079923655
P 5.360388461223464 8.18228076248047 5.973128977804375 0.32641157362757334 -0.5124905369399496 1.1501025236722968
Ni 6.006286000646157 5.4566994138538085 0.5755533223783365 -1.5294893639453206 0.7942006538950902 -0.4533024566155677
P 2.0911387640530448 8.396928563864448 5.375809380131581 -0.24341122137494212 -0.049768586782694926 0.6971744196770122
P 8.023874835270194 6.444235631041766 8.633679496241937 0.24269748313736914 -2.1200475917229746 1.538407235260241
P 5.547259625544488 4.057184954559256 5.395462397711802 -0.3086349663704427 -0.026367691360251362 0.5215212796836501
Ni 0.4866531951271999 4.645565779179228 12.219491662950736 -1.3799784295649653 1.100456064289763 0.7788244285493361
Ni 0.7419172328436344 5.553792020592459 10.153346289010722 0.3291246016833622 0.7863356493247168 -1.1465693137080577
Ni 8.232325236224044 8.482221915730124 8.303450176836101 2.654572225644828 1.6797888556652427 1.119743194654149
Ni 4.191322382787896 2.7928036019408258 8.330171580852845 -2.512571740708905 0.17140464912965317 0.013136794492274149
Ni 0.3278248024821969 1.4690072316852214 2.162474937382464 0.5511234188207992 -0.6766801563784023 -0.14508760850167915
Ni 8.44044064256005 8.569488013678662 1.422096818699705 -0.03935381920727416 0.7424230071021666 0.9581743006679951
Ni 7.33576797399907 6.202844092666522 2.7732920265325838 -1.1168599595690831 -0.48750609908047005 0.9933081682566507
Ni 7.422196585402998 0.7218417498286869 5.391907732600228 -0.6110681748055475 -0.8760239551204848 -0.2709888738828946
Ni 4.3414744148307225 0.37430158354572557 4.765701362922566 -0.205153206335008 0.01384744740605357 0.16564152139363084
Ni 0.3205703079246494 1.1131033664434045 6.498075779913642 0.10581580748525 0.833061849736662 0.2997790586417095
Ni 1.8361892490611422 1.2208320522986222 4.594055703982583 0.5818439878331076 -2.246709646529615 0.36969583823750524
Ni 4.754327365106134 5.828999404557913 11.792304665193994 -2.122855750595731 -2.565137173510447 2.3946864036536306
Ni 8.076273576744732 6.433143587028687 0.6783073381585607 0.613256440706118 -0.4518053032447509 0.18827314275021767
Ni 8.949316077878219 8.087551728878836 5.3576005615705125 1.9771641899614658 -0.3837633720741649 1.0526163190986646
Ni 8.569059965000305 2.0864581448092707 11.193051404143752 -1.1907974302884974 2.1342969025531375 0.2381908535162672
Ni 4.867992900022044 5.865383542218265 6.764335085420224 -1.022035360988014 -1.092610342993099 -2.2153609570150037
Ni 1.2252800363911156 7.8954788425751685 9.741209855001253 -1.5320977481024454 -0.4906852681394001 1.2029806026182508
Ni 7.948138135419142 4.465366590996945 10.087946034201387 -0.297312599379088 0.023324790768869504 -0.7717214989559676
Ni 6.015516963448989 7.735081558469927 1.3233376137372783 1.1469511225275086 -1.882459661898029 1.8937655738291512
Ni 3.139206647604326 1.4913681224263535 0.37088184682189446 0.2964793048445152 0.11429787681433218 0.3561985750820188
Ni 2.7368129737305082 1.4844262895121276 10.175027885110111 0.6936185840049538 -0.3903510525940116 -0.4493887233834583
Ni 8.741126228293803 4.712443732469498 4.164037071164447 -0.616127591606326 -0.46881237932570874 1.6045223817217593
Ni 0.7530399846966828 3.921996015446826 5.932325702810288 1.423696439278206 -1.0793902447583992 -0.24338216790921954
Ni 3.707701819492796 5.181250089331022 4.277622579588316 2.1070936026654676 -2.196913291832778 0.8975253195273702
Ni 4.665395599474423 5.103373146088186 9.0756704644856 1.6586587585548467 -0.3409041108167935 -0.8887380602530436
P 3.040550732649068 8.534657878828867 9.039701347935134 1.4759469119424904 3.1463093320875104 1.3292793605482012
Ni 4.385060936774735 6.014577117437813 2.3293943805890214 -0.09427926760056021 1.9816183690780778 -1.8616136716869554
P 1.8886438229719882 5.210292261616946 3.06748429992378 0.4062450981164487 1.0869091788432634 -0.05478558038131209
Ni 3.206131127924851 0.47170778246830164 7.006038354898185 0.6057477910338986 2.0769327628113716 -0.18277663841202071
P 6.132234671549706 9.282040176646394 11.418071011112442 -0.9697262671716526 0.4179472170447253 -1.522267906496217
P 8.692021600561404 8.981922220681767 3.5931932147886436 -0.08320475495395348 1.6041786252290955 -2.1176587797758244
P 5.297781689310715 1.6449166276778824 1.7607847522061206 -0.7599155074599752 0.6047139504527457 -1.2244403151539236
Ni 4.326502016494275 9.075804462332739 2.4726976337781332 -1.1842503731985992 -0.241095685867888 -0.8502213922350842
