# total energy = -381163.6975899755 ev
CRYSTAL
PRIMVEC
9.30691991887541 0.00000000000000 0.00000000000000
0.00000000000000 9.30691991887541 0.00000000000000
0.00000000000000 0.00000000000000 13.62161805916198
PRIMCOORD
 96 1
Ni 1.26209281105317 5.153753499681052 9.073087384317912 -0.23451854687100257 -1.3781578314164589 2.33474113344825
Ni 4.037192997093743 0.4798461827641388 2.7897753375395156 -0.817435970273947 1.1657957660378373 2.7496477638944388
Ni 4.942886612624007 7.628612445643051 9.004652670665656 -0.15471073341374 -1.1121648680862588 0.5050757325331172
Ni 5.956968618791442 7.813941144145365 12.842570549596275 0.4261359235031048 1.238585239195738 -1.4432813033886691
Ni 0.3704396150759904 2.669671395972064 8.628450210708802 0.2183303671469143 -0.47799893092098317 1.6731662081424024
Ni 2.3226814965966933 7.516882870716104 9.12288778269164 0.7510973949477129 -0.507284567258978 4.347115295651945
Ni 7.365049777391807 4.289047559950727 9.969784930949851 2.295278299466937 -1.2470104871449557 -1.840306939789379
Ni 1.4985537281851082 2.5029844582843004 13.317801430718909 0.262619933092909 -0.7562730256113814 0.06903026322578434
Ni 7.317807851333566 2.3625523419933643 8.22312546729473 0.0683687183823855 0.1578834747147668 -0.9433120388441819
Ni 4.425291562229408 9.237350800030585 0.8549522875417843 0.3564176330713604 -0.5148721497982488 -3.4168991707597733
Ni 7.508497335771566 5.222317579521686 3.0716475095603375 -1.1031099569728422 -0.6308911230687456 -0.25359099012142133
Ni 0.7270007510073692 4.548729242550614 13.118190332742802 -0.916869528381937 2.3776099077873183 1.0829517368574122
Ni 2.684059894334168 7.510340105936959 2.615159834680551 0.13260130310921034 1.0699833496222024 0.3556753555886971
Ni 3.2063177116624133 7.572696470119428 7.168321963240136 0.5013077808502528 0.8118854727693631 -2.5813721473120705
Ni 7.198576898864669 7.568424593826928 8.788136483152082 1.004595825355328 0.526677627073609 0.08630319137361911
Ni 8.254214302953704 7.896177089506005 11.582339122548552 0.7207486074525264 0.3139437801778658 -0.03108823676437227
Ni 3.592117467551351 7.76876535433317 11.40863662854426 1.1934171272995318 1.059339753865427 -0.17724336729861734
Ni 2.055265763454174 0.2054074477690688 12.859393738237504 1.083275181635102 -1.3910634837345333 -0.9673425974308244
Ni 6.946992236688476 1.3809514867209776 5.876842552200975 1.5546483797094515 0.2688831403938014 1.884367420443703
Ni 3.3415007250579896 3.4214750888520125 9.842886007070517 -1.0506072590884359 -0.7027244029609638 -0.32671213558712764
Ni 4.588386028786658 2.0599099165477637 5.622336447828233 -0.2290816921261474 1.6862006727288572 0.3691790465020867
Ni 4.204987458264748 6.929355623236867 4.498226171714831 -1.355012503648247 0.04090779395795536 3.817296294735877
Ni 6.994550598027642 3.3694866335798825 11.99969212940582 1.588277637728123 -0.29697115687926917 0.2761398219562148
Ni 7.045245391415987 3.0229713871259003 4.107748757820205 0.14526372906822724 0.030958910275359585 -0.8633229626140485
P 8.063152541714615 7.142055973539276 2.3340778201700414 -0.47396075629586765 1.3754882550040957 -0.8368339151845846
Ni 5.507369926115814 7.944126341486316 2.6240144383944615 -0.4731074071566368 0.9101311812168391 -0.6113072873995472
P 9.333723956912594 3.5177924042138584 3.250417621519459 -0.6637680763024246 1.0789590707582515 0.6395742526650404
Ni 8.215720881721063 6.541713097182537 6.88796216572374 -2.0957684074606355 0.17484864181419565 -3.0232563347883676
P 3.397332938301367 5.721252255261683 10.624902754434878 0.7177789833012413 1.1093109435772315 -2.5790735810858805
P 8.00989834531878 1.6015906398066175 0.22289701188424724 0.4297177273170922 0.2533153678625315 0.2745341680319917
P 4.890591028990979 6.217255251193099 6.782775355575939 -0.8388131503981425 -2.2545355703319365 -0.16093794527037447
Ni 0.3060264215675027 9.14462595579925 0.6124493179281656 -0.4484728964374083 1.8547699092922445 1.4619174304326177
Ni 0.771398482305287 7.024286207514655 7.754991112692864 1.1385127619521682 1.5375744549463004 -0.9834492731846998
Ni 6.4317611439807925 6.416795616577 10.92129558308219 -0.09201669681862863 -0.05666222857873467 0.06674249563287216
Ni 4.751433960743773 3.2014222717280876 8.074472548543739 -0.10016580828832426 -0.8787315838596351 -1.7673074075032016
Ni 3.75545391402931 3.492821937780789 0.6559284562193954 -0.08875036736253102 0.9425975292756605 0.23639262396526384
Ni 1.2871098120863753 5.918065693077604 5.6597819098658055 0.5304900588411637 0.3407560152747035 1.8205390131338324
Ni 1.6512430581519117 3.5217013106252972 6.552488649190069 0.8891311819264043 0.015145083171554562 0.2935425908136945
Ni 1.1929237814107658 0.300389220107007 8.325642122086718 0.030565274381366716 -0.38162190025112985 0.5320710301750385
Ni 2.267482153915167 5.383997394234798 3.7727796763520094 0.6932023224031416 -0.7239856263325853 -1.0401302708165119
Ni 1.9601397338558135 3.4525881225030566 2.291482839281399 -1.0174076324080155 0.6285617036046207 -0.6639503675165597
Ni 7.438453455646603 6.156052945094007 0.2438105918774451 1.0304102153152706 0.9108806577883539 0.37684967567346705
Ni 4.720293006332648 3.124835626823978 12.060825564296712 -0.3064333307334335 0.8067784905601009 -0.6596507116999414
Ni 4.441532137676931 5.691498031934615 12.508254813913991 0.45022587457277297 -0.786812074740503 -0.817301758688928
Ni 6.4253859037621375 5.228627671300151 8.002196868996243 0.09101525213730778 1.0357686514137063 -0.28439717686900057
Ni 8.32068432578821 0.35399428738786765 9.571529723988467 0.31009638140731755 0.6061578819881238 0.35916948478488464
Ni 0.012100857419409855 7.151772398047709 4.168869163023057 -0.40408665701254926 0.4211387273988295 -0.10665681532930663
Ni 6.486727813661638 1.8672380581439623 1.715206727423084 -0.9755068784091716 0.13357420854544091 0.6722025802230229
Ni 4.145581387730911 3.1020336727572544 3.0960576994077673 0.06122593669001714 -0.7348313107978377 1.34554518758776
Ni 2.475249836603143 4.317545349074117 11.748127942453687 -0.527077176504873 -1.8675410929149838 1.2917181144649754
Ni 8.779161820169818 5.252369624289626 11.31794348495487 0.8496976585211301 0.6367498958423679 0.34231873177613303
Ni 6.942273628234668 8.295676631675033 4.178063469317961 1.6993395241036606 -1.057745412795114 1.3733475545120089
Ni 8.66794412584437 4.171240566245996 7.275742434194473 -0.49919459116199194 0.6513157094716848 2.1210883742826634
Ni 4.865322741117038 5.836685984359467 2.944557793820444 0.6347814592620874 -4.220583081554951 -2.5608755700206154
Ni 0.9088830970235982 9.282256689161988 3.0843160891014083 2.8553815531888436 -2.12464035329998 -0.34743085619171776
Ni 5.907762932607454 2.207815489620569 9.993758626248006 -0.35938108657505846 -0.7719151030240125 0.6894284571830063
P 3.6607746165922572 1.6484975167438778 13.178943114604577 -0.175275187828653 -0.6084747030467585 0.6401992878435491
Ni 2.468986279424814 1.5872859037247589 4.647546396631776 -0.7339985304838972 0.25302740430846743 -1.474434846173338
P 8.667702145923663 5.902132245990978 8.914096338800668 -2.0891390750695766 -0.484270879972624 1.1336137819886543
Ni 3.8039522742912273 4.601108588463887 5.539639809926243 0.49716444810584054 -0.2156376508060996 -0.051366527397434115
P 0.2642271823411887 2.951503548236769 11.105636817369614 -0.1660133029107528 2.239534468937414 -0.3771957461589762
P 2.4391948284176372 2.216833895126959 8.285580484829488 0.6850195294820332 -0.29124505302876935 -0.40789831744915556
P 6.4776814873951665 8.93650461015024 10.539672772901474 -1.2483986257417337 -1.5819097865285658 -0.9391280826698213
Ni 4.374838748761771 9.007832845238962 5.024402202374541 -1.3218588997144138 1.2032757652611663 0.7682888191253349
Ni 2.0206254071128082 1.6185199273361566 10.882828221225624 -1.5544424343462326 0.3336636272042963 -1.2313167305587827
Ni 0.3067821434737142 5.536295833560458 2.112400014809362 1.6509685889994405 0.49676027068888634 -0.8228532846347765
Ni 7.2265162727864265 8.988548906942533 1.0099571792113637 -0.15489533862072033 -1.2504354536661046 0.2906588415079962
Ni 1.597672426475152 6.595432639579733 11.65451987151177 -0.7048548190404054 0.10365299550597633 -1.124441628571083
Ni -0.07996040341398228 2.2452851496502135 5.758116965489557 -0.5144898267581655 0.05035274142093908 -0.11102666226222814
Ni 3.638912661448284 0.10795934162391353 9.12386873206251 -0.7100613029420094 1.7047707224215607 -0.8486046825672676
Ni 3.0249723749317554 0.8062854720273742 6.705840631862811 -0.19069126527340707 -0.462886500759577 1.6128887514085835
Ni 5.833409948509881 8.004286272542357 6.469287576222603 1.3465165503620937 0.6784117943575284 0.47513163667551717
Ni 8.528182107795395 3.651728290325786 1.0030021178750117 -1.3779133195058204 0.46887614268410865 -0.4689203656584828
Ni 9.096025219417033 1.1425175025432655 12.022644855576985 3.0773016945695453 -0.9753801230233201 -0.15348148899232922
Ni 6.241295025623446 3.718421679240946 6.310800035078833 0.44065674282709916 -0.2252489486436185 -0.8592495638756235
Ni 0.669413252646855 0.15121418314248702 5.862050133509689 0.6475169045508848 -1.5623460054640255 0.4233552754341741
Ni 4.914844862581951 6.730550504535118 0.7771175846620224 -0.19712030872820244 -0.7709936196510078 1.2391912482108531
Ni 0.40032320459143655 7.202783626716979 13.449835913069272 -1.0351533864272109 -2.1058628155821606 0.4040126092415042
Ni 4.127767942798786 0.9898095587364074 11.150356568100474 1.9909869547771712 -0.9217265993639222 0.9584784621719751
Ni 8.701979532383966 4.4042672298878855 5.181241487981489 0.16870370525872236 1.676858312282009 -2.3608807679580956
Ni 6.553653875577478 5.912174412700363 5.157580505196251 -0.561494220532162 -0.06732767871238081 0.2807436392768133
Ni 8.536455959699607 0.6768550659006315 4.0336880110114866 -3.0543026625712106 1.0852677865850988 2.111935761249118
Ni 5.289867205079352 4.560055764223758 9.85525397309471 -2.5157385684726608 1.3248408651608732 1.535504202680833
Ni 6.055612664160097 4.330714640912654 0.19905361346647601 -0.3881000517763058 0.15093969640708196 -0.4409477917049568
Ni 9.080408207611335 1.721594066637775 2.130638785986733 0.5195312458368149 -0.27564591303893177 -0.3748570707234705
Ni 5.5317261358270855 0.8133196421839578 7.601966733605079 -0.7740282927122734 -0.12874773369107503 0.894281358668776
Ni 2.9487486999087076 5.18017584563837 7.768136206539329 2.151328147003811 0.25770706917232394 -0.9544605992618336
Ni 2.1951115437833946 1.1511450174085116 1.610115778551564 0.5128800590688846 0.2607070323409123 -0.6503471749108284
P 5.8596461560666535 3.901712162257295 2.180030610571264 0.4474195154722294 0.3467510565158738 1.6260692546545996
Ni 5.82688579757079 1.0032580581757606 4.133943084236855 0.5917663891531422 0.5385406970597822 -3.7355601539076506
P 7.944014658445989 8.787631117394604 6.298132386229764 0.10089780135834236 -0.5906250764598473 -0.17900174475062075
Ni 2.760479014677788 7.303773015932498 0.09601577115296393 -0.22681449335852552 -0.026476706134289887 0.13008445022462758
P 2.771489101070006 5.656085201230988 1.5331950152184766 -0.19472712590567753 -1.249136275238707 0.04413478553568528
P 1.126928411497648 8.726884850376845 10.815728119905273 -0.4866182971588781 0.03263141288177606 -0.3477725558018527
P 2.311494578723958 8.236233333461088 5.031784451340142 -0.3473462668977114 -0.5477881837999792 -0.7653446488953464
Ni 7.008259691227758 0.9677707721119168 12.050949991455813 -3.5938820853081523 -0.16186508507033412 -0.05012211346737174
