# total energy = -340897.16203597427 ev
CRYSTAL
PRIMVEC
9.03068697246722 0.00000000000000 0.00000000000000

0.00000000000000 9.03068697246722 0.00000000000000

0.00000000000000 0.00000000000000 13.21732322003933

PRIMCOORD
 96 1
Ni 6.44754920383638 2.0820790439796353 11.363791925731302 -0.12751103307049652 -0.3204777246416416 0.1634267731304992
Ni 4.553299416244487 0.39357178326785197 6.042286293335509 -0.09043315438159265 -1.0918996900793196 -0.5848094982193348
Ni 2.6610815332002775 1.6285127955025747 4.762465476520269 0.23637051247807678 -0.5675077737160936 0.10755978675955025
Ni 3.2372935401754357 4.412104626897771 5.080263475395957 0.04948345144210833 -0.7025230855834352 -0.8093423946325351
Ni 5.169363844414853 4.602597935914697 2.5689983283053834 -0.3966294294035556 -0.27188953132029303 0.30209073749402165
Ni 7.244281553699769 5.9026827110168 2.5223015495248946 0.04318604846917079 0.7192589102808775 -0.02353022191145625
Ni 4.882188001675769 4.547971310986121 11.17827362211579 0.6551559091533814 0.8755346741888921 1.1561947526129637
Ni 5.7612892465587535 7.8133864101014785 12.282157694093698 -0.37816710893331 0.27559114854159633 0.9664036305563228
Ni 1.9044454330778178 6.402838273100493 0.5824187980668116 0.6364848151064393 0.5921970489326576 -1.7342677034394134
Ni 2.884428481081505 1.7178985342268347 0.26800098528977967 -0.0210125976959251 -0.5791371304249058 0.4603588492417168
Ni 0.39084000048707923 9.032944550307215 4.813233288945625 0.9883603373330719 0.11088807980183484 0.7597684403591495
Ni 8.470468218074389 2.331569830374374 1.4133015934302666 0.3894105430576132 0.2766039060768269 0.37660542087314497
Ni 6.821699591903142 0.7412279421702133 4.916712317612609 -0.6569700795439847 0.048166275292581565 -0.5199539351965303
Ni 0.9126231545763024 7.329124856924098 2.554273793349846 -0.013196186975299853 0.9154078562347461 -0.17011909754901025
Ni 7.611053870586724 3.739020441776004 3.996349864381356 -0.26836454888617 0.7192956770560839 0.06646661626366618
Ni 7.591601771050246 4.007313118251962 12.510355023897416 0.2089538110280208 -0.3698940702912404 0.0547711822036089
Ni 7.957064638339806 8.631142199018218 6.8321932500560605 -0.03631168994684069 0.32794729354580937 0.6041192542915402
Ni 6.781070531636376 0.740027763884049 0.41001847021113563 0.33249557503812416 -0.3647657479257395 -0.16111329450597411
Ni 1.7260171217306848 6.595742775514002 9.300092135686969 0.07614527700401079 0.2829059370354547 -0.5497154827296791
Ni 0.09216628721417687 4.795294732529999 1.3464094895831926 0.2240986370892592 -0.27406879835979897 -0.4307500252363485
Ni 6.341781799114362 1.9774495058043198 7.058499554027402 0.2878709943502139 0.08508937357117603 -0.2643081194286093
Ni 3.5025970592945814 4.13500703071519 0.41451936455142374 -0.8088158327051038 1.4499759418000253 -0.2817350566558051
Ni 5.919416573802822 5.583321500242428 4.8183220810017096 -0.2874922708545565 0.4861650116715434 -0.3848074970679631
Ni 5.389893217989961 2.8752352418391025 9.151251966828841 -0.47569393693689044 -0.02907660565098218 0.08282783123050896
P 0.21848031072235688 5.577325124155046 12.358513957789532 0.7890471347186088 -0.44328878113330755 0.42809818943579825
P 3.962882138809311 6.084154363842016 12.573850686409454 0.08987625343685811 -0.020414559100610005 0.2501056026759822
P 2.5453803729118136 8.670308288010652 1.384699601948404 -0.33987772643480824 -0.7047776859455669 -0.2606460971959898
P 6.281041399168982 7.730629195546102 5.763426810142915 -0.3721975216134364 -0.3214460020921819 -0.16364865933331815
P 4.831742584771978 0.9693358681738324 12.478672665121266 0.41607468261236086 0.7542451965480752 1.5681276451428092
P 3.8430810466779683 6.206303434561792 8.291002280804905 -0.6070616247493158 0.6351699529497578 -0.4822443364608985
P 4.659400956381012 1.0546848898633636 3.882826905768008 1.052497019911981 0.6527794385014049 -0.3739150185251754
P 0.2171139677976266 5.510886360789278 3.4752575578383453 -0.11372940590537188 -0.49700889636458273 1.0752564250956838
Ni 1.3157710782102086 0.9439776994187585 2.835419846460098 0.6385946623605905 0.8929271586337266 -0.9338298103853594
Ni 1.9448306647988616 6.455080796693123 4.662833520463564 -0.7217845049162085 0.3180035520695362 -0.23967078049590335
Ni 5.879293232001258 5.543631631411037 9.19044063253847 0.06018284013748345 1.1605859397021236 -0.425804508305615
Ni 8.592030294147056 2.30531762361832 10.224762226559307 0.32316324189360474 0.24604428812241497 -0.5458405731553051
Ni 2.2367566488360833 5.183162733965334 7.081127746139078 -0.02211971471717481 0.09675549705519466 0.26849696069897633
Ni 0.5463430101242299 -0.009484930428580524 9.154080377959213 0.12050554828694084 0.4917440484212176 -0.12116272225496554
Ni 1.5233143240539082 1.2552022613155218 11.475531323686129 -0.02282085454925747 -1.280726391340162 -0.19237816605752675
Ni 4.168095467438335 6.846931331041915 1.7828318820899427 0.22285679426235813 0.29236811088961906 -0.8886601558272565
Ni 5.439309136589593 7.743290218549882 7.863368552768397 0.6780418126126194 0.4465085736221858 0.7652901415083272
Ni 5.157217570563152 3.027429407803939 4.901723183531528 0.7141580987192022 -0.39507699731477114 -0.3916764562736545
Ni 0.8606885774062333 7.191849385682689 6.625077155701717 -0.7200968328011406 0.5967414737702303 0.7877407572023595
Ni 4.745472433020831 4.711715725468671 7.051666936335063 1.2592664216941734 -0.4410133548355695 -0.21551218097182884
Ni 8.101384045346514 7.302935864976194 8.961041318311214 -0.5663978284813664 -1.1376455288558665 0.14167858282013018
Ni 4.5712524217591195 0.3252428971383948 10.48930716798065 0.051642920987272356 -0.7895639264540273 -1.7124279818565027
Ni 8.120492978781606 7.155067398026201 4.547737416195965 -0.42621357081857564 -0.7025351697682933 0.32160849581197515
Ni 7.137087300450934 6.053197169222218 6.963586131864758 0.5281511262953421 -0.1232697412956393 0.08428487539200968
Ni 2.3681531429195326 5.196627488101309 2.510472252782633 0.05245924624098062 -0.5459508734809243 0.8180885162562814
Ni 2.33971550993886 5.112009952048943 11.378700686699164 -0.32347897336181064 0.29033025452398387 0.7477739870014347
Ni 1.0119155568063727 3.3227148073599952 3.7203720733717205 0.29571028788897463 0.3463067698896036 0.08403984926073912
Ni 3.779089599456297 2.6414578506131066 2.554882461645463 -0.8362556740836115 0.1510960194792882 0.39084753261445593
Ni 0.995028172343414 3.338076005740473 8.184431144950693 0.0391599580289132 -0.5300617130544937 0.2669725536346499
Ni 3.812548294341464 2.556939652116405 6.8750438592949585 -1.2234360422591253 0.458427693657275 0.628058538715957
Ni 3.959658183593655 6.8452425925956195 6.015560878587016 0.38398757226982905 0.5631862635226043 -0.11018128354279734
Ni 0.9425056974575488 7.547270129163261 11.772074697924372 0.3020424007545895 -0.22732562866698913 0.04368098582771832
P 0.17278413204801596 5.548408864769809 7.865866440759015 -0.3848190670321889 0.10652466062681654 1.659453486542
P 8.460272572588464 1.4680826431044665 7.937967444797658 -0.11930278622809132 0.4947625235325673 1.3355829341687255
P 1.8439308003044026 3.172940865478621 10.436424368688328 -0.42735051263649626 0.2682753316064735 -0.15235714557989888
P 3.927066434648833 6.051436185280894 3.837200263382632 0.9102147420695808 0.5238314158740656 -0.5020971095207676
P 6.886801813610879 4.046849465406418 10.366003072409104 0.5606467849302023 -0.31899805477232157 0.36145725237779686
P 6.2844730601828465 7.746161976977272 10.236208622177916 -0.046859126445383814 -0.485174622733816 -1.7321264887266943
P 2.3844445020485043 8.47410758488646 5.733635477199143 0.3285615300910406 0.4364997832359322 -0.270571840950134
P 6.940218326497725 3.9812866786678724 1.4137648676671382 0.29460394219867325 0.2356014955225362 0.8636834312772609
Ni 5.381855906668019 2.92978962127265 0.40566567913565643 0.2844360005267359 -1.083712783393153 -0.5101996840232439
Ni 1.5660655957371417 1.0492122936149393 7.033215436904732 -0.5947673807629951 0.308213819672624 -0.20109986220124076
Ni 6.8626537568975365 0.6343163494206786 9.206314773933652 -0.5863966402007965 -0.2504267334608268 -0.12931620460003534
Ni 2.715527544391282 1.5599698820940953 9.26593807791215 -0.2164179806155499 0.03579001311541578 -0.2480759738404631
Ni 6.264172076079781 2.1548573495341725 2.751622296776308 0.42175784904006725 -0.5371456164844685 -0.5269259956389892
Ni 4.036518359617314 6.900248506373097 10.337783982050894 0.22320029364470595 0.3370502842883421 0.3155180666435211
Ni 8.26329523039271 7.259967856807875 0.32493224150977146 -0.21013009072430908 -0.06470978147355952 0.46883783324700545
Ni 7.607170675228931 3.8571960102692007 8.311039568851116 0.15603433732116997 -0.22551454360017936 -0.8093655345609868
Ni 3.4048489045207493 8.23945421703324 12.399725497359967 -1.539339260156207 0.2740957949429925 1.0550915201120346
Ni 0.25791551418377306 4.807684834927421 10.114213073135076 -0.7761355688632634 -0.2884510352234 0.12832658699325641
Ni 8.64046186787692 2.2176115926534776 5.9642512249489466 0.02167465675995622 0.9997346406082848 -0.5790366002912996
Ni 3.888324787939692 2.5365122383970404 11.248166623212619 -0.9372730317389535 -0.05759965279133951 0.2989635047189496
Ni 0.8780455575868785 3.209894436185801 12.578357902230556 0.6348431657379583 1.0143377352334402 0.6054973655859895
Ni 3.1006863397630413 8.517500035338072 8.029114167463241 -0.6175355276974462 -1.7497321176235994 0.33294474676040076
Ni 5.8272945369543505 7.96356673289239 3.508617818236536 -0.5428182413892135 -0.2568861159329254 0.2920279539413809
Ni 3.2735336866192073 8.441994462346202 3.488606719182273 -0.5832035871847956 -0.5474927640467474 1.0444330119569238
Ni 3.354231904566266 4.296457650730579 9.205971607832266 -0.12354382089263238 -0.4642571558548585 -0.10878234631274168
Ni 7.404720736784755 6.109440287102061 11.276662955658 -0.2965780352059086 -0.06969515050329286 -0.18556628534201589
Ni 0.6424566105730375 0.38238547143134555 0.5640865037032788 -0.07673765917237106 -1.016878499377423 -0.4751257231382463
Ni 4.637402203144774 0.4433841490214532 1.6191091412559016 0.1211822626389913 -0.6181965583202128 -0.28875082585200595
Ni 5.96149957465704 5.727803459612951 0.2655852765497575 -0.1832620626888715 -0.2634038624467851 0.29017881654778416
Ni 7.966113386592151 8.606867712688576 11.348856072702807 0.041613047555096074 1.0947991231143017 -0.12244955938718913
Ni 9.148447035484349 4.729451994498216 5.769890072741921 -0.27695589009960686 0.3008208696426625 -0.265843068015897
Ni 8.113467104390065 8.862309721736302 2.628040056048901 -1.0857226147343302 0.163522418168099 -0.5468052510614195
P 8.433135358518307 1.7042080129188957 3.7649945033761973 -0.16539238149730226 -0.23110412187281487 -0.9736127467102523
P 1.8523654618490033 3.2628865067893527 1.6103195737169724 -0.5617734423354777 -0.8671019700405067 -0.6489032433754502
P 4.570782826041433 1.0232851915865144 8.19396032574498 1.6685842451986748 0.21379262717756084 0.4817128894374607
P 8.456380346543792 1.5084227213911172 12.340221398448266 -0.43324348108216354 0.36332130216972913 0.24805823322865025
P 6.370282646903186 7.771718820843675 1.3856117013231415 0.25903941483050225 -0.27467326471301723 0.04822103978991695
P 1.7311013984433294 3.1092745229845784 6.093305158856089 0.25674341970747394 0.22328873959345413 -0.3521254334539097
P 6.759387852440888 4.021364867035044 6.147231905551575 0.2561325255963524 -0.5457996926150407 -0.19990198523839764
P 2.1984936285315078 8.513905821960394 10.388089423308065 2.0569239237896126 -0.004210438536921781 -0.7996416224050035
