# total energy = -381174.41241673264 ev
CRYSTAL
PRIMVEC
9.22582705862846 0.00000000000000 0.00000000000000

0.00000000000000 9.22582705862846 0.00000000000000

0.00000000000000 0.00000000000000 13.50293046119348

PRIMCOORD
 96 1
Ni 2.329050748600549 6.587821558801793 2.17092007733224 -0.16795628556973655 0.5955644227429937 -0.43703508691411186
Ni 3.6203712734595177 2.8579304954574396 3.4463795607650427 0.018416040613342476 -0.5256874952461978 0.23036750081710647
Ni 3.281543558582042 1.4211740370002435 12.796996734278386 0.71476924994064 -0.15303231727005256 -0.8139580390276756
Ni 4.84748004382447 5.744922345319498 7.889073686205705 0.30647086883958835 0.5669968955179461 0.25524883743981847
Ni 8.002629775313405 9.23846617782654 7.079991740840913 0.5083135227441246 -0.01734389059508626 0.8936203280460093
Ni 8.02374769284743 6.119131105956248 13.11084552310808 -1.5483376070000754 0.28094547087497423 -0.11103360424076361
Ni 9.2094417267291 2.3880222334749384 7.644818999222298 0.2635624995118364 1.399532697547809 0.6886990352161494
Ni 2.6262330813248655 5.756279338104288 11.428150664277368 -0.1663254348345329 -0.5771280704146771 -1.3510339786164731
Ni 8.987671302228073 0.5364762926399897 4.659455848574622 -0.42987739282340803 -0.9658549571417043 -0.5794068391465247
Ni 0.019402836332811046 7.638440262576154 1.154483984416469 1.1188039706693311 -0.25499044157210926 -0.3724088662932941
Ni 4.2502553720693514 5.274303694673773 3.7478196125553054 -0.4406991660292604 0.5097525691834963 0.12866263017643648
Ni 5.939365870853389 4.011684716974415 2.6062813082977447 0.6344423307551138 -0.8494698587810402 0.5364290500334181
Ni 1.2599434879287745 4.000447659937962 9.645561320657164 1.9533022957422037 -0.1412641209905309 -2.1383587313273367
Ni 5.579429464268686 4.932837393332894 0.27472205739160327 0.10806320875853002 0.43633009042728726 0.18158210388328727
Ni 7.381676277041246 1.7032629170877476 13.614059019820957 -0.46167268295713393 0.9243136433648083 -0.32295395409627603
Ni 3.2255335641088854 8.277005864200191 7.696954146441505 -0.5265297886418352 -0.7026261868202028 0.13490706842425151
Ni 1.5924146081444142 4.476970839732562 7.003349107323155 -0.9684134618974998 -1.5742412142397146 -1.9547182022531238
Ni 5.134993710067503 7.306402756219884 5.857044740943237 0.8998243999741922 -0.7059416243466811 -0.7921589408747131
Ni 3.5662525734793595 3.893935489588334 12.768316406520404 -1.6024768120466404 0.7502283620791982 0.711602165066568
Ni 4.769364968350213 2.700021244032213 1.1692942041706706 -0.5259469195551717 -0.5852787245462694 -0.7816043052873185
Ni 6.7455555195179135 -0.1814185032645442 1.6479513177029812 -0.2922056171698258 0.1581855793362179 -0.49295812333397676
Ni 9.204007714746776 0.8687352188393416 1.1915727307155197 0.5529273047987574 -0.4503148347421535 0.8325766825701274
Ni 3.3397954289664127 2.5127830892253087 10.541805187251507 -0.5372137507182425 3.275439645928985 1.1146601237042868
Ni 1.656312684527396 4.820928114308122 3.4630423265397035 1.6215924498301686 -1.2078633846318487 3.283689544642603
P 3.963516675277108 4.902087712624769 9.775094696608647 0.1855832546228804 0.4012563866526057 1.251630245305154
Ni 7.838400832533524 8.485657162998564 13.006049356542345 0.910236853556768 1.195619020046857 -0.9816770117756254
P 8.247446315148636 3.234150486335525 1.4797995533698156 -0.37591276568149457 -0.4396408999680751 1.1897299082559318
Ni 9.284687570070076 0.5965391928242415 10.002146906949882 -0.5578674224128521 0.33198932482566695 -1.0120692509142377
P 7.20891344447588 8.976655665034702 9.357908344429525 -0.11768247701584893 -1.367820968266825 0.5160078060645887
P 5.767654782542667 5.209759810415133 5.984066846841091 1.058249863235358 -0.22818386290222634 -0.3192181412029277
P 1.1161497515000776 6.005081435115009 5.349996068031633 -1.8906056880439313 -0.2146781151063077 -0.3107080468493875
Ni 0.6615305296824447 7.0305413092190845 7.501620328621885 1.1303870475212403 0.619036794833321 -2.1588110856444174
Ni 0.4093619284741851 0.7851741378079264 12.374084833990214 -0.23889430734119502 0.021941537268097697 -0.07441209636298798
Ni 5.748077578083429 8.805165996567064 11.093818694797152 -0.022289407525819677 1.4980113479416977 0.03242726729076996
Ni 7.2326607226465125 1.4322265775007936 11.15470269356617 0.5323409960069736 -0.11536565595721421 0.25065607586281347
Ni 3.3264733350742635 6.337386490448337 0.12518063086954812 1.2604033635120937 -0.4397519716246427 -0.12046749596015381
Ni 5.668154240557328 8.665053365029618 7.5443709648251 -0.11745313461386223 -0.04107080189838088 3.004362326097342
Ni 6.850093362933387 3.9856402079317985 7.704569143878195 -0.07583854439686939 -0.6258525322035737 -0.9941203797453007
Ni 0.8860557860644946 2.4187073333954983 2.768816389278043 0.06391813881019959 -0.01044459237209169 -0.4160124619158577
Ni 3.9652050015806144 4.085140749917138 5.783777837449814 -0.6740116084073038 -0.8521990847867452 0.6440150620452134
Ni 6.73511188358584 5.312923005638134 9.640214031446714 -0.46945438378508186 -0.4116158755100588 0.4946902755337351
Ni 0.03259576864982868 6.512511134673251 3.337330288046757 0.016714227430887345 -0.4006169532963939 1.1288595551331202
Ni 5.179351485298427 2.060809834532516 7.35528948982453 0.2983047880890282 -0.46383420938482695 -0.49340420973246
Ni 7.196495481609653 7.108527223118211 10.950917095819543 0.8256511590948876 0.033091897457962365 1.0622774963375123
Ni 5.105913904009293 5.967283222735413 11.498393341747352 -0.8959739158798504 -0.4655234241617918 -0.2633051320853917
Ni 0.9522898417920004 5.837540420515681 13.32127556131255 2.1978568866929695 -0.7499763939693923 -0.6839934022103639
Ni 2.716323279979185 2.138906458353183 6.571322090161406 -0.875740105331479 -0.40807520934665203 -0.15187403529589327
Ni 6.186350479985473 0.6515315786018967 5.783156016723822 1.3046412502845466 1.259467739071702 -1.7985452824715606
Ni 1.3351062988285947 3.039227217808288 0.2885884750646645 1.869569693309238 -1.2390485519854015 0.45594683621695026
Ni 1.0663210609796494 7.51699147864523 11.88299684143416 -0.760235095582923 1.699226395564564 -0.16937347763223734
Ni 6.062521432741408 3.1038449086812894 5.062235149630491 0.7608277348615995 0.3482263555098196 0.4867643358184391
Ni 4.3096051158423405 8.656159667999125 1.215706571028867 -0.7478837731064217 -0.44827415016304084 0.4167552536191532
Ni 2.2945000272528353 0.5433956627363277 10.669474946190377 -0.2548929967622965 -1.4439824432207518 0.415651221921697
Ni 8.135786133447333 3.387714373340251 10.07988372352554 -0.0906781805128632 -0.7863425913032522 -0.34148877967566993
Ni 4.2879059712202245 7.709340741496629 9.716884342444857 0.21402042691765075 -1.066333668684757 -0.4858546795199761
Ni 7.3653926927478635 5.659564995811073 1.9474871588427318 0.7545580998028038 0.6393155996870151 -1.4634282106501892
P 6.896988240532966 4.663858413121252 11.89288139226245 -0.42463542769817836 -0.2135558285764064 -0.7787393250346976
Ni 5.684188727527242 3.0640354660603584 9.906289643965934 -0.6342078461468045 0.8378623564490989 -0.8657187165397349
P 1.843301742010832 1.0434410105277585 4.787436517876487 0.9989591958948408 0.9750080843958823 0.05090655704188007
Ni 2.7662534545943593 1.3386305646643295 1.5408736041708122 -0.6569754788606234 -0.4419214684721357 0.7846870579777002
P 8.274514890965511 8.324066806682085 2.9235870144275706 0.16776910925959493 1.1952899188422124 1.1066591077766812
P 4.901358872307954 0.9663684534813493 3.8766509030876812 -0.33196798466942823 -0.07683433265123542 0.10914770007196042
P 4.95224853290982 6.515703270744362 2.1098331103737302 0.44124706811293046 0.7470746469415649 -0.7124434300209408
Ni 3.7500771723720705 8.13870149471459 12.072861589129635 -1.7643951189524132 0.09436231423266975 0.19376656176462112
Ni 7.199235552167803 6.417309827974437 7.6044043423636065 -0.35849868397010515 1.421624644350842 -0.8686664863141491
Ni 8.217785282002335 5.2138284000317805 5.69730508548186 0.6757429892761136 -0.9495760174760226 1.4184274775697832
Ni 6.679858406909883 6.004500208026916 4.054484250059643 -0.6280963339324279 -0.6286990005134333 1.2486678202427206
Ni 5.833545637513395 7.544216893517621 13.144724604265111 -0.4956274426360238 -1.5500419912856918 0.9793694466883713
Ni 8.346605501542557 7.520211292196726 5.565623937052472 0.08430184467287416 0.2480885722459534 -1.0032547379464012
Ni 6.927415017303264 1.5183681222868033 3.4716306487032784 0.7164247832661919 0.24344053195098075 -0.8265394752371119
Ni 1.9303012886887876 7.556201242524478 9.725255857678746 -0.46091343619360625 0.6298143450647993 -0.1474003157952558
Ni 3.627345998516626 7.753264902868183 3.773934237881564 1.2303368831440167 0.5545805241314642 -0.19089669641599383
Ni 1.1000230062622125 0.23771542095102904 7.4248835916708185 0.576794084114026 -0.26167145313671064 0.04404402559409189
Ni 1.5202132876458267 9.001897527146143 3.0325827773504446 -0.40557635418419824 -0.361467536790442 -0.618352881392419
Ni 8.323254933924115 4.00067830560784 3.788220430673803 -0.9247216774365041 -0.32784959162568056 -2.308452117844734
Ni 8.695793819910948 3.8259319202815245 12.85667953039868 -1.8065221300294503 -0.15691519726422654 0.4451219776873044
Ni 3.694712985774572 3.4521290960237594 8.241094333400198 -0.9895813542243668 0.3142186311058072 0.6416545322328367
Ni 3.066766310791713 6.278101327462913 5.905682377224417 0.9006908617395457 -0.18924321997297083 0.3870309870818431
Ni 7.175026982657415 1.7058922777243561 8.724607922157459 -0.35740210847181675 0.14394526736711982 -0.7749880855223814
Ni 0.749263529590612 3.063075980073666 4.964109255837624 1.0681303555738637 -0.7757879557158575 2.232078269769685
Ni 8.773604443100968 7.428635735428393 9.334278234259191 -0.43463959009874176 0.17534306495211094 0.8464508694490583
Ni 1.8747433597285916 8.207323194416672 5.42185880068684 -1.1452572797648535 -0.1891537455829581 0.3302851976503666
Ni 5.482807380243422 2.859314369476707 12.159307586199882 0.7021281641378618 -0.6294142814129031 1.0020954275309775
Ni 0.5551373724984734 4.744944204823536 1.6366229249812567 -1.8357990246166964 0.07669086509483566 -0.2787579763053522
Ni 4.3696929257589385 0.9763507980736661 9.46161125052004 1.2029523204834764 -1.634466220469043 -1.5797459461080277
Ni 8.945546177081567 5.103155381797554 8.296997308282533 -0.250173222689124 -0.8016457973192258 0.9764095927290991
Ni -0.17352027294524436 5.210608586480284 10.978004123290008 0.5259906283089135 2.513337672340652 0.3419263814337208
Ni 3.9720782425429766 9.372978732499348 5.8571655992742535 -0.7072706275707498 0.940756876522496 -1.238507591880267
P 2.9518309605781425 4.185397809699677 1.7212588148343033 -0.12244750250466009 -0.45784533879124373 -1.0035005354086202
Ni 2.56243648903663 5.85127767661361 8.310216072914576 0.7456168314491158 0.6451766864534824 1.5934926062701589
P 1.9358091072854726 8.951533738671598 -0.06182964601551664 0.35290961991810194 -0.2383060389378928 0.7001162759141555
Ni 6.274936868872188 8.244060436714829 3.9513487323170278 -0.18196237004084143 1.0141497875923502 -0.5083451473130085
P 5.63961875828003 0.5025870630734857 -0.3097137732601239 -0.8207290392029221 0.49093106560161903 -0.3937778188873734
P 8.163048451626905 2.0822598818311633 5.802451833465811 -2.0462188786672826 0.9243709789653048 0.16663602409641623
P 1.8902796520515688 1.6908541800483148 8.824893582003062 0.507852523947306 0.7063064638852674 0.12510550895279746
Ni 0.9313841182742647 2.825021971279256 11.423492544328512 0.6350899916414416 -1.022780980904787 0.41858202241524683
