# total energy = -340896.8157319302 ev
CRYSTAL
PRIMVEC
8.99428151418989 0.00000000000000 0.00000000000000

0.00000000000000 8.99428151418989 0.00000000000000

0.00000000000000 0.00000000000000 13.16404015193100

PRIMCOORD
 96 1
Ni 6.215057582204523 1.8708375563440391 11.248672203827631 -0.038214306286192254 0.5766328759458134 1.4110558676960603
Ni 4.669120460218718 0.5051008662815851 5.94193183046788 -0.2475512116852446 -1.4318548067192824 0.4715192367339105
Ni 2.835393309770149 1.6174056836061173 4.867535211817036 -0.14301324247115368 -0.7455209293011998 -0.4623915634010295
Ni 3.3187010317267887 4.366022164467033 4.84573577149497 0.7197751877956636 -0.2852746943779474 -0.11105700127953132
Ni 5.05897759631643 4.418440837651424 2.7067633902759924 0.14547121709334304 0.47537717702741994 -0.6131348275265892
Ni 7.154807106968561 5.935857092672969 2.690663626205975 -0.026225509355432254 0.38875722574433047 -0.780573550029959
Ni 5.030348797972929 4.572773715683507 11.44612007015359 0.5429172288609231 -0.42853193453910715 -0.47313491796046264
Ni 5.660326270035588 7.649888343544001 12.312287377120528 -0.40214650256704293 1.827462479726543 0.17699294185070807
Ni 1.6619363718243607 6.395356951225511 0.5118582700501908 0.8473669535054245 0.2059692744784001 -1.1969760482953837
Ni 2.7388217081948545 1.5191701399342008 0.5233943356346624 -0.45468262479254595 -0.4863599012911689 -0.4168218451910305
Ni 0.4014948370643016 9.08386464813116 4.795607042406793 -0.29752908626526825 -0.4326580408923388 -0.014030767061453255
Ni 8.591094941927784 2.056029814557256 1.4250332903889364 0.8161763868352331 1.0743169440005498 -0.4401895733826935
Ni 6.8346466590152986 0.6981019597828406 4.888887636343417 -0.08970476085600035 0.11392455263531348 -0.7401959175438606
Ni 0.6636502635293241 7.273621566948969 2.5465041800954547 0.5000885637311709 1.3400093453711956 -0.44532586616799436
Ni 7.558605379551484 3.8311142489519066 3.832921200126022 1.2262922807609977 -0.016795988511416234 -0.1387578096289094
Ni 7.742340564144956 3.881086477540184 12.38611154109276 -0.5080381575955508 -0.26075896862477027 0.17173066501050424
Ni 7.838597365864133 8.760034533283727 6.979653366452856 0.4558108248597182 0.18400999659848954 0.13678860171768054
Ni 6.806152774895849 0.6239423091068029 0.5008654590745621 -0.5939991351384029 -0.08679195808457955 -0.9231224512701843
Ni 1.765694404400741 6.5965770192559186 9.185103382430439 0.4225867726992658 -1.3382059736138694 -0.8507255855650122
Ni 0.052695697057775395 4.682054237164351 1.3989822531529597 -0.08534879788014979 -0.2770646477633293 0.06674686650824634
Ni 6.481540157548922 2.107683973805362 6.987511670289713 -1.022816976349045 -0.8262360850640803 -0.28955558114148844
Ni 3.477324182083675 4.2478373041988595 0.3462447640311715 -0.06482265290233996 0.7013336932610243 0.08460832016969944
Ni 5.987241423472975 5.644640242919325 5.004967834716403 -0.7850542115091318 0.5286638042657025 -1.4690892655907086
Ni 5.3920448383705155 2.879618192413878 9.115018141320723 -0.4002706257005687 0.7123621831610442 0.5077730768596223
P 0.25205214993996633 5.54381434614564 12.107796988299137 1.1032518818673451 0.39170679529095764 1.7985848774602442
P 3.996941818873086 6.279150832910078 12.50710171779302 -0.9297921499808761 -1.1417955464684981 1.150445251723696
P 2.285168132684498 8.431230580709633 1.3924658961313243 0.20068411482006082 -0.03480708037685618 0.21196277305767364
P 6.306349540478643 7.742808266788331 5.779817099992568 -0.7322805193515259 -0.4186126185428662 0.28801908989230396
P 4.666997809760325 1.099676845953412 12.760615438493533 0.46592451625495246 -1.0506291134653067 -1.3566073589391925
P 3.9029066047099397 6.152403416555505 8.199854485319475 -0.18776714964807661 0.3439804357492721 0.0890730408092724
P 4.80750647696804 1.0515934165018406 3.8326441762526384 -0.20705890799815305 -0.6018384286771635 -0.6312809023079966
P 0.25343906816320466 5.572011418972179 3.598022044631827 -0.49983736695231334 -2.4078383676545565 0.36504034174336486
Ni 1.454069529689069 0.9643848620756458 2.7715833789350994 0.029427561232497707 0.20919523761486553 -0.6954841764587829
Ni 1.9197124825767062 6.476053645770872 4.644168524194671 0.21020079606124445 -0.316493543182913 0.379518737865198
Ni 5.925054960467332 5.678260867552691 9.317903050875913 0.053570477027288385 0.5962542497211666 -0.34128026320928967
Ni 8.2631184632612 2.218745363043672 10.130492321759785 1.589334104017095 0.7139871203589769 -0.057103944101843586
Ni 2.4643342222234628 4.920123876923731 7.053990204476481 -0.43638588336588713 1.438062221081575 0.6015962307593704
Ni 0.6576276925677131 0.027177121292717647 8.809362771309203 -0.7374785186126976 -0.69903744102768 1.099306781176668
Ni 1.3686778201467533 0.9583856762462035 11.35795992073376 -0.24030584297674099 1.688869220699956 -0.781713320061357
Ni 3.9668379583466344 6.907194534428014 1.4871415031446298 0.45082751271251387 -0.3377431965903086 -0.03653563303218869
Ni 5.561317218145783 7.731610386192146 7.899359134663802 -0.4639594221087816 0.5570845215002406 0.3334725942394128
Ni 5.34269321521287 2.9203173166690894 4.60073963547284 -0.2647341512224344 0.6763772804260029 1.4828621510050848
Ni 0.7117408884061783 7.2263116457152865 6.62207850588593 0.13030196555207238 0.2147524199876689 1.056732141039251
Ni 5.334121664844866 4.739095971092871 7.1788776033954775 -1.0452868753167868 -0.44579920625998704 0.14167009817969792
Ni 8.09148058742425 7.165627227737406 9.020052918439792 0.3644153065648563 0.2702741072040571 0.7374597495596202
Ni 4.42439505207285 0.4669255374442768 10.425037955134833 0.03756535984828369 -0.8367177013216944 -0.32253332161908965
Ni 8.061196841265732 7.0691815461045575 4.698272725751534 0.36554016419791885 0.45797723638341764 -0.015168223100006133
Ni 7.331805574641115 6.145396871186486 7.102460388036996 0.17570353361532323 -0.48757731863803766 -1.2117321235586358
Ni 2.334978464203915 5.056135403329767 2.579112048620282 0.06327639146114264 0.36881780650792606 -0.16111020918218058
Ni 2.419695602625979 5.239106073986954 11.399111457353621 -1.4344829883707488 -0.3596536235101548 0.0871717100215015
Ni 1.2306425803799617 3.2341997560632056 3.8691483675680423 -1.000974940773289 0.30323102174605193 -0.18112778995468803
Ni 3.613128840012833 2.549366160501644 2.6931127690865706 -0.49950955129924945 0.34387270652681423 -0.242107414961854
Ni 0.9688550200325166 3.2989765721706164 8.30033590110775 0.6312526201732225 0.17772236381756487 -0.7639829926611295
Ni 3.833956441938569 2.853867564183454 7.04580270993294 -0.029311861590239845 0.0383379763482501 -0.7152932407649101
Ni 3.971263144895488 6.909784887529782 6.032368432561522 0.36455260347366897 -0.13958210530241766 -0.5450641000005968
Ni 0.8986780372504474 7.5528400450437285 11.265482516144315 -1.125195733128288 -1.2762680984584922 0.9722315500920095
P 0.3264510485066534 5.451380114107893 7.942076575710808 -0.26238801958776103 0.7660095361728549 0.451397526283371
P 8.528998421738175 1.6928677062583215 7.93517796172103 -1.5319326832794908 -0.592375740602367 0.6474042902324205
P 1.7483984008774767 3.141270838537273 10.330967663273434 0.45471296380984916 -0.1715897685572658 0.4230207749128908
P 4.091687581282898 6.071841636234194 3.7058877656164624 -0.3123208998624621 0.7063378313438352 0.1950873374585737
P 6.934258327772529 4.09000565062307 10.306601254981768 -1.2019907279011557 -0.8954252424652321 0.807088565601352
P 6.184054293517735 7.848679955541501 10.132150867287445 -0.2350829040149048 -0.0927754293615241 -0.3974501255326381
P 2.286157503660868 8.48299267133698 5.604616589212527 0.8811538201478825 0.06671498482904639 0.6082186211718944
P 6.920874836746727 3.9551723751070744 1.5276607417677743 0.41536402969858144 0.4734326517065395 -0.05455855197217055
Ni 5.44291649511913 2.936138258009403 0.3065323124678487 0.1763321683382576 0.4423521282516511 0.03860922773176576
Ni 1.3603491153820402 1.1323170938920117 6.9202173547615216 1.2785098433048174 0.25453227098876813 -0.8687302496725491
Ni 6.703375119014235 0.772335363568026 9.047065444379164 -0.587439222532698 -0.9226087448585595 -0.19016701733882088
Ni 2.756288603068583 1.644559419766666 8.98219328888676 -0.23503533860642103 -0.31142846995517975 0.6961737463266398
Ni 6.396472242144328 2.0560478031204625 2.5364998406680352 -0.15809379095335999 -0.49940002230457864 0.03894347114273293
Ni 4.068887077418376 6.820057934254646 10.457894965260072 0.010128346683253525 1.0301297079603742 -1.3486708777009353
Ni 8.179174833057026 6.958866682239327 0.4720136025472985 -0.41735406354541665 -0.18309725497623308 -0.15177221961070636
Ni 7.577682250832214 3.865265536199871 8.197827174246077 0.15974829583764746 0.296880911158308 -0.37546513662111464
Ni 2.9917768840077983 8.454201975924619 12.27871891932046 0.9899299958130371 -0.7274147066187924 0.8727321717430906
Ni 0.009002376456804705 4.700006823244662 10.101807758870345 0.7990785508126819 0.4899728154534078 0.24458364441648844
Ni 8.531300957828636 2.2697249511715265 5.7955085236777935 0.7236866070349278 1.418735238618189 -0.6003191638191596
Ni 3.5568875971470124 2.6475027670759235 11.456387942031988 0.15714993898285196 -0.1615526960362379 0.04713706269711882
Ni 1.1464830874173064 3.1380149085968556 12.528204101290827 -0.5617814127552776 0.5155234102290025 -0.28049861314554275
Ni 2.972744984135085 8.347134047718201 7.821309457194311 0.561976045264587 0.13801887458035586 -0.11647637252288971
Ni 5.636248578183388 7.951268731509445 3.482375370632123 -0.12727217758681306 -0.9369950954872185 1.1200157315892452
Ni 3.2026208333538024 8.164622085422787 3.5071501193085823 -0.35712340088913336 0.6299529275251925 0.48054766548476596
Ni 3.4801933579151476 4.325098183171737 9.399677260357358 -0.16020878041383377 0.14294639378896024 -0.4784257340457567
Ni 7.40635917485138 6.3593798248120645 11.306765369275587 -0.06188105377551278 -1.0691603395002747 -0.1614076858179414
Ni 0.48607436297783385 8.939164645696277 0.2396445384681289 0.096520241115937 -0.00953133652920294 0.5190784745701125
Ni 4.532803128238168 0.38939393059513877 1.767759491456873 0.23751696737769418 -0.48744902059028955 -0.8673233420226935
Ni 5.896758950543156 5.611145538228406 0.32895775478951034 0.4619896999769205 -0.42830850567439144 1.0576785641129203
Ni 7.867019295730755 8.835595493033567 11.072695486545221 0.3484500414848515 0.2116007617325646 0.4145615884019441
Ni 0.23398083934249203 4.835910418271456 5.828826041021126 -0.5042326678065315 -0.5913156747689687 -0.6599386752540054
Ni 7.783777219491643 8.72004595727518 2.625238322394962 0.6388360889474353 0.5401280961515601 0.14632328068099318
P 8.391844621568513 1.6722887899498302 3.63128739514186 0.42639560492239464 0.07538731579206372 -0.5683585517521631
P 1.8666192382720623 3.2354319726428664 1.4383160454607808 -0.779707859595554 0.16084872799067781 1.2243567543011817
P 4.666413181456106 1.1399982103812827 7.995785028877123 0.4314442230898956 -1.046333057193114 1.1801317230445354
P 8.367146324285683 1.577713918890482 12.332349122236824 -0.14019685606828114 0.27095519243148175 0.19834543938455518
P 6.274950503401308 7.656409197706439 1.4105003301742245 -0.06888910966222975 -0.5367612365618563 -0.5319123931099872
P 1.8628596285618573 3.117328060909124 6.069241389422663 -0.6582587164484212 -0.04075507043017497 -0.4725610477348635
P 6.901132388627348 3.9249425946381757 5.912562802748424 0.6958199625316469 0.23092131643804747 0.19762733027160803
P 2.3409866443149605 8.477865930823064 10.040226611016607 1.4979113320287236 1.094019821746116 0.11581585612075537
