# total energy = -381177.29363778565 ev
CRYSTAL
PRIMVEC
9.14961891910563 0.00000000000000 0.00000000000000

0.00000000000000 9.14961891910563 0.00000000000000

0.00000000000000 0.00000000000000 13.39139214576190

PRIMCOORD
 96 1
Ni 7.290160171693938 1.4476710058658666 4.45079003878616 -0.10395150058300162 0.3754965040796823 -1.2331488986715151
Ni 6.751156120705086 5.348784878146735 10.945695527088777 -0.7371314196859241 1.0641019511407608 -0.5018667386775164
Ni 6.096253846768079 5.442714866051192 6.622190412005407 -0.18922856468495153 1.5497398866642407 -1.0950050684775208
Ni 2.8463092039020053 0.9623020210270168 2.9403480722716937 -0.19432783358472983 -0.22935294350966307 0.6968196074407548
Ni 5.017102042424501 7.523136918431829 7.095241264882853 0.19855935516757414 0.8229229615304472 -2.1630107255480615
Ni 2.593477784092551 8.13148593126832 6.6588694043599155 -1.2402358874252835 -1.0975154936042002 0.2761141109246019
Ni 2.0606680251172693 2.777238730622174 4.644858031037035 2.0060379355730227 -0.7327908833290412 -0.5339713325215448
Ni 0.2276772874553795 6.376799462307379 3.3239979986135415 -0.10161899579508306 0.9447022343234892 0.8244525108010963
Ni 4.0638215456594935 5.815982719796588 10.544729946927603 0.619122926789224 -0.5250930561953085 0.07281724107204234
Ni 4.379144862740275 5.24552227893675 7.966177936190648 -0.990461699946791 -1.007803019438716 1.6783030151483354
Ni 5.111956141840583 8.045150127073265 0.8765280034340769 0.6742388939267614 -1.9266247864510175 -0.6052582529919899
Ni 6.93531050084857 -0.1637489000125156 8.23332210488759 -0.11533480271927879 0.9746517294977279 -0.1784870098977313
Ni 4.64300157335675 3.2641997491543204 6.903945607166856 -0.31421888821612337 -1.0347016436017729 -0.8914819415467681
Ni 0.8011351434756971 3.5994783851148613 12.999372328383933 -0.6352180325788738 0.027235438677185354 -0.3560900745286125
Ni 3.3647723603997703 7.060596232815813 8.67237297383235 -0.5697204650966963 1.73842800546469 0.06878112332945574
Ni 4.920921248264004 4.960529948598935 12.71650636948475 -0.034041920076057504 0.14524290313262084 -0.5521526314162619
Ni 6.2053264539967 3.017086841174233 0.9280449328024818 0.416858869076553 0.31039591492560736 2.1271073267832334
Ni 3.0632466686608866 5.233700971283083 3.1549990472607203 -2.252279684418224 0.24407893686592802 0.6060964326225692
Ni 0.9566475565301383 2.121741731454913 11.023190969476577 -0.814270428061772 1.0340899781597028 -1.2708286726104758
Ni 6.315963646061837 7.803005462170532 2.9134582572071688 1.445596324675091 0.45377296849408305 -0.9307938517725131
Ni 0.6132193549913287 8.946799324233279 11.340567461044573 0.15075431986915327 -0.44370452851448744 -0.24807263140635338
Ni 8.629792477269932 4.649570999746327 6.7449764680817985 -0.46335675552777617 1.4961781513877006 1.4084744801221292
Ni 8.708424302328465 5.697403658502826 9.256237606420223 -0.4771065010137009 -0.36904869157180964 0.16936267899895993
Ni 3.089679917740954 2.7192484458629256 9.182343454042082 0.5242232519958456 -0.04328349327898352 0.3444368065604004
P 3.2687013616663982 1.5054142509140869 6.12827568308875 0.09649247320179512 1.1978486807083242 -2.299856919976555
Ni 3.5145516222345607 5.916500433328475 5.746393463123596 -0.2688705419883112 -0.7201616246008049 1.41772968017181
P 5.076812455542022 3.961858192337141 9.982104324754946 0.16605058390659144 -0.49357107432762737 0.10103406982589051
Ni 1.550256533275254 1.047704564091521 7.4441674724348905 -0.44480727466036296 0.4714127930630333 0.41297856018554036
P 6.590250922255078 3.328585617543533 3.3175566668889425 -0.015992518773514392 -0.5362333890828441 0.21297475926195578
P 7.980004840313112 2.111960788821963 7.799213860087188 -1.0838863328565398 -0.1296332216198219 -0.4643006074982842
P 1.5031359958012669 7.6221906929353995 13.384509067801417 -1.7060056232699266 1.0384441413633407 -1.5073624501392944
Ni 9.017196492257524 3.9848054366060266 3.9244682745920056 -1.9182229355405673 -0.3502099615987517 -0.4584824581546104
Ni 3.1626481286836823 9.393730759959853 0.6492761732588023 -0.6606027912005655 -0.9043410568976232 0.8798435859768913
Ni 3.959717181508226 0.5665389141877295 7.7570039230913155 1.58658893717179 -0.3767139214265512 1.9645994659225778
Ni 5.952787821992909 7.112721611842864 9.078292157680592 0.08291653428957332 -2.4597923921243443 2.7116041788581557
Ni 2.9275395207358033 7.030384191118899 1.3341974319333638 1.1735802950792626 -0.20217869708771632 1.7255470357369636
Ni 7.366413095831454 5.7570957723824945 4.74341864108044 0.7006906603603869 0.2827048767682422 -1.1683552992348976
Ni 6.737331046506407 4.134895785484335 8.364825917877614 0.6342608108719271 0.24325232719957463 0.0485038611376584
Ni 4.751936936301466 4.168721926657409 4.424462010323753 0.8518360450203717 -0.17679856645171485 1.7847212321042747
Ni 5.959951973612741 2.9568274509210912 12.043507979233945 -0.3098739809838663 -0.4695484861607849 -1.5516718135796308
Ni -0.28702354573960787 0.7109519245218417 9.28331498867275 0.8416012546662408 0.22023632592037554 -0.1698722716455268
Ni 5.8170440755921184 7.34917521377301 11.960481592204781 1.3437410444994857 0.582106754576191 -0.9746640707929021
Ni 1.1658810421524959 9.308090326803248 5.077935113784364 1.1367811239730423 0.4113111997854465 -0.7313227834239469
Ni 1.8500620966558639 5.686479013504003 12.256819450012062 -0.6928513668216262 0.9768027144024596 -0.31652105398673874
Ni 2.665659127807558 0.31090496610093876 9.762605881658402 -0.42787013258539214 -0.12876367453067503 0.3766311319047578
Ni 4.815929371076819 5.520385981122392 1.7104553811440983 0.031589601880823014 0.5563640983944483 0.17802626821122888
Ni 4.650650654779711 1.825138534698749 4.132971620623989 0.7629758915528537 -0.28080328887015515 2.955485140780665
Ni 6.624726686371968 8.186063408167804 5.097420142251277 1.025182391257428 0.16356895513531827 1.4518294500689963
Ni 6.943956890734573 3.6546048391499633 5.645945286695554 -0.55140495461696 -2.8165452970479365 -0.9996803903315815
Ni 8.558892080204703 3.3715339287868145 1.545754920763176 0.6045843668534168 -0.4441485580304415 0.8082730728277563
Ni 0.5804536546518926 3.151467294354903 8.587926565945715 -1.22999595486483 0.008636849739391578 1.5505772949638714
Ni 0.4735778709276406 0.6623399991627554 -0.048815046899265406 -0.40201949007087534 1.0543896089490035 0.46221030062815877
Ni 7.133125262050046 0.9248068826642207 11.071333519384709 0.5279546940138199 0.26905591852623983 -0.19435251617507818
Ni 5.447353722847176 0.8895140575771506 2.1683206114884226 -1.0384793654766502 1.072261861243734 -0.22877264552616086
Ni 0.2601566047224008 2.6702979846035406 6.047954838376295 -0.8187937698534222 -1.1744948364737322 0.1662022789931073
Ni 9.002117920265848 6.934770673331877 5.878365736602683 0.0036630506738840143 1.173992442916017 0.09005083134150943
P 6.344391512067989 6.220825908459017 0.3372604434201272 1.157785237028535 0.5313758038802268 -0.047362291334047464
Ni 7.613306412957294 0.941797725011637 1.6772450093248108 1.9166694750105184 -0.006467095781582411 1.3029728614431884
P 7.401904467649239 6.951249137019382 7.558316288244204 1.5453908656669255 -0.2786764723351394 -1.4258055152014089
Ni 2.6916897936548385 1.2231210581597316 12.090003597735219 0.9076469813424046 0.200920399200583 -0.3613580077957712
P 4.192026006064447 8.40387008672475 2.8097281124700153 -1.0538756454270626 -0.9974512438907467 1.0117316650691608
P 8.596057832286128 8.762315557808424 3.870943003869127 -0.3836769830079457 -0.6294117103097419 -0.40747717075133694
P 4.563235195551269 8.164159220456595 10.231787360691625 -1.3777158587830336 1.523265751633112 0.8430266742588579
Ni 2.8217973747966054 3.761325994314349 11.602704043302776 1.2589635457417736 -1.3537950863013781 -0.8737523854774889
Ni 2.1630980090048983 3.9009034310455486 7.243966490617255 2.029879003856678 -0.5853273183960177 -0.9105232744489351
Ni 0.4156745075481982 1.6509389399478278 3.253184522928119 -0.3789996321369344 0.09574968149849962 -0.16492572627352886
Ni 3.028569612927603 4.482416611569186 0.547558944685586 -0.8674326139070481 -0.5488683042380353 0.9625508324691358
Ni 1.301569890839725 4.809982118774277 5.363814957158098 1.131921996108528 2.7506708058423146 -0.3957549972184023
Ni 2.4250241500277787 7.37122579538705 4.346886051289394 -0.5554870951061336 -0.25179456034263087 -1.5950980030840658
Ni 4.765844357070487 1.2823190926173427 10.558268638053868 -1.0631784108852271 -1.0842609425871392 1.1264853984739889
Ni 1.0326442913376992 8.934493086776481 1.955357741191425 -0.5470549051783804 -1.7220729611454344 0.8995066116234572
Ni 4.147522259603578 3.2600458221614677 2.487959803817064 -0.5460933125960594 -0.6795402515350167 -2.044535577427588
Ni 7.731345646734364 3.401663623913385 10.443424451206102 1.1953806787838057 -1.5596075234869398 -0.25440371583070376
Ni 5.907478909066466 1.1599795379445887 6.471042367179138 0.22324271684686714 0.1330029094230032 -0.49336281497156315
Ni 1.2559864893454717 5.971480493460746 7.584683660067998 0.3467256025945771 1.9028114860815035 -0.2525576637609005
Ni 7.65508357297792 4.550270185531728 13.091626106100968 0.07001499573655684 0.5008174714773955 -0.5762929761078913
Ni 2.109133556573524 5.013616037613318 9.495046320262174 -0.5633379586091202 -1.0408195835740526 0.7558086843804531
Ni 8.090312646096876 7.1395848930125 1.3231392024982063 0.34857242599532867 1.0228789399352318 -0.0950472561148363
Ni 1.804195056974874 7.236945988014576 10.359849087041317 -0.7535044617273088 -0.6282462292467309 0.3104481083197815
Ni 4.212182616560601 8.757612653679953 5.099254640846138 0.5897287898978231 0.2812712296455091 -0.4821744024549115
Ni 1.9844516994554608 2.232790656371764 1.0377351393086751 0.5234447219586081 -0.45031663451436643 0.29576042440061967
Ni 7.001654387688158 5.26597167723857 2.280674272064262 1.281023867975923 -0.646431641906506 1.016908324174094
Ni 0.9572605809982465 5.745100621969213 1.1811901845411317 -0.889303188727894 -1.159266706670068 0.011330080300838551
Ni 7.167967010924016 8.996170667963305 13.16238559903472 1.3022912619951315 -1.3160132395669142 -0.5209281261843415
Ni 5.125424380901109 0.7328387279570893 12.934424673392604 -0.45691768477065176 1.4293739492789577 -1.3940377358715088
Ni 3.541332556833854 7.427093368555237 12.143876553977325 -1.0554352766046986 1.454859752254888 1.07468949684862
Ni 8.05594667740711 7.8016879170450455 10.35010016807461 -0.9713062100642627 -0.1704577118353516 -0.8324661251341922
Ni 5.753445074430626 2.1088407687678603 8.8331098192941 0.8634700297148742 -0.2544263415385231 -1.0214419503783894
P 0.40941616820213855 4.42718036210696 11.034989403082927 0.3941339166752115 0.24607025626434395 -0.8982367437720982
Ni 8.42622260576338 0.4076539515968007 6.314831838200568 -0.745220881562278 -0.1620345207686629 1.008432939713231
P 7.888179264761862 2.066249292662732 13.087983642806133 -0.15737516761978057 0.10418495675004638 -0.39793297870632754
Ni 8.624906580762921 6.778238992728969 12.340328936920573 0.34933861473739186 -0.044717397512032665 0.3460586584345395
P 1.17397845490288 8.223503648817038 8.527263677497892 0.23006591041628766 -0.17048779374233863 -0.3341824758222438
P 4.234397891315328 2.5722415185630125 0.41411541248303946 -1.5432987590245872 -0.7026557545065576 -1.429336154062487
P 1.4772883223325262 3.6221145423402294 2.533115918107427 0.34417815358237497 1.2624741299981936 0.3459784400159074
Ni 5.163651488778064 6.327446417815207 4.162553253576833 -0.9043572548475393 1.1738492324699332 -0.04890058235544482
