# total energy = -340898.05871066556 ev
CRYSTAL
PRIMVEC
9.03511634793394 0.00000000000000 0.00000000000000
0.00000000000000 9.03511634793394 0.00000000000000
0.00000000000000 0.00000000000000 13.22380605876496
PRIMCOORD
 96 1
Ni 6.3849539100005925 2.1004205432140166 11.484386081387168 0.023146356209476266 0.2971902148686108 -0.792412708756732
Ni 4.504258355023583 0.26062153771502755 5.901824568292277 0.5534916619426596 -0.41642126731850215 -0.15112712982753973
Ni 2.6914888028248867 1.4113303091229756 4.7707527181982945 -0.6884645506078401 -0.10354089540814425 0.46055502441292295
Ni 3.4514233821919 4.372038466135867 5.116713637935404 0.45201587659366027 -0.26414716837071284 -0.5226173409613064
Ni 4.962302600414565 4.569130488562862 2.575865518686238 0.940579213294051 -0.5668683403598818 -0.3392961428997253
Ni 7.307728386690505 6.131229779910061 2.533099603688819 -0.08765970540151355 -0.2567943275500674 0.1732681847009532
Ni 5.100675403360811 4.680045573706061 11.273981718910484 -0.11686255221771487 -0.25135850124647674 0.9887022940535231
Ni 5.580051557844584 7.981377607380622 12.379293549515076 -0.07884442110272873 0.1703219575884357 -0.07180499775744408
Ni 1.9783561248135084 6.451389118623756 0.5023777530303318 -0.16936679276401798 -3.676677520638829e-05 -0.6645450636777652
Ni 2.810002420601309 1.5894937633376034 0.2799060895014113 -0.3053642660389709 -0.4825855218504011 1.088019381188307
Ni 0.48677410753975614 8.848242785694344 4.6153722127208034 0.23452446040827352 0.191878857823605 0.2985431293520794
Ni 8.593271809583142 2.293537114560609 1.3451390486342913 0.2741150782167021 0.6043100301461076 0.4400844152633969
Ni 6.895790338716088 0.6823906955089556 4.736290978400869 -0.4974099884577433 -0.5349308682213368 0.29409974886874507
Ni 0.8836479064542793 7.197292162700171 2.5146914581633424 -0.25686631843858343 0.061010221134785256 0.5355397054499293
Ni 7.612889432691776 3.9057090192886847 3.8096332088146916 0.1652255169021348 -0.2888228167405219 -0.3801802827085969
Ni 7.537012527752659 3.9138496588874157 12.775571934279148 1.4101413263015907 -0.30924431781966744 -0.5615836949221749
Ni 7.884701865198133 8.760484703094482 7.00537726179379 0.1715835979096787 0.9835947976236284 -0.2420642204287444
Ni 6.924747885790376 0.794093642775363 0.41822648877432483 -0.4004729715193619 -0.4559069841179504 -0.4554845518685511
Ni 1.7996957392138304 6.619921139084502 9.262561586758956 0.8109385354750615 -0.5142350304348822 -1.0744634968807432
Ni 0.2899350683633332 4.807368429672009 1.6387206898522835 -0.5329765727084433 -0.6359888493066272 -0.4814138701398032
Ni 6.2333627322120115 1.9985134688143622 6.872358668643558 0.5088498548635688 0.10231962140653346 -0.3830339501073081
Ni 3.4022362101880237 4.310635817175848 0.40570652840588783 0.3535930191383717 -0.33683482584342633 0.0987388460338106
Ni 5.929340110838311 5.633738217662187 4.729388149706717 -0.1522635574248281 0.3411882177161156 0.5340680060004093
Ni 5.345671611306643 2.863707150651096 9.14016196555144 0.04641689670164264 0.03155206377466824 0.733658116425343
P 0.2825199485867753 5.615369826647513 12.686033030297589 -0.5216038120951274 -0.4332830760708473 -0.8876877646116582
P 3.977384595245104 6.216647767442143 12.60714020360702 0.9353783858194019 0.03002791382065796 -0.3793595865795144
P 2.317949998240711 8.440975892739399 1.3293763851004994 0.5330220812343982 0.6820933569741737 -0.07737606408731836
P 6.272114345129833 7.801596867385559 5.97860137079414 -0.45694416713321306 -0.39891154056951295 -1.9904740196964947
P 4.75850652184744 1.1899067190607064 12.656305691332278 0.5470752168933546 -1.2013790624590857 -0.5634855399305779
P 3.9328956836089755 6.191584355403429 8.216915855801535 -0.08885963924688568 -0.39417479721547594 0.73159686302094
P 4.666185705621207 0.8602487627996799 3.613748277897565 0.29296537815398577 -0.17479439153749254 1.4284213555577012
P 0.13433500956481106 5.542555826063524 3.750192083558207 0.812593297469665 -0.37293568533104154 -0.1757500705825425
Ni 1.4683057511980018 1.0713840661681922 2.5550901727447033 0.01719039573635749 -0.08365469800717851 -0.20450888788278973
Ni 1.8019003075402347 6.317362206517676 4.985982736179619 0.3528504845453923 0.7840820774038496 -0.7030915564923956
Ni 6.035900270025253 5.665830950020337 9.149934347116355 -0.1602236928121692 0.5696592728414577 0.7260365953243432
Ni 8.657213326164962 2.4704717929867495 10.192076260053367 -0.28405470592791726 0.0324321523867764 -0.2877802344086205
Ni 2.2789634723045014 5.131340587376453 7.152359626863933 -0.2508499370411744 0.06981547813124105 0.3198310921965782
Ni 0.5220029286933773 8.97103904849829 9.060687277384561 0.17321753396867587 0.6812027268391042 0.19130524470832216
Ni 1.5502632892669146 1.1533958149336556 11.443841901436729 -0.5748179342242616 0.2737754354890963 -1.071827859030109
Ni 4.151943038139096 6.693864529179969 1.5587960529040308 0.41516811163769146 0.9756202640585843 0.33866596551489414
Ni 5.593884320581162 7.979706110903636 8.007451145398402 -1.2009311762883899 -1.064945787198295 0.36833109667949465
Ni 5.465992252301429 3.009678486230564 4.6022550311786965 -0.9747365759020504 -0.5964432258035212 0.6334375436396833
Ni 0.7097517375698186 7.456618064767632 6.980145796595769 0.6710404415941218 -0.9648414282755255 0.024593887289280227
Ni 5.132578398281032 4.459263476886312 7.316202422073024 -0.5001708390323322 0.07039911854885295 -0.9771354151515301
Ni 8.091940322996242 7.099767119605049 9.216027124839638 0.5797289983726338 0.11466940122113799 -0.042588009873855685
Ni 4.679349869766991 0.4831853594280846 10.28970791751837 -0.4337093649749885 -0.4747675684678791 0.5852473570877018
Ni 8.00016161373552 7.0536609221884845 4.750401119201467 0.011192783392025885 0.5947486117099177 0.35744144635018443
Ni 7.323530804735101 6.190997072857461 7.065743582938077 0.06730196768076797 -1.0595287299477818 -0.35680792653124355
Ni 2.518719312917076 5.070199956783098 2.666699154803756 -0.8500527278677038 -0.3557082657091616 0.19484205421698703
Ni 2.40078394257053 5.231874324130151 11.493219714390142 -0.6318429454590538 0.0700936714932922 -0.05728957775008843
Ni 0.9355410957276559 3.2426760600064566 3.8687300961480777 1.0461294258227403 0.49762930355740104 -0.6628926156760068
Ni 3.566241637486767 2.568285959796809 3.009355029074477 0.025295541341995142 1.3661489798810407 -1.7074816935948207
Ni 1.075079428649747 3.232881994162922 8.255264502541664 -0.6226239979639471 0.8230836554780275 -0.6216914588473487
Ni 3.6141819634699726 2.538903762266205 6.868536814536717 0.5411004873671583 0.4181991851545314 -0.1433883664223853
Ni 4.051409301385398 6.752258484481411 6.14613410741513 0.20150352539756267 0.55157696141845 -0.5559642918528683
Ni 0.7391411631932955 7.305758731382488 11.239322110070647 -0.49354664884759514 0.6051788059043062 1.0944795349913536
P 0.22610287668622353 5.400930381324223 8.111442621080439 -0.07038060660609169 0.9754426008301395 -0.5776263502073342
P 8.512768925205012 1.6928554914280411 7.983211735947263 -0.26407080660682264 -0.7506363961508943 -0.30267052125689164
P 1.7523517308926857 3.2078998981690354 10.38778862025314 0.4830313511385681 0.3793019938687016 0.40256404972043575
P 3.9963854443862052 6.1206135185021715 3.8220104143488776 -0.2562911626614038 0.23882000245983384 0.38389835499013236
P 7.025191271383155 4.097298656015759 10.426534812101307 -0.32236285747949645 -0.10203885694132103 -0.3629389791296459
P 6.292398180755973 7.828142038463331 10.164980850405604 -0.14693751722622436 -0.6094686915289117 0.9259239252747216
P 2.3225308020992643 8.514124192618786 5.808397853856406 0.2096433808958777 -1.3918697816859127 -0.2743963569025468
P 6.996296970121509 4.055023347822127 1.6660275212165956 -0.46030022808963955 -0.04028198744849837 -0.011895980106637578
Ni 5.413254279673467 2.926356645631786 0.5593839145000703 -0.37192549889897236 0.4012509873359671 -0.09555247788602898
Ni 1.4054665187793833 1.0545064693086694 6.940117521774172 -0.5920594949135287 0.9661166954435232 0.1126153469055867
Ni 6.83573392205375 0.7013481760928155 8.996234373231944 0.2351214705623241 0.8455201301046729 0.5748917248849906
Ni 2.819407976452895 1.7834506004807353 8.994766166867022 0.17869038415778904 -0.8876476554023421 1.2736612569632644
Ni 6.289678610812335 1.9199983099764335 2.6653502119712473 1.2046114533534544 0.16572482513605652 -0.8021533330832636
Ni 4.090016352445751 6.974341638018384 10.355694080871771 0.3643661984944757 0.12377444884619973 -0.12730560192790977
Ni 8.03721462482808 7.35616564405876 0.2406295363386541 0.9357149432232142 -0.4588020462775582 -0.5894801642221268
Ni 7.526558898434422 3.7117521821455526 8.155491522562896 0.4488094538412207 0.627498552447429 -0.051589699151833736
Ni 3.0395847204944935 8.348438233726963 12.26805500721579 0.2529168468725322 -0.05452332785886094 0.7905309183529869
Ni 0.20633133214249058 5.004234574196709 10.293939062384172 -0.25111244667394167 -1.0232059842573475 0.12260511112844691
Ni 8.552116855784895 2.319757021459075 5.743561860781495 -0.12531273986759708 -0.1339164223762081 0.538678251078911
Ni 3.629433239432967 2.62166542566729 11.42900443379074 0.3107023904224327 0.7974896090590071 -0.38890506417610443
Ni 1.1977763051766828 3.3611987128989704 12.672174969235952 -0.8257303490722554 0.3590956941241557 -0.015332516592012305
Ni 3.0068233895455485 8.52987239996683 7.985142540256085 0.639127652045925 -0.8585944467901278 0.18593369598376366
Ni 5.625118716910589 7.80631319798549 3.6236932301798332 -0.3933404742396387 0.45838424201384925 -0.09314721087864603
Ni 3.0032635538053705 8.15512288982635 3.583928780748117 0.4191918880851039 0.20660562251081838 -0.13349450434744103
Ni 3.449101357356302 4.360464482422244 9.493211837374194 -0.012966844573313152 0.13153455240759282 -1.080361864643049
Ni 7.373368505097588 6.0986762566312285 11.472523877470216 -0.328858235395853 0.173775720464991 -0.5478542611512242
Ni 0.47492455278533224 0.0779197446874777 0.16728336741685648 0.692231216739124 0.3791397572592244 0.30188530635143496
Ni 4.62269969187127 0.19646408185861233 1.4775486749599354 -0.26272843364631526 -0.33309747028818115 -0.05787913170497128
Ni 6.124345021448094 5.721414984217223 0.3066229277849275 -1.1628711361918749 0.09379204355149655 0.5223918552140616
Ni 7.906395178934597 9.086706604705789 11.046373591883365 0.5431311446439421 -0.5175191005027926 0.9454722797202941
Ni 0.07797756943046534 4.726404754373197 5.866649054323598 -0.4152658135578203 0.16872967340065137 0.40321813836466686
Ni 8.139510209219683 8.730099607677687 2.4425297929611824 -0.31459581193956787 0.7224625048198396 0.3144531157141165
P 8.555776077802083 1.571495812082695 3.593648758639699 -0.7438743948367125 -0.17992348523394175 -0.14560979955373632
P 1.8653900683174645 3.0907776882707534 1.630548427347231 -0.05138246823703409 0.5374436073408615 0.11558754216003321
P 4.740942256164938 0.9912967971302863 8.104063641768247 -0.26207563055366473 0.8347410372112978 -0.1440663663260164
P 8.505838991162586 1.819554924383654 12.27006532054622 -0.13834617601278754 -0.7729803110637332 1.4204859027607084
P 6.412592330125474 7.8191430628358765 1.4410377708328845 -1.5523845233759395 0.10314597396257075 0.0874542742589268
P 1.760935091179916 3.2036533936058795 5.956015387587804 -0.08283117366461865 -0.43693995609714426 0.05640923202766414
P 6.802159430656542 4.070852871214997 5.916886106817344 0.6621205133966725 -0.43701374675787313 1.1333520436868352
P 2.3794701037099233 8.573331308368491 10.17467372294891 -0.007260795327471366 0.29795126140435135 0.13734961642747312
