# total energy = -381171.5251415548 ev
CRYSTAL
PRIMVEC
9.23165738367711 0.00000000000000 0.00000000000000
0.00000000000000 9.23165738367711 0.00000000000000
0.00000000000000 0.00000000000000 13.51146373123972
PRIMCOORD
 96 1
Ni 6.8721933780057105 5.356853763830134 3.8529964849664866 0.517799864968005 0.5201084584965237 0.11558239995371063
Ni 4.924184450918576 0.33641359205863325 13.079272621542904 0.6019101624553633 -2.891522778996091 0.99061185237141
Ni 0.6450260482498695 7.24182893508045 5.653587846612579 0.24631039729960807 0.6881637315379697 0.32985402365021904
Ni 7.775658748352273 2.2406986208197677 5.807389103055549 1.2798031081949444 2.1802795399308383 1.0039088265906324
Ni 7.871861848758764 5.914584337772951 1.8201024692853893 0.6990441258958993 0.026215224942787108 -0.04466931788291662
Ni 7.564475356652929 7.9894085407725655 9.66960062830855 -0.7407134806102276 1.2108132112887922 0.37834245816890966
Ni 0.23626118867220902 2.4527313249879144 9.87994670869354 0.2682753316064735 0.420779801397514 -0.5098489855520445
Ni 3.292101298911652 7.598761731752219 5.681029871012188 -2.5129062412301884 -0.05007994737552665 1.4899730510182532
Ni 8.783598784018887 2.4035450550554915 13.197308591391996 0.6882053834091826 0.49875930339678615 -1.9890923088576193
Ni 6.703263281629321 8.036886954110113 3.4190892068150736 -1.0287878492204992 -1.149525311012588 0.36228463337509864
Ni 0.3789050641391429 4.170327318283132 1.5037040333529732 0.007257452893361695 0.7208676495288939 -0.15386921134905113
Ni 3.9342553785849494 6.4603322205798275 0.2942526133083752 -0.44601055093984476 -0.39473658325621697 -0.050106686848404025
Ni 2.578097230709067 1.1209355206465033 9.051112825211597 0.6647474094965583 0.4253316824342545 -0.19308059144119002
Ni 5.417228802373312 1.3049501450014176 2.4185252653068696 -0.6617003951401185 0.3492576249878114 -0.262955976276089
Ni 1.0809901396409491 7.3483807232861595 1.4121638430333578 -0.48830005573667523 0.6944683335997588 0.8971854196894484
Ni 8.934619465292254 7.662275533767061e-05 11.805938133192683 0.5523012411789843 0.7387324456244568 -1.093632099389394
Ni 1.53825258751872 1.6457275414513903 11.532074558129942 0.9532349543848486 -0.11269582243453494 0.7032717908240017
Ni 1.5171674823149564 5.55165096387594 7.2446039712556916 0.20062292256482223 1.0624453893739445 1.6651626211116355
Ni 9.140069997827178 8.187824550468054 3.6240181507142637 0.00010438678834820733 0.8445554521985583 -0.792474672342919
Ni 1.4608728362849424 5.608776459060218 -0.052929706955245105 0.21915569126168707 0.4904281578232715 -1.4289885409150809
Ni 2.0189634448612725 3.31310331919999 7.8498766569712135 -0.34401437431100107 -0.9102669354637549 -0.0054805634985970126
Ni 3.8268358145958974 6.727145578985773 7.6580815918694825 0.041700465062579795 0.48523298677557725 1.3961709801644278
Ni 1.0249632116717535 4.147303565052752 11.72641017531227 -0.893299454371481 -0.8237930228402263 0.4106195730350606
Ni 8.41184917742941 0.4396069033496633 7.644191640341643 -1.486261663604937 0.07726473532043468 0.22555490991981153
P 3.3287325149574207 3.224839444045355 10.257308239737206 0.10203602872784363 -0.7875893192261597 -0.36006705689848956
Ni 3.4774545135706587 0.8782204803771178 6.562139860114691 0.3953695888545255 -0.7087636671765084 1.3329010164611883
P 1.5706003145913947 4.019934389704097 3.4992799976874442 -0.2364507308967089 -0.7723267366401344 -0.3519387713644003
Ni 7.72028726804922 0.8435306818551461 3.0867070794860743 -1.1864985458028277 0.35510534201784 -1.0372658047845233
P 7.65585030030742 7.085500050877062 5.4522675575400745 0.22284522429813233 0.23661862393314084 0.37855817372414163
P 1.4698090805219142 7.808440363316619 12.308375695919235 -0.27257318765087896 -1.4207175591555403 -1.1875282726189225
P 6.193472703887533 3.0867892412357736 3.6997223561536092 0.6078329556977016 -0.770682259058176 -0.47458142059900205
Ni 1.789132105477339 2.374788442660691 0.6772380699606808 0.6792705428133978 -0.4899409337742079 -0.10764540449482107
Ni 4.92544918796451 7.245567756274637 9.93372295862041 0.560978457238008 -0.5017530959177874 -0.015088261791690146
Ni 3.251860504873471 8.272109581339492 1.7224823094880162 2.527757190200092 -0.5072488289250361 0.5599106780951261
Ni 4.746373500248831 4.561426478509688 4.290511494778859 -1.6488816245634246 0.7653410493509206 -1.9451809521866499
Ni 8.457785904002934 5.013066847110274 5.757734788099558 0.1189916827455757 0.24784097501152155 0.7189987146409552
Ni 2.406157614062788 0.0862587591956779 -0.1264090829926173 0.25923430445012774 1.049712000967676 0.046279342682513845
Ni 8.429841677447858 3.6047406040038874 3.7127473013952867 -0.5881845853391547 0.45790395994332106 0.9432346486390272
Ni 0.6079674064725187 9.181150872676893 9.55360485471604 -0.9265972971926623 -0.0015552603022618375 0.7527225892559617
Ni 5.019298215767252 3.946164216462732 1.4682775485808877 -0.5702971635357728 -0.8262805651487705 1.3341498012666249
Ni 4.9024254347341305 4.933923849338002 8.616922135182007 -0.7284426336626744 0.11527386757435631 1.5261767546323202
Ni 7.525286971543483 3.979859765496768 10.78222858057814 1.4206702508573725 0.3762966313834745 0.15454901102489513
Ni 6.875802955998124 0.9529839799406912 0.663426587519634 1.3748688762525418 -1.7402095228451449 -0.8400660489686371
Ni 5.287967137284388 0.43730637435807923 10.050421261331135 1.1551190030502816 0.6188025673353278 0.524677823034761
Ni 6.021256137523166 1.128699344410236 7.183977831634781 -0.29894293589365933 1.0793791890148057 0.1315677196383734
Ni 2.0017187090816617 7.140160693570357 9.927953172826909 -0.26888494016601433 -0.026863657160063413 0.5777970714572437
Ni 5.943876386289388 7.736895019477228 1.2137782978068592 -1.0500999804347142 0.7192977339386128 -1.0113544842354
Ni 1.9799966195262957 4.728085587197755 9.755006382372517 0.8075390228752093 1.0810082399777963 -0.08353642726175935
Ni 1.016276222181061 3.2363051623741965 5.640887855706791 -0.7931015072936406 -0.09587412289150585 -0.4084205085012128
Ni 4.379784390073061 2.756406690871369 8.028025486297025 -0.36632512199305944 -0.621804330276129 -0.666360262509633
Ni 3.2607321275095558 9.028006910231516 11.041027937308348 -0.8728381011933354 -1.2544826271522846 0.5424935110599431
Ni 6.855751796408556 3.7578199448483756 8.071369963509245 1.1737065362444818 -1.589951940106752 0.3270219535180626
Ni 5.698397387833484 4.757303782456037 11.932311212721949 -1.985895656297193 1.6473808716481824 -3.384207594064023
Ni 6.969061157735612 8.171752235161682 12.09482715362742 -1.911403341515573 0.3530736562997919 -0.35018373634650657
Ni 7.305416590353447 1.767197687804772 9.354729108488526 0.4434065376580944 -1.1582315805373342 0.47921094895121336
Ni 1.759581570557353 8.077284686321878 7.935066390255072 0.6530779435784301 0.40715269753238265 -2.23236880442691
P 4.2344411780204965 8.876330781292006 8.414993479895436 -0.6572603570908938 -0.10739189372311828 -1.2685401336866151
Ni 2.772709797609481 0.6737965081305743 4.279283030041846 0.6979141260565142 -0.250783088358981 0.9828247522268233
P 4.089337989056941 5.099825962129963 6.25930734453995 -0.000613722324598943 -0.023332761188669494 1.009964288756093
Ni 6.246296246784177 8.159566447565812 7.557218350873298 -0.24605688652790528 -0.7286202968911194 -0.1707137937102157
P 7.173357733111835 5.865388836183259 9.498802044500794 -1.100518542096582 -0.8354642885305675 -1.1094145590346314
P 4.020395972567576 1.9567974648077935 0.7243158293727272 -0.7378425868203357 0.6723766439070421 0.4212747387560616
P 8.199087172336965 4.745930380699891 12.990420689820198 0.33511347227694543 -0.23802964534805457 0.010516583260607695
Ni 7.339647575509119 3.061392952087107 1.2089575263806747 -0.4285666444317845 2.380358931287365 2.1723335456108845
Ni 8.674951409612978 7.127956442659947 13.15338251977179 0.7259095828281756 -1.5064576789368376 -0.8643539749817243
Ni 3.322279586525971 6.083717530609271 11.505119042068442 -0.2794927975888477 -0.6672979438325539 0.3896972210600966
Ni 2.0518927663419313 5.407083211034022 5.125641368518669 1.7486216581682401 -0.6723169943137002 -0.7410446386974011
Ni 0.3425600294687321 5.941928506605502 3.625949413415064 -1.1834864984493811 -1.71303116265814 -0.922347777887689
Ni 3.357369115807716 2.6853413932099968 3.1543862052609573 -0.3207618315409637 0.49594780208992006 -0.7904087909528258
Ni 8.97567264517016 6.268987660352851 10.525673439730172 1.0748877289023553 0.4411339395738338 1.7090883759603082
Ni 5.488709524611815 2.9437816384724176 10.074485422335798 -0.5930799657582431 0.31804880348517484 0.9342003063509008
Ni 3.364154383900871 3.9621442151964077 13.179311475544914 -0.0344106162693859 0.36191490874050575 -0.37467632217123215
Ni 2.5864888071671324 5.502243134169047 2.003533652900865 -0.6323160284407303 -1.6112635571003349 0.33963707117891184
Ni 6.495440213176112 5.795440569051507 7.202217740068055 0.7253048593646412 0.9187672596252823 -0.3279526928624481
Ni 5.094406979312709 1.2358788853102787 4.763236968583208 0.3848496631598082 -0.048363478905052194 0.35170968607272973
Ni 8.709320869627694 7.31637456753246 7.725274209306257 -0.2618717420729748 -1.0437460131922283 -0.03760881149170942
Ni 9.101850936731038 4.702264641814688 8.805002381398452 -0.8634890558782676 0.8886074482124503 -0.4195127617596323
Ni 7.45126754355584 0.22579341249421087 5.185537284049554 -0.19013436432867256 -2.628868136010505 1.705492431078934
Ni 5.759861761934474 3.4155931782070765 5.947367799068751 0.4510049188306426 -0.18201636320722847 0.9800343339658799
Ni 9.316311566761089 0.3360341709448527 0.576569616932886 -0.02058605168146777 -0.20996579723230288 0.7714672168533164
Ni 5.764256030794803 2.889314860581784 12.932551123059989 1.1107283927500484 -1.7878145263176177 0.48598169201614366
Ni 5.500082926367962 6.789616203729149 5.236353864655788 -0.3182357226850003 -0.05111070263288617 0.27564488459766723
Ni 4.733144535381497 6.031466350463342 2.5121324236891485 1.0020409201439582 1.7165962543015791 0.492908501042964
Ni 0.09259629191125753 2.0857267902350114 2.471003544221632 1.8025760008975087 0.22349545628762155 -1.7999143949049452
Ni 0.5115510547831013 1.0838519533945246 4.6331758419747375 -0.8020582022662961 -0.3166506375860676 -0.6455029594446496
Ni 1.6464568423756885 0.48395855436999713 2.3795178206799066 -0.22923030188886973 -0.33713847312677425 -0.30929162611783506
Ni 3.398274589169309 3.102566143509518 5.596326646066438 -0.635364585459067 -0.519585239003202 0.5984204041345501
Ni 2.25629088994812 7.206665552540548 3.5377880096561216 0.7508161162618683 1.5461223445163115 0.6481308839857999
P 5.093585361815714 7.222830184419616 12.20252735999747 -0.43766449296799464 -0.1521972229632669 -0.10008121899431796
Ni 1.0982810337069078 1.029025140870377 6.792739273383455 1.4027311498804487 0.5282886803144707 0.5029093210094178
P 4.350003063721334 8.324462309715388 4.182892526992783 1.2922724443065485 1.3700452296116534 -2.922712060114702
Ni 6.188967655139968 5.549509219389393 0.3053712213238801 0.9214093252338197 0.5432923528121546 1.0108839723568848
P 6.800472632678198 1.162071785439836 11.709196827167377 0.3714112782667152 0.4039647867227043 -0.08905041510145309
P 9.01019904335846 2.9160682033490817 7.768456209350532 -0.34463169618002587 -1.9204963049557764 -1.5702464912580247
P 8.001455853509393 8.055433353564737 1.4328639881289793 0.43294163357102855 1.2360832987094905 1.4989688267589605
Ni 4.052919101128373 1.8418910267730966 11.864740097337119 -2.048626202557194 2.169903596013153 -2.1474943750800177
