# total energy = -340868.90084549075 ev
CRYSTAL
PRIMVEC
9.28727567690823 0.00000000000000 0.00000000000000
0.00000000000000 9.28727567690823 0.00000000000000
0.00000000000000 0.00000000000000 13.59286672536519
PRIMCOORD
 96 1
Ni 6.4716706788006 7.18168288173374 2.6326667386411784 0.39080716629482376 -1.7583795088859526 -0.003638110973219541
Ni 3.0281440000387065 7.510331695666964 0.677187256823959 0.7058151260711457 -2.086427075455052 -0.4865445064981491
Ni 5.945286484714995 8.509196737522622 11.6727241369834 -0.9536717848119511 0.7385542681753796 1.7821295601176985
Ni 4.145551824866747 5.713726847622359 2.462496920549306 0.1212452546664428 1.006815458714466 -0.4000520819318594
Ni 7.623775764454777 2.637920550324622 12.00460770893208 -0.5232359483819118 -0.7923646291276161 -0.2044268696919447
Ni 6.184257367562249 7.365570934291963 6.703443923227015 -1.7806820290378944 1.197432933327144 -1.957737448695422
Ni 2.5504251289533584 1.4044124959495945 13.428787241804146 -1.8089178839551363 0.6171714594898081 0.3419546635684949
Ni 1.9508386303089698 6.420377056867313 8.561576041948033 0.6021017096408792 -1.7696553389100877 -0.16549291163090854
Ni 5.717265299542798 8.146909412156777 0.4702816209596599 -1.5442266701554954 1.0791027954249672 0.9292347348155093
Ni 4.506176727939263 2.8308915582061758 6.1582204910295735 -0.635882148525434 -0.1626112192077393 1.4088313492409157
Ni 2.54962642327053 5.661040134381814 11.79632477012867 -0.9104674815103352 -0.7767819441980106 0.12765604328879304
Ni 8.9706350148638 1.6648462722040238 4.39842018659522 -0.6790121469456887 0.8145740753451197 -0.2167437393860848
Ni 7.884581031724476 7.334941500083024 0.2265686553024946 -0.40762835161722055 1.1490722826355693 0.193138441262319
Ni 0.00038635065587990354 3.934767822803038 7.420753138427579 1.8275799791410137 -1.2117076980786035 0.45233546471660807
Ni 6.518088481158478 6.340348604902959 8.641855250347694 -0.19054651216542667 -0.741342372443478 2.2940089458362105
Ni 5.607963355575235 4.2500801092881 11.127813685966323 0.16380883906026628 1.1515418272219844 -0.6736627097083172
Ni 3.723890947985512 6.61583705455117 10.06569394021325 1.0584758632032352 0.9150913534355918 0.45352639970091574
Ni 6.798443463106715 9.175205829697132 3.5587752651563758 0.8487306666221704 1.1967233088546292 0.8750579916627899
Ni 7.1766491784768425 3.019283939324538 6.098045447648741 0.35366912379194576 0.0755176707223409 -1.3888965579902015
Ni 0.4697559611730541 8.689862105523387 3.898216821810707 -1.7280430626859398 0.06030753864080581 -1.8891990375043917
Ni 0.2923309235529756 5.953997949023056 13.36783671092894 1.6134906466586407 -0.8617540754650321 -1.1339284850155955
Ni 0.8985513230025329 5.8755761956997405 6.256307121246161 2.3004115069284445 0.9748337636015469 0.25837504177362597
Ni 1.5746111045951503 2.805853063777036 5.696498023061715 0.2823485218700879 0.8829700474210148 -0.22870682528523192
Ni 2.038714829970884 8.909143964561377 2.0402072951247283 -0.856891348056092 0.8301050811011833 -0.1975111164087179
P 5.873337962332745 6.571462452777272 10.829654068383775 0.8897744719373579 -0.6340116709755984 -0.08986005548694201
P 1.2074851087554244 2.2218599004985693 1.5909093441625455 -0.3850468667722788 -0.2486146199527525 -0.5462159542168528
P 3.6257801708529325 3.577393466114127 11.827247682239673 -0.7057788735165716 0.6052572245507254 0.2387647237418662
P 4.556550909609758 1.1587269130013502 13.233891910463496 1.8958335121017738 -0.925940894555586 -0.7405191052112343
P 8.949432165167314 6.543721361212049 8.724512929972615 0.5190105974466546 -0.9014891892711249 0.8017743524772901
P 8.638243428951741 7.780842165710569 2.231744347687343 -0.435451801587392 -0.38410635723588044 0.6200097002695515
P 9.053923300487142 4.149944706122304 5.240281051940144 1.0243352127657843 -0.38262205938087007 0.7275936553988179
P 7.788067665957554 0.23191998337744651 12.545902623643052 1.0183018620875106 -0.029119800184091785 -0.3049109805516362
Ni 7.1801504812957555 3.767336822221237 8.222488330485746 0.01950773101562447 -0.10934644634632781 2.0410833572129303
Ni 0.6824633579683189 4.488763086598522 10.12966190685998 0.5595268123931461 1.8705739662040366 -0.9856961602373475
Ni 4.15953846159163 1.8279401151825572 8.456380002426732 0.34333148931136354 -0.561799924698039 0.3320664579205055
Ni 6.338853353566501 1.0774168170343177 7.722406629008734 0.6079250011908756 0.40801453131204574 -0.00036715353143162576
Ni 3.661898384812474 8.51079414888828 12.202289222887247 -1.0799193777889917 0.713191878151191 -0.5433993107036642
Ni 0.8175244889346431 1.9699054066676582 11.731989027376823 -1.0931711005925755 -0.9420622255974808 1.2617220823235173
Ni 8.005027706150113 3.7939262916391256 3.478047481355778 -0.948094804944806 -0.7952530064190046 0.18770338628967673
Ni 1.3276253030934637 4.501858144886759 3.2310514638511716 0.21298118701985902 -1.1872770758400648 0.34553286783805653
Ni 1.4620493269686015 3.7167861823184896 13.463829060546944 -0.4770599640464816 -0.3462764308723004 0.3119879420030756
Ni 7.859793293730642 5.356008861744324 10.421161619266291 -0.5213672706042892 0.3142643967420781 -1.1699455265401528
Ni 2.916715270008728 8.921746797254382 4.277198953402748 0.6301308478639535 -1.8877435360047874 1.5291144971044053
Ni 7.952591749344873 7.903434200749384 10.970979466595074 0.4697474895454684 -0.5226674774729515 0.11337639344132733
Ni 0.927904685574024 8.291270820690364 7.882911179610842 -0.6138555077426976 1.419184924561098 -1.0563811854577356
Ni 3.4003594227876195 7.335591609359743 6.4056790148481895 -0.5918190967679484 -0.2557363185991983 0.5978660742929768
Ni 8.307783596319078 8.176777289784416 6.1483796940350945 -0.15904278513019063 0.4032906434738151 -0.6895981499916511
Ni 4.6835451131795125 7.387191711380627 4.354556384967316 0.8092698895233869 -0.5920445825151933 0.4869887931244193
Ni 2.241883266221576 1.0125080493914176 7.083270268151255 0.003703416993516203 -1.0590289074932278 -0.2554840933790761
Ni 0.8247388444511697 7.896208700502401 10.197939169283835 1.369054840673926 -1.2669517061535729 1.7495146022961545
Ni 7.1322838639783255 0.9262329760053128 10.330904162196504 -0.1405457547672676 -0.4233182515486516 -0.42108370579117804
Ni 3.7345991765006445 1.4706121948705548 11.013810523200531 1.5316164375906527 0.24804332083031475 1.8595459905246492
Ni 8.84919460197232 1.3529145539579104 6.886975344410581 2.629203664973052 0.28520861702670236 2.875169020228416
Ni 5.033954013332127 8.988355136292139 9.658819334467266 1.2914327220140727 -0.44714106499986217 -0.29099617024275687
Ni 1.7920447958321766 1.344035918692978 3.539908165218395 -1.0401711513567764 3.600954418773902 -1.6966555495135942
Ni 2.0899341537011167 2.7948569297250696 10.160450153477948 0.5872157936679823 -0.3302929109598505 0.13699943217690602
P 2.166238408237398 2.915043560440018 8.116042223698065 -0.035107642336410505 1.3258312540986006 -2.208780475584009
P 0.20643198481983097 0.4437450890114472 9.428855251285212 -0.3128515755549515 -0.17580792040367144 -0.32296912360492763
P 1.1038669773214802 8.255022584875478 5.729922927160556 2.207340657813689 -1.2252715528059672 1.4178847176924354
P 3.9066645274979277 8.934284619019715 7.891922622913732 0.02151164881953069 -0.5762626370905882 -0.7628540212630088
P 3.5060021802547805 1.5868238717221232 4.655149268699877 0.42009537373597977 1.7609999772279348 1.1055766733457797
P 7.421628928496076 0.8689518476334263 5.640835666788863 -3.4548139435276757 -1.7045164403189097 -1.4582466664492497
P 6.4442732164245005 6.134068931399389 4.788562837013483 1.0307971663410442 0.3949291588829973 0.4644242775603421
P 6.656338862490888 1.9827775703467339 2.3986376150245414 0.670405122002968 -0.03978087944236374 1.2323120045925164
Ni 9.008796429407322 6.160881295426439 4.2954679528061455 -2.115985505838459 0.6357317389904986 -1.00937473480121
Ni 8.415385968891783 3.42470137156313 1.027765185388521 -0.45744681780124447 -2.657714627928552 -1.029155002751931
Ni 8.899633794570487 2.3757964899507185 9.658900133763085 -0.46455103294619343 1.6194766890387462 -0.6930326295944969
Ni 4.715084700375862 0.2818298012788552 6.107043888766097 0.2098989485501095 -0.47114179878983375 -1.2769823509166975
Ni 7.371236172274817 5.1210686564127395 12.632870527772631 -1.0097395743397966 0.2952642014904915 2.009766035156887
Ni 6.642491534896731 1.354939179991127 0.37250332828574645 -1.2115480325722876 -0.14828271840020912 -0.6994395615621052
Ni 4.7494383320128755 6.391150001241015 12.74105614123931 0.8801341206341164 -0.711896042157903 -0.3122545654009009
Ni 3.6267739093187776 3.404352951201763 2.6966347052879094 -0.5601341069598417 -0.2965065585380248 0.9943677198694164
Ni 7.593480672159579 8.335051036839833 8.469497350175887 1.143780952329643 1.2908786492828155 0.7429873642460688
Ni 8.403201063590956 0.6684209975911455 1.7047629817946928 1.3272584734634303 0.17268248740081227 0.9688400079119573
Ni 8.720500827007708 5.366642792056403 1.8743607037230505 -0.2724759999513824 2.929739913495761 0.8843435307297738
Ni 2.7509838408217844 0.016983640490566818 9.563260700609584 -2.438514713692491 -0.6505397505376087 0.3889397740687818
Ni 6.000861540599257 4.031216177642288 2.1067450508695833 -0.13293040431385492 -0.42168071594522855 -0.4424225764782703
Ni 5.83538086784762 4.946309995554755 6.8284032847606335 -1.3260294861523358 -0.24649140296216257 -1.4534950106968776
Ni 0.5951638981076096 9.28829698202044 13.514476288113665 -0.325917150489658 -0.5608784413250341 -0.597608449756216
Ni 3.9470920372345915 1.2584443887749686 1.8024688337206287 0.8285040551626505 -0.7708156993122467 0.35748309822139723
Ni 4.0062241195900565 3.9820307672206536 9.24134144641796 -0.2178140896321281 1.402387650498101 0.09232780030114422
Ni 5.496562487371403 3.310133542454128 13.181613837339748 -0.7971561369789885 -0.21442023345923075 1.1763285472483611
Ni 8.01264327196313 5.815589684009157 6.890590880716687 -0.37560834706719826 -0.14527966990782723 -0.7364287371919447
Ni 5.627782401239845 1.8095048735498263 4.460552987626522 1.477465919690178 -0.1173160948153657 -1.8703168558879077
Ni 2.05841314105553 6.709137023036014 3.9209845774090146 0.04418235094416907 0.6529920687328431 -0.24652688418578836
Ni 3.319077188646732 4.724279103003774 6.861964711807585 -1.269626938992891 0.17471725844265396 -0.7131839077313911
Ni 3.4664290998532357 4.688773849219426 0.2957477121659135 0.7236786366151279 0.1844933639928113 0.6831624216686363
Ni 5.52744267801565 4.156139318801917 4.495405345951534 -0.4069338966533573 1.3982018945515275 -0.5599250762728293
P 3.4072598683962436 5.205722171517194 4.5109559598507 0.18668805765128493 -1.357276102871443 0.8965035631310754
P 4.4976695836896 5.9263683047624145 8.206978580598259 -1.6819087302217228 0.40333229534502796 -0.6385041595293133
P 5.998326114420046 2.755014518337455 9.669217367984649 0.060849784297521005 -1.5188123438474488 -0.5570109879498278
P 1.700175067756119 5.811215377304363 1.5175890912064138 0.7269004859865352 -0.22388574974750475 -0.12607327218270545
P 1.5558972447009676 7.521634309806528 12.498884863295512 0.03488601324390766 0.7685153333138441 -0.7047164936903283
P 4.273846246989944 8.350263593915104 2.488296971559748 0.13170913031224413 -0.27621232706536303 -1.055320091183073
P 6.03510372493169 5.798696130089793 0.9525828337183527 -0.15998252333564061 0.7088731961711792 -1.543801923913251
P 9.159194566939034 4.070965716276086 12.031004931749568 0.4311331196073801 0.22781413826763344 0.007768073981193073
