# total energy = -381163.89706833113 ev
CRYSTAL
PRIMVEC
9.31789200259275 0.00000000000000 0.00000000000000
0.00000000000000 9.31789200259275 0.00000000000000
0.00000000000000 0.00000000000000 13.63767681275093
PRIMCOORD
 96 1
Ni 0.09991668757086272 1.0304936285705086 7.027822492240743 0.45135638863279043 -0.5114250717899128 -2.37456212209993
Ni 8.228854043544365 1.366878847210241 4.718922469091842 1.8519154705625847 0.5735943462298058 0.8374175556021964
Ni 7.406354399918209 4.4184512015394235 13.488793820791212 -1.038620519040205 1.447431835221933 0.31078003773790347
Ni 2.9807004678724693 2.9344650878306324 3.448845338161052 -1.043973555822002 -0.09211876961413167 -0.4360709232286296
Ni 6.438225422419852 2.673797059481099 7.679608104975222 0.4005799294108714 1.0863587056564323 0.1888506125202425
Ni 8.319265549498807 3.7035079851246597 1.9052107388944577 -0.413101716026966 -1.7311990918164184 -0.6012915550347581
Ni 5.565660745145008 7.323946963181005 2.5111597773641634 0.05441534152608693 -0.7726666364780564 -1.289118472058599
Ni 2.7181315895574913 7.2282335766856916 1.937640730167656 0.005918936587596258 -0.10608603042750117 0.5616533718178456
Ni 3.4319566589337587 0.038889153998913815 10.13475803360269 -0.7578449980841915 -0.8843612713415865 -0.05585078842103285
Ni 8.04301800574622 5.962267499699774 1.7170377737858549 0.5802321632612976 0.34558917499728864 -0.6650988792987061
Ni 0.6165723671246228 2.6367863925068593 8.503609792789756 0.25091087218609687 1.8849821712095667 0.03402237969203173
Ni 5.507610278063058 5.3385278100583875 6.739290239691872 -0.360933775774159 0.12432980712903749 -0.7960122531825323
Ni 4.049742215595151 6.37409037187008 8.3684332701491 0.7553631122026024 -2.1062088860676695 0.9283399909153819
Ni 4.508061368782943 1.3661427337432308 7.261053987633164 0.3370770237612195 0.5661358330692314 0.14530718071165297
Ni 0.7374328805157268 6.2942080838614825 11.801227607572534 1.4533867672537872 0.02820345901740949 0.10269628801966185
Ni 0.3404506149138666 4.182121507061167 13.531998090569525 -0.32269478689761844 0.05561990335714938 -0.4629528352211382
Ni 1.3190128360705966 1.9508311380651213 12.529301597376042 1.3793734489911147 0.8601296524877315 0.5338114099049128
Ni 5.2427678341031365 0.2190673677822655 1.4976079400052769 -1.3872361395686432 1.258111996374756 0.9961191553428845
Ni 3.28922518946966 8.300862712823548 7.937332611245912 -0.10799713140728497 1.5294268861385014 -0.6924381905436074
Ni 8.5017937356414 3.1658003922036038 6.487033472439429 0.4328781273229448 -0.44866084407849827 -0.8147157431293065
Ni 3.9501712218170226 5.102132890336219 2.1365190213806655 0.790169164138194 -0.07696545891246101 -0.2631547225504565
Ni 8.024298360743389 5.229629606400801 5.126989299001999 -1.0164403833987397 -0.0028356696765822133 -0.6837941417153643
Ni 7.517097546189316 1.5998261468970452 9.247012646701856 0.13307541453215146 -1.6489878111239857 0.7924415051121385
Ni 2.8473334798557803 0.32072277399799054 2.8072069098009305 0.4103928017362351 1.6290951859651168 -1.164045101895318
P 3.0187174671813555 0.43286360406721797 -0.0779655976267758 0.0035959448813744524 0.7401311257441963 -0.04661487164506166
Ni 5.678658821277083 1.379150510957742 12.480792651689262 2.1206718555705346 -1.9039373721558306 -0.27775756006529584
P 5.914550574831929 5.805801457446141 0.9898909142350987 -0.6962495938698977 -0.7027488284409962 -0.2571450260212668
Ni 0.5126899847238919 5.830270241805243 6.456730755906971 -1.4572948440589417 -0.6843286740625957 0.34763808710651745
P 1.194591024361881 7.481894550260646 9.72813640873979 2.6341139577904764 1.121831187531429 0.42204401282191834
P 5.4644591202690735 5.514225981374162 10.911463965267215 -1.3380553069686183 -1.577759254695302 0.18866549309262992
P 3.1808394698713838 3.4605532694433108 7.572525026676794 -1.3976426796139478 -0.20375606887716521 -0.5359618805890124
Ni 6.526065190185752 9.20447460620065 4.67054956462808 -1.0358588971346676 0.2554079887255021 -0.2601012804361133
Ni 6.125554238888236 2.240365995791844 5.515744797768121 0.8726540102069874 0.1354631980380377 -0.9474543431473296
Ni 2.6413894311486703 2.2046971052638007 10.030634317799484 -0.995142650362228 0.39018598777105706 -0.7210805368706484
Ni 1.8904605158782894 4.230639770639935 1.600817570604512 -0.40833437654530963 0.1742107511198806 0.3366018838970138
Ni 8.269107336930244 2.8071733653897755 12.122407890067109 -0.3238183589791004 -0.7535180885740635 -0.3165241393105323
Ni 8.852910541513324 0.32470989997942984 12.56713317063438 -2.288082553049446 1.3349735827195008 1.0879455905275779
Ni 7.014266822977368 8.520066121828831 0.5186562309634704 -0.9505247545425373 1.0783191231814075 1.202293346743239
Ni 5.631286658412775 4.998862693439064 3.8372197351448856 0.3650393133021004 -0.691109701540171 0.37264309379128724
Ni 6.168043826351109 6.973296051908453 4.976919989597767 0.2912429961462404 -0.1190392481540595 0.7822866760663236
Ni 7.182342958647391 0.48876350167846094 7.017157233071882 -0.3455819759084371 0.1588106145147265 -1.039486980805558
Ni 3.1001372073678874 6.719402131033812 11.1276893759933 -1.2725831934077374 0.058889061026724386 -0.16231862766798497
Ni 1.7719462476896308 3.946686330213708 5.418971966953831 0.20147755725563363 -0.9940100794196817 1.9383119929809587
Ni 3.5397833050127865 2.2721493253611116 0.9298892805709704 0.5556603874592043 0.3637259938073155 0.16090374959832932
Ni 4.105472527572221 1.217028508267714 4.80503097252647 -0.4395092594862172 -0.7449403742073816 -0.041900753998843965
Ni 0.24839636460203288 8.54520579441103 1.0340521315205242 0.8192977060730342 -0.9156533965866489 -0.6452846727862565
Ni 4.969026803295179 7.673470409523074 10.421094059010112 -0.2816334980809343 1.1079950529792852 -2.2514857277620193
Ni 1.0649046036802434 4.037712817039324 10.587269344714691 -0.2073476428831655 1.0518159346845564 0.598916112824046
Ni 4.224713591335902 3.5746881283978573 5.530609630855735 -0.5678672139380413 0.6273473715815454 0.3282450272918863
Ni 1.9939729779671174 5.527457387996373 3.798065953013527 -0.39405652647005684 0.26949891960092937 -0.9377384014111463
Ni 5.404079180190254 2.4987418227124594 3.153535250980494 -1.188757002819701 0.3168573542802349 -0.5263086737699645
Ni 8.756833757230499 7.969089850717615 5.500551974882548 -0.0801274015802104 1.5437795553157476 -2.272365399424506
Ni 7.621718837424653 4.8697726178446255 7.673211372125822 2.9531683197220304 -1.6264808882707213 -3.765507849309676
Ni 6.530509824663776 5.800853656800794 9.019195778343356 -2.623445422333037 2.8152101231762807 3.914814123878393
Ni 9.138224394169722 6.122852050211869 9.075750723761317 -2.8196787004705954 -0.9006795488856358 0.17415598662254525
Ni 0.15063863260466742 0.408999550898103 9.179874439564523 0.7143056800406602 -0.7414673280571166 0.7150209609401298
P 9.265926103858028 6.592967654655801 3.8282866720964956 0.3579119582286997 -0.4115174022589816 -0.3519572833071616
Ni 2.175364381287238 7.729871609723243 13.36897318414591 -0.050139854079184615 0.7551846776432091 -1.4817591477488932
P 8.0456363333947 1.8583231064134977 0.5849092383619937 0.869271981108632 -0.463934225297801 -0.342622636169797
Ni 3.818528043818016 2.2488173238244813 11.926188925227324 -1.2510759154635809 0.6855900572735225 0.9215489361354775
P 0.8559024228228452 6.219404046986055 0.6653766899874057 0.1368266540444676 -0.09646316262575645 -0.04146443779237375
P 6.72696825932764 9.45915123000224 10.73991598304266 -0.6105220724940905 -0.5448848941102552 0.0023258199196992202
P 1.2495479513039915 1.4068060143765593 4.5480835784475335 0.2515456775566184 0.11666072061955392 -0.492550603482913
Ni 2.3214316560828516 1.24339814259226 7.940933044709872 0.19865320043296109 -0.1034082264850219 -0.07808954521457519
Ni 2.1997306688344778 9.264714777899657 5.926729991448753 -0.0416133046654122 0.1745344530078865 0.04979506914525618
Ni 2.5702100542563713 6.549331966478469 6.106938022486466 -0.04235121127270125 1.1436223152645915 1.8264317244691837
Ni 0.5010510058423405 8.010554470061866 7.558777408838477 1.1134203377599148 -0.14520382236456927 0.9099218934195102
Ni 6.128070069724854 2.9912203679263256 10.890994420149134 0.5663932004956762 2.7253816922582224 0.34747327939387895
Ni 7.213772208321134 1.14379919513817 2.6405545480265933 0.3583117647702797 -0.038784062746733204 -1.693949720546657
Ni 6.000927433555796 2.6123828333916697 0.6896050727332308 0.5205828270297809 -0.2337911817866748 1.6883490865304278
Ni 0.05723981047904148 3.5030335390141962 3.8735641728420203 1.883495816472027 -0.3687591853558488 0.9174174304656072
Ni 6.558463500626192 7.136228711201391 11.713932004698702 1.7074762942781818 0.29133504163941437 2.14100105404619
Ni 8.652203148103174 7.975631010892821 10.684070129204944 -2.228241155411782 0.13027779718235627 0.2565079066579002
Ni 7.75000757430817 7.874401432340923 2.880631898662211 0.15321358004292324 1.2229560172989131 1.0141166203615697
Ni 8.440686999987557 7.483133829894979 13.064375954021438 1.6049715534440359 -3.4058030608466123 -1.2635665917314238
Ni 1.7641937615560541 5.371578372937951 8.461332653264199 2.421829796837642 -1.1923912571381787 -0.45507754623811947
Ni 4.8687569676179905 8.509620764910874 13.066858240446903 -0.7908947294503089 0.1705530997626353 -0.7072701133501174
Ni 2.392107866807828 4.638819347043141 12.730853191800257 1.3925413538316405 -0.1994201605059727 0.0470910399505318
Ni 5.19118398406049 4.231208162051171 12.899223772857084 -1.3634704046076132 0.6079252583011918 -1.0882366394054355
Ni 3.3770929109115224 4.371684701654301 10.530304412049281 1.4845688492835465 0.675753787909391 0.09712984967547789
Ni 5.0697625335717404 1.5800442622076416 9.648424638154562 -0.417812491239074 -1.1482186763860225 -0.642976336368054
Ni 4.254856971915375 8.166852790259725 4.088398422294377 -1.240974565363521 0.6848382667091624 1.0148414143427362
Ni 0.09245678324569252 0.1781320047029028 2.8957017253735495 0.4961455199230229 2.1924958794913727 2.151554146971688
Ni 1.5998168290050578 8.17258329383202 3.9305691724429774 -0.2533899298542088 -2.095954555329513 0.9224326242920113
Ni 4.1260930225404975 6.37589804291565 13.40265829546982 0.49498286707348954 -0.9276126258310541 0.5274690126266528
Ni 4.917182052276884 3.9780130830755898 8.651741912449793 -0.498600923442051 0.2369274134228113 0.9115499159412367
Ni 1.2450287736900678 9.214081352839733 11.25248763053831 2.2388515839377767 -0.6535769947020357 -0.35246764728467683
Ni 8.236802205409678 3.719478851991187 9.632536700526721 -0.9625174081280392 0.7245461268217458 0.127445984160516
P 7.2836470803351885 3.3192753911292576 3.8687906167768387 -0.7844595153479265 0.14530898048386587 0.532177988066548
Ni 8.123664360897791 5.281465039527108 11.322149122825852 -1.1340405851134276 -0.14615281654139992 0.14382236863601036
P 4.952366412421578 8.858333554650033 6.303170964164231 -0.1200689749701545 -0.520225186580046 -0.4617696135463144
Ni 6.5797828374935285 8.258857655744025 8.578998993281996 -0.017960955353794873 -0.546340138499543 0.6628203676771747
P 7.769342200182175 7.028430018798326 6.990454950003383 -1.0746915537311492 -1.1931849566840675 1.6197685092475522
P 3.8894185660587044 6.116459976308463 4.686737538377914 2.453809435068032 -1.4076262731892208 -1.571194456993591
P 0.3235377091674059 2.031952705708054 10.646238555946606 0.06846616319219821 -0.8725848475319489 -0.7749281788187234
Ni 1.2797006497754515 1.7474960991145039 1.3235879210364454 -1.1482826968547384 0.039427866978319195 0.2691057979275688
