# total energy = -340871.6820496058 ev
CRYSTAL
PRIMVEC
9.20283002207209 0.00000000000000 0.00000000000000
0.00000000000000 9.20283002207209 0.00000000000000
0.00000000000000 0.00000000000000 13.46927197361616
PRIMCOORD
 96 1
Ni 5.634193278819806 3.1597824131192205 11.675730493325037 1.8982914867239626 -1.0410345277983362 0.24587973752009268
Ni 0.24432132726379172 5.242962577852206 1.2347013428584483 -0.20721960194573347 0.1626238176132296 0.8403411570068947
Ni 7.374669264183851 0.3772654067278946 10.394250246249227 0.7649849515630825 0.963417037124173 1.0474540581714347
Ni 3.0455937008119665 5.67661832425311 0.9692539994782375 0.13167956262588934 0.8513030553350371 0.6522623896556703
Ni 3.3460200800245956 2.314447277908461 11.28836774172742 -0.503131464322553 0.1538851521886511 -2.34019624302555
Ni 8.126779733399085 4.429340394173587 7.166191118471823 0.6722912832820873 -0.6887877382752138 0.1808467683791595
Ni 0.15675548131966288 5.3481417197735155 9.421930784160615 0.25326343157867354 -0.9253096887294902 -1.9045366963027266
Ni 6.673809354191626 0.5785184107545235 1.8219210292002148 -0.9602049579447787 0.8131818229832835 1.6401995234083946
Ni 6.081220736937541 0.48302524721034074 8.403303602741016 -0.9828522630306493 0.09082216228989519 0.8017265299584903
Ni 0.26696673058217174 3.0178103576095485 12.697832663281647 1.152094357291345 0.8804087144517418 0.4534258695673094
Ni 3.837561625942958 1.910820365184102 2.400479932405911 2.385377210437563 0.5323587366187863 -1.2863301106801848
Ni 1.5390536492688753 1.14194234005141 1.5246272932555893 -0.3829493608133018 -0.510689736285785 -0.3945681759991527
Ni 5.958749477799491 2.6732195981291484 7.041021589632895 -0.07078375558178131 -0.6598916240661539 0.606524264188607
Ni 4.774004776292484 3.8391077013513732 4.887109395247884 -0.7340957181833938 0.6253781636703165 -0.6370951949969286
Ni 0.8524986179364178 0.7344824487103546 4.088570649631127 0.4748441873420854 1.262530694267742 0.7937738507703168
Ni 5.754676726718465 0.6272262281004778 6.1883490382130315 1.1814005624546298 -0.5229024763018929 -2.4495894834494134
Ni 0.14356322478416575 0.0641474049215411 9.202570292195901 -0.6309728841492745 -0.5887260596649216 0.15376199634722554
Ni 2.040175341021526 3.524150053865602 0.9102693820812264 -0.6844081211502794 -0.6007919896905202 0.6779052870347549
Ni 7.441371374661202 3.14447810714187 0.14629002325746032 -3.1077332715865253 1.5469026743257617 0.5127923844510847
Ni 2.6024314312152703 9.305533392698482 11.404459599239793 2.899909460397889 -1.332876848091472 0.8604842076136728
Ni 1.27169303757075 0.9751134412195356 7.313047115762722 -0.771702215682258 1.0912294034851722 -1.5891757240623599
Ni 8.318529895361847 6.485961192069151 13.00979478966361 -0.502803905779805 0.7805882053179782 -1.1853528622341587
Ni 8.602547629019686 8.949466704442521 5.4089632220010015 -1.0645446951051345 -1.653958781976016 1.258154419576917
Ni 0.5895176329458217 9.645393897655515 11.9221776742754 -2.9409100711799674 -1.1595875803445965 -0.2088756494919177
P 2.4110401796151772 -0.0665861548217202 5.703212661843819 -0.7872707595444765 0.8398485336411923 -0.30219306739984086
P 3.490145597710274 4.320102804305188 2.9922927511068447 0.3966764805914071 0.932063462513556 -0.2853114611531538
P 2.1906139999582344 7.54022817250167 1.975875169125106 -0.22761719176547895 0.4817445140063445 -0.07705878995721567
P 7.127812557306854 5.169155882759994 1.065211905927926 0.334988516663307 -1.41950091313962 1.5709116356458492
P 3.528493789536864 5.9199135359928645 6.493724699298552 0.3260233370502192 0.947780873248813 0.1038975074166146
P 5.370108874534752 1.8884850972303862 0.5441467616896973 0.19190919684090818 1.254440975281072 -0.35381207712771323
P 2.1691622036664704 3.2862937145447377 5.470301923263921 0.1880707969314245 -0.26593048552338067 1.1222574764355704
P 8.017532940700873 -0.18500816884249244 7.527867851781177 -0.20552884450687187 0.8118327651545567 -0.5077846468238479
Ni 6.0553147710167705 -0.15706101526942118 13.30757351473933 -0.4642116473289037 0.9933426210390119 -1.1748799877272926
Ni -0.14703177134030726 7.991728205908035 1.1500629170775158 0.7545228756894942 1.1558399403767061 0.14069847829504803
Ni 4.9102434688292815 4.035808985752989 1.3270195301174923 1.6460361846948297 -0.3665889171774073 1.7778085641448416
Ni 3.7229495834643522 1.349751440036105 7.262456399437233 -0.34602034899743633 -1.0517781394680854 1.458245123787353
Ni 5.964869359624467 7.683433407206148 11.420555348580976 0.04916617731200565 0.004819789986146537 -0.7111596782125107
Ni 0.7683893548696749 2.259294718845165 10.43782380484307 -0.0797885301835529 0.8757948698288144 -0.8549655917882887
Ni 8.168017613786642 1.0375822499833687 0.16084613917109536 1.5846112446201288 -0.6922031917146659 0.05020593143042966
Ni 4.419677422870991 8.051749061941877 5.538564833677387 -0.907416096278521 -1.0965230477839436 -0.33222740897840203
Ni 8.22447697468324 7.220135345980804 10.097051299451666 -1.0229815269513671 0.8859658968245451 0.5650001768028915
Ni 2.0473903595941314 2.6949658849748963 3.473927450732593 -1.2214359811099609 1.2773317638363162 -0.22948406977088864
Ni 5.749808429747919 4.8713062958947235 7.243113891738378 0.6606945795834235 2.074620569738427 -1.4954245610511279
Ni 6.938455131095211 8.149326666438476 3.518079867321609 -0.06066697886275359 0.029616537314852222 0.31519487897614745
Ni 6.365855060192784 7.598261217296121 7.000411342238516 0.40534264090683736 -0.8217963041251718 1.0662989587920797
Ni 2.5438554194619116 3.0514559034022084 8.880856847345143 -0.7679296360137032 -0.4096530953567332 1.89541802183091
Ni 5.6915269085485445 5.76986139590826 3.025494720502566 -1.129276845176197 1.082815468389864 0.5914192902263686
Ni 0.014779744678066538 3.7501991625376743 4.939895906766515 -0.18784659673576035 0.43080993194000644 -0.35698430420810773
Ni 2.1852027360287805 4.745880928387022 11.100511297058114 0.4833074876180902 -1.0925969732566603 -0.1543798324368825
Ni 4.546004667700268 8.216663772172856 1.7807319238106616 0.11566621791676852 -0.6907078381160621 0.3636226354602318
Ni 3.671837066688523 3.882167742041706 7.189573668458144 0.23452857417333156 -0.21145729417616485 -1.777331881618739
Ni 8.087640098208663 6.232321999620713 2.8665977406856515 -0.9960574488670135 -2.5132409988617876 0.8916925148956772
Ni 3.7143449375901354 1.53193065899439 5.0272436456441 0.3332026284074778 1.198839840977 -0.7849534242652094
Ni 1.6660803091638643 7.144939023586979 5.597855905307137 1.6137683258000595 -0.30655031592727205 -0.8799528578612459
Ni 5.686152455938339 5.62356401038695 12.999113065100827 -0.9581331630174142 0.48933955274478297 -0.3210240840634148
Ni 6.500722531087594 3.6061012533414316 9.384553490879188 -0.006817794252781807 -0.35849097066062136 -0.41683830025126273
P 5.233041927314874 0.3312043232358704 3.861262593840774 -0.27895543702813896 0.22941207888237267 -0.3951001372432228
P 8.783705333868838 0.7405066211052875 2.4328067126865114 -1.0048585920984114 0.08109079393474422 -0.7464457551083146
P 6.863709747362176 3.553019330985835 5.295012862985878 1.4295315579027446 -0.1683542923391036 -0.47478942284475
P 7.98926184751842 8.519620929583784 12.2171817461628 -1.0261388416334263 -1.018326030457227 0.20597235980219367
P 6.4025927568022745 6.754058030152236 5.077012549267378 -0.7526397997341683 -0.5111486782000745 -1.0262149462870005
P 0.5502519189869759 3.402157341877775 8.403573245654506 -0.751671779393944 -0.1093716431573084 -0.4887505130105325
P 4.462535001305459 4.860419348227132 11.187563625098733 -0.9476206935218648 1.0311324381932758 -0.3604676347710179
P 4.363678203464992 7.804542647532024 12.917475682121587 -0.7016558524871335 -0.909959431525665 -0.29879098369682733
Ni 1.3210110025332398 5.244508653260622 3.4019613216027795 0.4794405484635163 -0.21044556508219883 -0.05234946013599372
Ni 6.742747752313293 7.2184512281252085 1.1886043683301577 -0.9465937949192471 1.0952930320315846 0.16901172341744441
Ni 2.1550726712243033 7.747365465910089 13.159303042506329 0.4504035378012179 -0.23406063339797756 1.8349870702383622
Ni 1.550833271428231 4.950827948300186 6.858162281551504 -1.5853501796686826 -0.2434168778018969 -0.33401432567549577
Ni 4.979595994292487 6.1005926936917945 8.981943490849057 -1.2361959130279547 1.5044082526069769 0.8305483392861891
Ni 8.843772204051739 6.818404216197716 6.933469037903072 -0.6254977199673163 0.5929904913682303 1.8359250086715995
Ni 6.511609478755186 5.519516816532517 10.709997496532868 -0.5182451800355397 0.2757289596710413 0.31097209914405155
Ni 5.1265375779006375 0.8172168090031852 10.758486286529298 -0.7829255952019032 -0.3206412468026994 -0.5051875755206332
Ni 9.05542808689785 3.1172653393877963 2.041456374931356 -0.24352563546561928 -1.2961815495529676 0.7215739315672992
Ni 1.1385649015104071 6.94844940427104 11.289660739316004 -1.5688763503833754 0.1346047066924843 0.2482047861088435
Ni 3.3923655309578105 6.731603125410964 3.6352217677155325 -0.14616078696119988 -0.8770500823921541 -0.13330192872066074
Ni 3.38853715375602 7.117799878471402 10.776723534367731 1.7684281513712061 -0.08840815353176387 0.04761451655416961
Ni 0.4274355537309752 7.628584541526648 3.4027417215708367 2.292657059794007 1.9114154257004308 0.5041797030814091
Ni 2.4578365692091797 5.783868102882119 8.941010224128277 1.3812105021998535 -0.7140187449278607 -0.8483691695176938
Ni 7.231970185119032 1.374967193720976 4.012145749457401 0.42496941399882937 0.7479627059734731 0.4644990966623356
Ni 2.2792924680266338 0.6370079159076489 9.356604496740156 2.169151034117845 0.3655987853499961 -0.8985151942444655
Ni 8.521663957802048 4.909139129251842 11.425309530461853 0.6510652840237755 -2.3424189617084816 0.2546736816626388
Ni 3.582707659959336 0.6101163269140137 0.27574254909089174 0.3870430712667012 0.3956308129357122 -0.6335619850326896
Ni 6.765101425926631 3.769009746673395 3.098376531198673 0.7895474713937951 -0.8276954432184263 0.053804961635597656
Ni 2.506399902127086 7.9670554191820715 7.640578589620624 1.25159399275058 -0.04365578901673772 0.27285035257166557
Ni 8.199270423828182 1.9930016354052316 6.19640335486449 0.05134004503487287 -0.6961230955943624 -0.5010956648394467
Ni 8.068939948030687 1.9927715646599318 8.477370737916909 0.37832137512298714 0.05674321832831518 0.8657403138062896
Ni 3.7991122029884363 3.6593764351230798 12.979448458358553 -0.5756090626669893 0.8339385959146605 -0.5094118980146258
Ni 2.9457890115008634 9.238812876561507 3.3514239816902 0.03736429958107113 -1.7732739094992813 0.1347486884695163
P 1.948625590051784 1.7525869093966324 12.791174205215782 1.238703252830841 0.688092254870086 1.2806250898756073
P 4.291123093227211 8.482634756569368 9.02992060350794 0.13290366484097757 -0.28262671523213906 0.8559397827761002
P 4.625912838957835 2.5531778860614645 8.823584876576145 0.991023228877216 -0.3458154320754818 1.278924562244733
P 1.1192573645648385 7.383807674187163 9.19374753925514 -0.203845543267178 0.1374177506612472 0.16022292148122083
P 7.215487916925746 5.807086842497786 8.662842729381925 -0.21324035421851661 0.20672929257287623 -0.8310083096417431
P 1.0402878819480956 5.301492575456505 12.851072663613126 1.5189874359727324 -0.002694259002711489 -0.8945369263230079
P -0.06119513711785259 6.183004034658223 4.975629574643517 -0.7725632781309727 -1.9721101724773265 -1.3535400328677787
P 7.894399077816359 2.5732584607112408 11.29376888254408 -1.1608535915412137 0.15970458708390559 -0.6722856268551326
