# total energy = -340897.6762266376 ev
CRYSTAL
PRIMVEC
9.02167906865065 0.00000000000000 0.00000000000000
0.00000000000000 9.02167906865065 0.00000000000000
0.00000000000000 0.00000000000000 13.20413924226952
PRIMCOORD
 96 1
Ni 6.226952455769948 1.9056222374788927 11.414464020218501 1.0987951316475724 0.45391463627826983 0.8143791857254942
Ni 4.632668368316367 0.3200702333463639 6.050269183340487 -0.011686435198992776 0.2175343536081802 -0.2427519905243884
Ni 2.658670823997665 1.601609690983588 4.875139529984154 0.5464021020857299 -0.7223244365800786 -0.03081724249117273
Ni 3.5471528590293313 4.360944411764285 4.744695972250135 -0.6518664397688322 -0.16325296655679628 0.7233150826281222
Ni 5.008069462512347 4.491650500363726 2.668385368186226 0.7850310715806803 0.6662455913086397 -0.38278532443161173
Ni 7.183818819320648 6.154174569468755 2.597914325262647 0.7054024640137594 -0.9866752363211653 -0.20914432977227204
Ni 5.23230329962852 4.5921429852415 11.541143733380206 0.054900765802937714 -0.991523308442086 -0.8419288132089888
Ni 5.34262039318139 7.818656342965423 12.384386557942387 1.4163690523788575 0.11475424762546044 0.05928886756830434
Ni 1.849354024157888 6.56171990674037 0.47977470547598083 -0.5465239723755749 -0.03870101611462367 -1.093869926431813
Ni 2.713666980548065 1.5522520839482798 0.5500436627849392 -0.4813043411451323 0.9420403712206098 -0.3368998747534069
Ni 0.49094534869131967 0.013381856793177205 4.802108134496762 0.37331903681238926 0.9635635900043663 -0.2638833731863649
Ni 8.60374091240914 2.2225899153400723 1.420013212048656 0.36019226962244416 0.677349414531285 -0.26856689470496325
Ni 6.799684739635694 0.39950160807536594 4.855492116969807 0.3708739177060065 1.8257424117116428 -1.2465222346546274
Ni 0.8892254213997361 7.443426660674702 2.688164497717246 -0.38581819772066456 0.24843721383462375 -0.6443143384531872
Ni 7.644781519278438 3.8843471417110487 3.773293879133489 0.00534069548662306 -0.15954466446727364 -0.15460968905950145
Ni 7.565805739350256 3.8191564876373625 12.643095840045715 0.19433966065927177 -0.35806416753584785 -0.4610756728030833
Ni 7.864306039839607 8.837889574992651 6.910690187313366 -0.041042262653290605 0.8430639552546966 1.1497821642184003
Ni 6.764211496926349 0.7439845054022717 0.45510221713378374 -0.019168602508650857 -0.12104419439923024 -1.0557574358308075
Ni 2.0814547655575173 6.440107670798869 9.126212519149242 -0.5121804618986986 0.4748439302317693 -0.13806438310631058
Ni -0.04263194517370652 4.7576547122876995 1.2571331088321394 0.4318265461299789 0.5102765600077663 0.7412130459544654
Ni 6.421938008841437 1.9292500153669339 6.951781229675589 0.23538475152603977 0.2812354913115672 0.08262240008792222
Ni 3.310875080148922 4.445928630055749 0.5348006335678205 0.3840461934219063 -0.3341469945986181 0.023183122984682655
Ni 5.976086621584093 5.648680860860575 4.783305150657795 0.013452011739847801 -0.375687794154882 0.6342147881253399
Ni 5.463068832502976 2.760895471286474 9.332975874447854 -0.3023522186855244 1.1932932001271577 0.004828274626578781
P 0.17635668764154744 5.588533325473188 12.345249611300114 0.7426083836400953 -0.549919371210369 0.35666445897484383
P 4.028080535110158 6.057967382222452 12.536657166391308 -0.9822292847346699 0.8396690706405346 -0.16865613985023856
P 2.3892022872516185 8.548970297839345 1.3493833875707317 0.42346711842169005 -0.9891890038819545 -0.3473025581439696
P 6.322762689130389 7.631194870366873 5.851414232049762 -0.6872643596521519 -0.98676059694612 -0.03400361063895434
P 4.661294156494586 1.0245740661279235 12.696690929812606 0.27952802170215735 0.09607364049682164 -0.5198001832274854
P 4.077808030993656 6.1816094959893855 8.019983234363565 -0.3815547944586203 0.24148572221745507 0.5103243825265662
P 4.70176540949411 0.8926139641163258 3.8856480678551706 0.4819172921387829 0.3552848050184978 -0.8676496150138605
P 0.02001279102292523 5.7157299808544355 3.669932500262437 0.6484743833681477 -1.8158405792168986 -0.8767268947247804
Ni 1.3241930548410685 0.9107294959984128 2.571386979671965 -0.026599604865399352 0.8544963654613542 0.2199499050282083
Ni 1.7397406215845026 6.513210337552132 4.7463595698990675 1.0485899715480909 0.08208426819626508 0.6165618509302672
Ni 6.099683626954907 5.560881878651178 9.196722355293485 -0.18188060896031258 -0.21582945510193152 0.04552935189036675
Ni 8.518143219930435 2.310091182135074 10.172350202958723 0.6538022233389644 0.43646918710831284 0.688712147842272
Ni 2.2705130753787413 5.3597254969903725 6.9414026898961305 0.2731874241961102 -0.4014345641016828 -0.7781230316069373
Ni 0.4152642860157955 9.14536644631003 9.266559174167607 0.5046944379342985 -0.20060415351174482 0.05576208536196847
Ni 1.576809094796408 1.2426551180132284 11.308381702893445 -0.6483602263877866 0.06097859656590143 0.270783699850624
Ni 4.080460404685556 6.871740891598957 1.4875522092243874 0.42402504780768907 0.08347060702083044 0.3165231108692678
Ni 5.682006943914574 7.8102120512116215 7.965648366900294 -0.48669080226802625 0.24448157162098536 0.14193183648151686
Ni 5.381233180260738 2.7820964174632197 4.7518131749900645 -0.06942724155388688 0.26516352545036914 0.4510758812778941
Ni 0.7244164831650968 7.565923021180169 6.8325615430643305 1.1731244384887667 -0.8964243731537077 1.2215501380903222
Ni 5.079918115853454 4.5381482350849796 7.032010120848005 0.16710473620271868 -0.3296676186710258 -0.37574615819664325
Ni 8.061402665849545 7.26265927406047 9.123822676322765 0.05376510953659773 -0.04173157541083135 -0.05040956280080351
Ni 4.436239346569015 0.5162899521357157 10.49021373356686 0.48947916364644084 -1.216505376577563 -0.2982608222249702
Ni 8.303643774697116 7.15127762235915 4.988708938897329 -1.607298916025632 -0.4217244246989704 -0.29376859078157147
Ni 7.317447931988714 6.044985185818903 7.113320711359398 -0.12120540256744287 -0.5827353892991254 -0.9266140093632105
Ni 2.0734074276895784 5.325623549523097 2.5886716148975086 0.455552428992009 -0.6770426819241436 0.3819183484456261
Ni 2.2343451633691362 5.122428268357635 11.351691176176887 0.6522811587087475 1.1752044609462469 0.2682629903112993
Ni 1.0372224604001776 3.040919372724772 3.789245110169703 0.2133221152990455 0.9541106721215826 -0.417552552709468
Ni 3.646499590645638 2.671833453985695 2.867252047659943 -0.7526788805022198 -0.892911732014759 -0.7562997650842589
Ni 1.3112289017959695 3.4908214939537574 8.230113480348628 -0.7158077185074833 -0.4063386862715196 -0.14122246911931807
Ni 3.551356961547784 2.654259222857057 7.071159697841191 0.5840713345017295 0.15911040514333244 -0.135577869239031
Ni 3.972516012768637 6.926448354414184 5.874481763657983 0.5806067729918968 -0.12816255061156637 -0.22115806640369653
Ni 0.8359524055811483 7.333533586045368 11.172035260443067 -0.23732413464059773 0.2184039006973271 0.254472107174794
P 0.29148143405296456 5.669548004906027 7.9221801120625095 0.13689273139571262 -0.10132794691722549 -0.19754634052202755
P 8.65705903662385 1.7018676122015335 8.022016720860687 -1.0666679120957243 0.1382376754593813 -0.5168380152753679
P 2.029363589717293 3.2879780582780374 10.339514701638786 -0.7652430903204755 -0.9016123451125503 -0.3241212349314999
P 3.9272632697803154 6.179498423050935 3.6712523719329297 -0.130751137274349 0.3385721202495072 -0.015518664460889404
P 7.071977061978899 3.93033966239575 10.419201389889832 -0.6896809395134444 0.7858695083215755 -0.04163978702797345
P 6.186454137732753 7.766267451710801 10.183216815584206 0.19328190881871873 0.02280825614376717 0.6629921173683485
P 2.410511493579054 8.559688052757632 5.701270033393973 0.19723369437761515 -0.4863825269989882 0.4558442492008149
P 6.94976037352938 3.9655332330491473 1.6641840580822713 -0.9337089685367791 -0.26953054416981326 -0.4766866398674629
Ni 5.163476908827503 2.898611404643078 0.5981571802552376 0.38265702638386356 0.07143784422601246 -0.20240212595243207
Ni 1.455151750458786 0.976903513107531 7.080046051876976 -0.2953156235537172 1.1326064237700624 -0.27275573597533026
Ni 6.822635891581924 0.7181852093249784 9.22332909166134 0.0043258810688635175 -0.6920334989060212 -0.22684354682424804
Ni 2.796224367128234 1.5422019332925805 9.131705819628825 -0.41077332500410546 0.5378035617834415 0.07118767588841933
Ni 6.339164101959889 1.931712933795126 2.568443205741126 0.436103576238778 -0.060827672810333945 0.8156439113705308
Ni 4.185292317270143 6.609823500363522 10.272662254252012 0.235944994904884 1.1686568896357163 0.8401989750020755
Ni 8.117914464509603 7.131763730197322 0.3490117802974274 0.25269316089750027 -0.07012761005502116 -0.14612299174472898
Ni 7.676294244808384 3.770863438750504 8.240320608222827 0.4601495614443882 -0.06339286243434888 -0.6404972786999421
Ni 3.0559855770290976 8.462407285683653 12.291760075180148 -0.7522459067298594 -0.5012913257900206 0.18858321779146878
Ni 0.03790007442064144 5.090735109243205 9.983174611307584 0.18011348975756075 -0.8807977223600445 0.7088132894675212
Ni 8.595864986446461 2.3005011371198054 5.6568644260848 -0.010500642421007723 -0.5605845642336991 0.8049715192583492
Ni 3.674593099749631 2.7047896481915044 11.680500710187683 0.01819312596925899 0.5838484198576461 -0.2745591077326562
Ni 1.2098883790711266 3.357950202340521 12.637166792459606 -0.8261869769936997 -0.2876028282904918 0.3665472653061946
Ni 3.21031944351658 8.494560550438514 7.847946126734538 0.002473144130840902 -1.0827625036647417 0.7635333067182205
Ni 5.706320369423651 7.707806970338329 3.54409631410819 -1.6840134352695515 0.8782335611772939 -0.15696816198934901
Ni 3.0312842193133833 8.41003643778748 3.483093523530353 0.9693863673337305 -0.5753540092333896 0.7923034368723775
Ni 3.6750080969939423 4.28146341779955 9.12366389476842 -0.5308536128281696 0.23300725243279868 0.3157895751373529
Ni 7.2943343898164485 6.1696106626212694 11.368711476201161 -0.3047248326827591 -0.17212507223544551 0.028940594293750156
Ni 0.6467190751829758 8.905353692230824 0.13334583194042676 -0.4477601866410998 0.7654606056479204 -0.2519483123116758
Ni 4.532726205871268 0.34677981685737347 1.5635679761991275 0.43070348826912924 -0.6062154746989367 0.9833212322472679
Ni 6.036053723386998 5.610347745837175 0.39473274843748185 -0.1395949608182241 0.22588092580066263 0.4065559444886482
Ni 7.871424144747459 8.751028847422564 11.38161157532377 -0.1182100673845448 0.5079129448715962 0.18797900854856658
Ni 0.04459776907664815 4.6564224497135465 5.721472279680605 -0.03784072499685741 0.9504838740022726 0.5939384571037964
Ni 7.994164090591978 8.675003156600678 2.3160987183304336 -0.06736110305347753 0.9169042382746145 0.7871046662802572
P 8.427060346483447 1.488044792910026 3.5653820640696425 -0.9533244287748615 0.10143747591189627 0.05243070699589035
P 1.8158475075194063 3.3278629021279906 1.6971673173257529 -0.5175921198325731 -0.8404146905573076 -0.39106350528000394
P 4.808392636244302 1.116189218649136 8.188071552996181 -0.4050086546061863 -1.163311566163403 -0.28143295203435403
P 8.478916958663843 1.7062972567005896 12.405328581925401 0.26432508870947385 -0.8879960398806965 -0.05215302785447147
P 6.290410947432598 7.775812388329949 1.3572268354882053 -0.8751747197463121 -0.34240460662172 -0.387690475042713
P 1.8586283104003112 3.3503359050753407 5.934851232354285 -0.3590306452141752 0.03511998363158468 -0.29265376045083796
P 6.890136095536993 3.8864491929702747 5.992500664764506 0.4779199980539318 0.5283840682417544 -0.2502549837696529
P 2.3535215459201178 8.47906130553143 10.069331647898188 0.7041547076495873 0.1484351848176734 0.12003143686399974
