# total energy = -381168.4812901695 ev
CRYSTAL
PRIMVEC
9.30425261621224 0.00000000000000 0.00000000000000
0.00000000000000 9.30425261621224 0.00000000000000
0.00000000000000 0.00000000000000 13.61771419209152
PRIMCOORD
 96 1
Ni 0.19883187474808672 4.652777520134569 6.267811520375459 0.5969445909199719 0.754974618514932 0.6020646857553567
Ni 2.3474815003599336 6.317289674027092 0.1147884232635515 -0.6301174781275147 -0.3024128967201308 -1.1621748814557984
Ni 1.426453550836625 7.8942581166652985 8.99146301665854 0.11898962586304669 2.203440551428334 0.4554693823598994
Ni 5.546962701354263 5.581202350351594 7.4892523815648335 0.3731989662947573 -0.1269451332646975 0.014549358569084622
Ni 3.936024433039629 7.519715434494768 6.137421726612255 0.39761441902464423 -0.601327550479016 -2.055837632703969
Ni 2.097373890387855 3.123642239315731 10.671289970075414 1.6884599010766792 0.35816983987577666 -0.06684816797280099
Ni 3.9281530354712206 2.9751277617898086 6.95617361155995 -0.7398074238561905 -0.5780984047477463 0.613584513469498
Ni 4.628856287098662 9.18558600924425 2.029557055167272 -1.382990734028728 -2.07382275642748 0.720213817994979
Ni 7.232465248762542 7.002473432576394 2.7885402832592456 -0.1294236767121771 -0.33681965633477473 -0.6464501538492673
Ni 2.4146488987598604 7.846927384477955 1.9940966882491669 1.027605913097256 0.11190649376402016 1.4641036394506592
Ni 1.7489203320728994 7.064746794190289 4.203719871408353 0.6342836936900624 0.7669518454814662 0.21580117296715734
Ni 5.323120996034213 4.454931896145644 3.2414787356802406 -0.22735828167713745 -0.24748899098874155 -0.07219657676890792
Ni 8.756725101300237 0.573301053324302 7.812128549908684 -1.0704692881196853 -1.0765954556220814 0.603970901639134
Ni 3.115287020620187 1.3775410957336442 12.320286352590777 0.34984537917048136 1.4485106701084087 2.2925475307993355
Ni 5.934708117744145 3.2348466645374967 8.439278894683245 0.589998498619442 -0.35049252583617707 -0.13934042160525678
Ni 6.013189487117102 8.041637475392939 7.1738521800604795 1.4009969407981615 -0.7236135877051474 -0.7848906893480742
Ni 7.0775029242922844 5.262420053083511 11.888154999912372 1.2489609260031072 1.08519399592437 -0.40118465287440586
Ni 1.4780270221388543 7.879892350890331 11.302484873387783 -1.4533687695316582 -0.4263305560124141 0.6313454369973449
Ni 0.10830056803370401 2.748271478677602 4.628470160622197 0.6936283541969668 -0.444941229135066 -2.152008460900287
Ni 4.022237636194321 4.324421147100655 8.941445216365103 0.40016906712569794 1.2115557458817716 0.7356954585703458
Ni 6.205852642494203 8.49427074833374 10.99521472766981 -0.16019643911865958 0.9057587631807563 1.9277105633160283
Ni 7.153741968826015 3.149722058918861 1.9355534014404425 -0.0745625058979232 -1.0619129139092423 0.3365394060901946
Ni 9.178626428415445 -0.004667013026375307 12.871054367343955 0.37628763252241004 -1.6006855244741722 -0.6268778881442946
Ni 0.12368514945139056 2.5167537650904874 8.759077216318314 -0.2761027980706922 -0.8590143079363657 0.17016769139875856
P 4.854577451412586 8.123096205548274 9.385519507481817 0.4688874555380183 1.5397341816017807 0.35904067251650423
Ni 0.047753145248342545 4.021828249086744 10.415127152612177 -1.132414105253598 0.21066333751995978 0.10003468202709868
P 8.24244185165935 8.716056213863462 1.3693152061470846 0.32371962861770703 -1.4364722508866357 0.2625803381042252
Ni 0.5122670181360709 6.4662228429130355 2.1980626494963644 -0.7919010592276361 0.7299284741795816 -0.08287616796994114
P 7.848229979820244 8.841942749443323 6.0957377452337385 -1.0643402924038121 -0.7555142930684859 0.5038351752577968
P 5.332974199373391 1.4340365165792401 12.386427491946028 0.02568403502966544 -0.4897241897777115 0.03123324698266879
P 1.532112641601214 2.9217213527559287 6.236313834573649 0.3691397086237191 -0.05695044924311482 1.2155774654466547
Ni 5.565636336011232 6.190863491805425 10.008256845321748 -1.1448896120127896 -1.8094917541807352 0.7953368243820625
Ni 4.84725500473843 3.4111994653786404 11.204287793084026 0.0207832552939384 -0.27938403992512534 -0.9031200400063286
Ni 7.1286670084869375 7.506596438547421 9.12739535360319 1.351385705528937 0.5002212326542934 -0.5668434006592172
Ni 8.516898690279803 0.037058837488143634 10.229272849174274 0.2897496994301655 -1.5984720617626211 0.0727601625818618
Ni 9.105504308450765 6.2338863551107675 9.963699710788239 -0.9464942932269054 1.0032110291926595 0.39307667905529076
Ni 1.9066832365290791 3.7317402663588153 13.653800656180273 0.839110369923587 0.8464814655766777 -0.27964115024125386
Ni 1.3893668005911464 0.3391074367340263 3.6660113053868737 1.0700990492644604 -0.3610152797443718 -1.6643226417088433
Ni 6.752514690643435 1.5167141038048602 10.077081331082116 -1.6900349588732828 -0.1985863517507677 -0.7361906530392095
Ni 4.486529137448616 6.8529913127962 3.5348995016339426 -0.17244208925523205 -0.7207115835670039 -0.44627666011703787
Ni 1.2224950329913835 0.948708100546966 10.997365870835075 -1.4873284143065546 0.48984066075091764 0.08395423152546833
Ni 4.960283063439401 5.910954361252246 12.658114454613626 1.0439804978005376 -0.4855849707983572 -1.147129814197218
Ni 7.9395419133147564 4.244609269628073 8.37195239356651 0.34307540743649945 0.8783428330616486 0.6320707451991437
Ni 8.563150129183535 6.645301789720543 0.10717568391311236 0.03917872708199059 0.9456710259946616 0.21909784144055813
Ni 8.494494050392419 2.088953541925196 11.446845932622292 0.9232648903853198 0.1699396345483525 1.3705131703870075
Ni 1.7287208000149632 0.9193029411200192 8.195644253137102 1.308195029074076 -0.021939480385568665 -0.31632590725679716
Ni 4.813303787566891 0.7681721078065834 5.632612997236037 0.48132131042599685 0.012011422638579313 -1.054738250537674
Ni 6.421022784535581 1.149019351433796 7.261496377241202 0.3790438551113085 0.5134264184906578 0.19622839304155237
Ni 7.250134024155457 1.2358280267449635 4.644770280480465 -0.28870094645067695 1.0962541103932735 0.2478353185845667
Ni 4.5266025527289155 3.7370529945048685 0.16811481572640524 0.1353282151220702 0.9813078013616647 -1.9992944462016018
Ni 5.748204377485586 3.1139099912583372 5.482246973473575 -0.3367432945708846 -0.13123450466867073 0.06189519484289986
Ni 8.12316133531539 6.2477217784963734 7.292462790228408 -0.1332420220170028 1.5448753594830877 -0.3923326018004146
Ni 8.442929883342634 4.841011851347884 3.142927163358331 1.463447236813583 1.0845903009020998 -1.9378759338848046
Ni 8.525765642859819 8.636802591537576 4.013276710664612 0.7067106413022216 -0.0033617173833813073 -1.3119717225076888
Ni 8.736209224659174 4.23544458096982 0.06002731507369005 0.9359573982513236 -1.2251273139186192 0.1485549982249893
Ni 3.5945676725632585 6.838383636457665 8.443295540463719 -0.5240062508890331 -0.4622457818517846 -1.2460118706771122
P 1.0057710807917024 6.10071458986653 8.148867123970232 -0.17293188440745702 -1.3383201305942307 -2.165941526041612
Ni 6.670218577768057 3.104289394230283 12.720688343581491 0.12785453245284434 0.393347159107858 0.7080108481708839
P 8.043637889668599 7.351299160989147 11.774788266422405 0.571267497868842 0.4753026150357427 -1.4130117058708505
Ni 7.641824443581988 1.3089129296998638 0.14733004618968315 -1.7254310789843896 0.7687752718434502 -0.31776983879217535
P 4.49871770815147 4.9474990205800715 5.660788134489765 -0.17923545802798163 0.34902494015171504 -0.24780652222916033
P 7.084788153956663 3.614916072660314 10.472103603309176 0.3912815348280809 0.36204423522951845 -0.7866986890910903
P 3.7114290832715393 8.73553931848314 4.097583472493339 -0.8857584087994292 0.9284904004503169 0.2720605096805186
Ni 1.5999871631869556 4.774505054871546 4.20283503700084 -2.6964372413097304 0.7234251258434251 -0.7028503870158669
Ni 6.246056317308732 7.986770298725206 0.7404714874275471 -0.0019730645659707955 -0.8138253701045531 -0.7287722490879512
Ni 4.099714146303227 2.0351935712984086 9.19561971508086 -0.4020341453588947 -0.47037406738587384 -0.06715412924899403
Ni 9.076530866337263 1.3814767945178483 1.883860835706918 0.7524356541431623 -0.5674488954537001 0.9799574579813575
Ni 4.447339626150584 5.642061465593861 1.138207810092791 0.4990986890140759 2.5766158635740077 2.997090732136593
Ni 2.4774526027631163 5.241429659567755 2.1619481936313805 0.49946918497961723 -0.4899784718803626 0.5764724391085492
Ni 2.53552974652435 1.1648272763377268 5.531052429673439 1.1189304689448665 -0.5294896426011074 0.8053204179573357
Ni 6.786289127018519 5.083555104082237 0.8180810483464156 -1.0195915274332117 1.1727426296693158 0.23961344489540667
Ni 4.402334957074473 1.8293555944592923 0.9803500022616731 1.3186658466984127 -1.823867306176117 0.19526962867270886
Ni 3.6907457300864674 7.453245855028211 11.683167431746721 0.06773802677692205 0.990519806878236 -1.022095267691672
Ni 6.274480808527984 6.040004342663382 5.082852633022645 0.04510254876559329 -0.7571736830487797 0.2149568226889911
Ni 7.950660494986445 3.0355123601573837 6.343308085564086 -1.3830061606476955 -1.1615591022486706 1.3827541925378897
Ni 1.8753279057896757 3.9775120946915576 8.267463777759492 -0.8313266122131102 -0.3586971731341564 -0.6454168274887465
Ni 6.729747184910699 0.6965647201399374 2.2860873906020838 0.1804832143921537 0.07962320825028223 0.5840296826305168
Ni 2.4530475486000736 5.4330693471759135 6.291207063148228 0.9399901735598005 0.4036099744864468 0.6422322591131778
Ni 6.147440545644952 8.329920433146553 4.6047889772993695 -0.14819735777525445 0.4585678187795651 -0.2330216506105019
Ni 0.4087618618124822 0.5362208160555351 5.676394157115641 -0.8741275094287203 0.40451166036510977 0.9879430472899954
Ni 0.8447554096807762 5.416805513902181 12.008916753245567 0.5416828422331897 0.5389520735655879 0.8440836547684624
Ni 3.196410797687504 0.38531514565126657 10.42852713698336 1.8435928096295022 -2.7353601436271733 -2.5331482793086764
Ni 8.579683785778169 6.458156056043284 4.838265236026141 0.9584476089340398 0.07103495236063896 0.2758976240384216
Ni 2.1994229312038125 1.362310034481299 1.4901178981910368 -0.19201126963641124 -0.016327019294797688 0.07305841054857096
Ni 3.1387244325289574 3.3845520863763694 4.757334987409679 1.793627276344653 -0.579685546729208 -0.6532527785933976
Ni 4.218892315870295 0.03653500807549425 7.629446996554502 -2.039615257307836 0.768856775813663 2.413138439711231
Ni 2.155106776808626 8.722327280011342 -0.04703206568386072 -0.5077252543408224 1.2140296613435608 -1.484184212250618
Ni 1.6314448407032531 7.777201316655673 6.49345732024458 -0.8345008961760337 0.38545798616776844 0.8308157340149628
P 3.4368140723595237 3.1302761713089637 2.48309470144572 -0.8078475552545636 0.8994842430259542 -0.3970688309338194
Ni 0.9564585428335901 3.35971903660086 2.2459423325779575 0.1970596306935961 0.355351139480059 0.1044772911794846
P 7.353336792274586 3.691183029951379 4.241400232959817 -1.5583559104680258 -2.0797959432917796 1.258186301256117
Ni 4.787307706235766 1.7576570251186858 3.5209961572054884 0.25401753613587863 0.16091300556970997 -0.4262549655794723
P 0.9848458170430618 1.8984582773677638 13.284583728109217 -0.7988949740469661 -1.212496769638802 -0.42561913176768634
P 4.04461436332437 7.836264711176069 0.23970266446291688 0.9625117517010842 -0.6930406000142968 0.523608244119666
P 3.277795093823279 4.6480509598925455 11.97500926606052 -1.6453648696594179 0.6629733483152711 0.18193897300207376
Ni 2.3626102148353842 5.656473752631052 9.974158620961582 -0.9170016830844272 -0.06285858719743367 1.8745244662113523
