# total energy = -340893.4139500289 ev
CRYSTAL
PRIMVEC
9.07436542244505 0.00000000000000 0.00000000000000
0.00000000000000 9.07436542244505 0.00000000000000
0.00000000000000 0.00000000000000 13.28125104666610
PRIMCOORD
 96 1
Ni 6.499886098664511 2.1458967999403664 11.382948091426618 0.30374164283388333 -0.18012737371463172 0.48128120121668083
Ni 4.2381459530230945 0.4191730575202252 6.110172060217127 0.6550594927848331 -0.006653500760775638 -0.0948456816269915
Ni 2.775557924399883 1.7692924968473853 4.6506420926546435 -0.7419200993238191 -1.331234684502359 1.6866943245358241
Ni 3.3874423675004497 3.9670220706123165 5.0010287399118525 0.09812358104731489 2.1376586199365186 -0.29794534786708043
Ni 5.095337709638975 4.744686090918938 2.4128845867087705 -0.42925724274090593 -0.6365807172543554 0.5406906535232494
Ni 7.247314334240135 6.1367844509375935 2.5912521232722194 0.5322502360653801 -0.5271126577284986 -0.9630791941687802
Ni 4.980701254504918 4.6556121224557145 11.439380660953507 0.6473202151590466 -0.0956550649021643 -0.3648922462012748
Ni 5.524409992118097 7.9368481200607315 12.154840815488066 2.005085856072398 -0.06052813929204415 1.8677269836735446
Ni 1.8495643311002046 6.464024207530989 0.2925938303920313 0.8913973522527616 1.7092344146198695 1.5377351488938809
Ni 2.758507192254162 1.6876867309152572 0.4929340347668951 0.8314669944457165 -0.7840021160955336 -0.20106078143318923
Ni 0.5423248969254607 8.989211322653285 4.679515815174319 1.3816172507199687 -0.04725353367032507 1.2271983375150348
Ni 8.605882914972767 2.1958148827150397 1.4836087955287793 -0.23514538182172406 1.1801008698065998 0.44421952047769303
Ni 6.642507895968554 0.5203159316533842 4.701721694170484 0.6671681031229091 0.2004012934723194 0.5531301648381829
Ni 0.6284506041464571 7.639172645176095 2.370052675691731 1.8007183788634793 -0.8534470982612333 0.7218199861398343
Ni 7.614735379785768 3.952630127460048 3.7935501540555823 0.3974172154121736 -0.770240543535067 -0.36854475535219755
Ni 7.843318638301314 3.9705973704874706 12.592910331028646 -0.4120370222078774 0.2684756205427376 0.4702653097221514
Ni 8.035205164088124 8.902959481756488 6.815207584049716 0.2667252135105342 -0.2846162348583421 -0.08251132843135467
Ni 6.962914655592429 0.5320599750503997 0.2938878348646124 -0.5871306901533436 0.1294002796734094 0.007146381236794144
Ni 1.822259566317621 6.6033792333755 9.552645915262932 0.6389163073660673 -0.3030389603399039 -1.2356912054773943
Ni 0.12553749000720998 4.831945186349088 1.3566529822462228 -0.6125635284041515 -0.5507637214885354 0.19712879336863467
Ni 6.434024356294292 1.867894548734242 7.132522707461751 -0.60221920905535 0.2856973837376628 -1.2281414181545944
Ni 3.543358109771752 4.11498866899876 0.3495427312968294 -1.5542552580360909 1.1684326894400523 0.7816361869665184
Ni 5.877629656179932 5.453403084699114 4.754077151428574 0.06737704389307751 0.7034152583804015 0.3672224369963482
Ni 5.354156752885517 2.898869472632029 9.298629026061901 -0.34204208107597867 0.15136829930406834 -0.10713504051730582
P 0.23712042126312155 5.702267549359252 12.515188393387296 -1.0982361738203084 -0.6446663224759671 -0.5208216825134643
P 3.9135286879624895 6.15350850593736 12.716996830045916 0.09067663785096641 0.22874384917075447 0.11865666800366018
P 2.507973044403598 8.599349372053704 1.3362129747112381 -0.7300228336656008 -0.5359922196063156 0.3759441331400622
P 6.537708052673752 7.587857110165956 5.777822528599115 -2.0808516382498032 0.4063032050478938 -0.3078037287183989
P 4.954694123940982 1.1976256401597165 12.697048653102893 -0.7866788915967484 -1.0793046270231283 0.5278284528486006
P 4.000851303948798 5.993491150611313 8.16471541116473 0.3498014133064234 0.5150786093821001 0.16053788161847835
P 4.669087554726281 0.9740242081199558 3.9111693530194946 0.6322558646267563 0.15017890698165748 -0.6393690786327699
P 0.18833844900715202 5.623601877740703 3.4754110782865317 0.5131173718906712 0.3619282784769444 0.7060704366150614
Ni 1.5883405810848403 1.094758636645138 2.7599237006564756 -0.2236659204272148 0.4134632131314428 -1.12094518538205
Ni 1.9267145837361386 6.435040685192813 4.875042068828956 -0.02670244899185079 0.14669814752190866 -1.2030255969235732
Ni 5.9740175629664405 5.440581006720453 9.06390877438502 -0.18921982293420317 0.947063278356498 0.558556992280709
Ni 8.767243276343288 2.365723296071335 10.050108058247345 -0.19000452361902762 -0.4402188839587322 0.7560146297436722
Ni 2.364407513122357 5.281144410764989 6.899902263884133 -0.17095342052484752 -0.9925913446952842 1.407530371041305
Ni 0.5985914055698234 8.878322580332522 8.962466446201402 0.21635241748493705 0.29237093910309647 0.7124352024908246
Ni 1.5589124148535614 1.03067546984733 11.717450062461854 -0.7438062606029384 0.8147190855634161 -1.0689536228061072
Ni 3.989345008919115 6.778106134634604 1.6197950530575453 0.4446157274748472 1.1122363447541426 -0.3398854397442921
Ni 5.830878526847971 7.852166144337544 7.830877683659598 -0.8282803691876186 0.219929336202918 0.9220395026186506
Ni 5.447041954718194 2.8783251098976423 4.978769322161211 0.4098572409477393 -0.6734436517189757 -0.5340811186265318
Ni 0.7999043818904144 7.205817262338922 6.939998253803816 -0.8752801349759248 0.18664486311817532 0.7132684970253974
Ni 5.248131870293392 4.1554784863666185 7.122216950943446 0.16548057033573435 0.9896289196328504 -0.31896977263754744
Ni 8.184051975895606 6.9587404476163615 9.329002741143412 -0.40331789716732475 1.6209846410428406 0.4767077229133854
Ni 4.7984244814282295 0.5780724510578998 10.526812590915984 -0.5969412484858623 -1.1293614344702032 -0.21159639085719045
Ni 8.171710839270709 7.264110984161227 4.548230622271366 0.20453974112072515 -0.9207819760624658 0.11660441346032176
Ni 7.565325461460354 6.190949336609657 7.049953243949061 -0.5315822634640781 -1.0853711449321823 0.1082033338808201
Ni 2.20824676299159 5.430626428134049 2.4998233570485837 0.05974703815164548 -1.0810221239348672 0.7586795781703449
Ni 2.2807055688370297 5.285291395645562 11.612793594136667 0.4185056606513567 -0.17452596836745427 -1.195575054182799
Ni 1.030103784841912 3.450373089922256 3.961451317837299 0.07278201695873271 -0.10908393671356052 -1.1012793315220066
Ni 3.732340838705645 2.7220191699242293 2.747306703330552 -0.049621262571553255 0.42669076756531027 -0.8914243488359552
Ni 1.1019999800470994 3.5214162948018997 8.445308393625567 0.9108714018169732 -0.31866946778830924 -1.0082035973112444
Ni 3.441561881346687 2.706148105250006 7.274725269095153 -0.23119668158662116 0.25455283981405835 0.02556807827709145
Ni 4.219579801894757 6.912443036542668 6.005595446305394 0.19862928917356115 -0.12928740824462895 0.042720421686661916
Ni 0.6132828027725493 7.5441186700688965 11.430296313986458 0.09661845725669813 0.4105514388012864 0.29310164662153393
P 0.25542432323817943 5.548284646868172 8.368728918558533 0.9115481161690235 -0.8441584738704558 -1.9859157109018508
P 8.612951845436587 1.5606002467743192 7.945919762916547 -0.4026560952136098 0.5647307251915887 0.7935905311149171
P 1.7889566461607314 3.2656462382509197 10.61736386602813 -0.0896808495966004 -0.40033490327960086 -0.15607161831700864
P 3.897085938282848 6.021667054449773 3.8908754427636723 0.005624545275629023 0.05441842684988047 -0.3650961346819647
P 6.940428378712655 4.034362934504491 10.501365348682752 0.22191371362279844 0.8266993978537439 -0.9699728359648198
P 6.406474583652243 7.926094997339773 10.172827050434194 -0.15957371793299613 0.027438298716610812 -0.2585005116078967
P 2.3415310385404715 8.308534117234084 5.989392259866118 0.0824514217276967 0.5270825758215116 -1.42138501753621
P 7.031662046085235 4.1188997203850315 1.6247614531125496 -0.2380738683224287 -0.9896785419238633 -0.6502397027986866
Ni 5.499800313789627 3.0979338212646423 0.24498971073452616 1.4534428173027032 -0.49270255567974497 0.46652152640900296
Ni 1.5374606156026382 1.0565192618382897 7.035915201038241 -0.3847689305205438 0.4232912549654581 -0.4411015436740016
Ni 6.75440389282267 0.8384749710257985 9.159626993022322 0.9155744637195973 -0.8902976914306797 0.3225785730347283
Ni 2.8935972664709517 1.6935396964469174 9.595199243269395 -1.143832374392869 -1.1211187348454368 -1.7357419739920947
Ni 6.119661123870549 2.023229531634961 2.457509592282486 0.9708112727057153 0.4049492621231606 0.5311708869582723
Ni 4.092574987040308 6.882425036575641 10.651443551843176 -0.20185062432433623 0.025601759728504297 -1.8928194078657983
Ni 8.335357940662902 7.24940143822817 0.4366992864006113 -0.6050795613222805 -0.0309545393999854 -0.5657987614447868
Ni 7.773999562803089 3.7645003888516992 8.189006579275896 -0.44881228205469803 0.13597279068460452 -0.1913623231985027
Ni 3.3239853318990518 8.50988520588837 12.39207103656969 -1.2248370363717098 0.35389203843602923 1.3284494084477378
Ni 9.187250268022211 4.794858255918241 10.465306543825141 -0.6033821190151994 -0.02213976932183284 0.09029714302436061
Ni 8.459576925411586 2.368509126177102 5.710764784900101 0.6695887967492598 -0.595647212264787 -0.13791345935074312
Ni 3.7656800563231965 2.671538476509303 11.512520044186349 -0.21097469811279151 -0.032809076110220915 1.0056047262358168
Ni 1.2209104611740433 3.482224111652688 12.703449710290542 -0.8027814535855659 -0.7565620176067099 0.7751557214484973
Ni 3.0766362862215306 8.272018871808655 8.009297851541007 0.7026575542787705 -0.13679760057874507 1.3862233820334127
Ni 5.644200686666081 7.702330226727036 3.3841420208898065 -0.9347433233385644 0.01982603358699166 0.723333080350251
Ni 3.140746676114835 8.387208863217799 3.8096072432156958 0.038403796589179015 -0.21318918926560704 -0.09626955855771162
Ni 3.3633227048909093 4.3706589075329205 9.564253843182469 0.3903829342732115 0.2896630532536301 -1.0579454446210619
Ni 7.155944551390075 6.151448625044822 11.375444498871378 0.3597330705978385 -0.10342005355956381 0.3683958884791591
Ni 0.5575398849982283 9.318284101010082 0.5177442565655198 -0.017315865570628242 -0.321332359332453 -0.36069286340794654
Ni 4.540866774939673 0.2652464160931706 1.7658088480604015 0.1378221851885175 -0.07910693073549602 -0.9697856596546782
Ni 5.898800150110729 5.591315286482334 0.22409326263172347 0.5529023650980929 0.7609503764823927 0.33487410257262973
Ni 8.112691168235175 9.317648895448507 11.16233303296278 -0.10411116608931746 -1.2487539521986237 -0.1715311474051885
Ni 0.1385437775987277 4.997860879032623 5.716223922983584 -0.14855268423214416 -0.9091760163924213 0.053965141362545765
Ni 7.7031832170525805 8.72876796804214 2.5563221694411795 -0.5250570607510505 0.8340357836141572 -0.44576346792604515
P 8.603804885349899 1.37033803235211 3.573227290150068 -0.9798116764321125 1.4372132428177185 0.11337922165480473
P 1.7726772350540663 3.1822528223812148 1.7076766499380398 0.31559699951057263 0.7017419844430366 -0.037951796653424956
P 4.553843117126145 1.0618368398251936 8.215542745328973 1.1470025445907341 -0.27812728469988873 -0.006731148076246472
P 8.478043258523105 1.8772955910455602 12.48802791101084 0.9016277717315182 -0.9266731447359201 0.30617004976971784
P 6.263217580786624 7.598728199634063 1.1100870542824728 -0.23330704306140462 0.43266498287087424 0.7672076702460142
P 1.620717915994863 3.1273256900352604 6.094553262894501 0.11556568778316226 0.4951137362243989 0.07612573661998502
P 7.123467398463233 4.072974358283119 5.984531122447033 -0.6305159991175142 0.1375509338050018 0.5032147680649784
P 2.4554143213658035 8.584648900485814 10.345470477451329 -0.4982347983518839 0.25376633935702103 -0.2862504280276554
