# total energy = -381170.2184990658 ev
CRYSTAL
PRIMVEC
9.20531586357741 0.00000000000000 0.00000000000000
0.00000000000000 9.20531586357741 0.00000000000000
0.00000000000000 0.00000000000000 13.47291025392866
PRIMCOORD
 96 1
Ni 1.6221331495751496 4.2159242122361835 0.7037215451716708 1.4394912402186175 -1.4830346720272072 -0.32097831842714397
Ni 0.3784517083214356 7.655794268659178 11.406314279241432 0.20889081900056924 -0.5703670975417596 0.44749562012580346
Ni 7.576849479616369 2.648599513449383 9.28429013257509 -1.5738095260189346 -0.3495134497523594 0.2057396749660973
Ni 0.7517153006092278 2.241301106734355 5.3428978970858125 1.656609846445618 -0.0384899285450821 -0.14444380427009315
Ni 9.053262478707884 0.7031600209025931 12.410503778670282 -0.8197419926993043 -0.39627975937362075 -1.0522139414539233
Ni 5.373299373332639 7.496680383560654 4.41867037410523 1.2265645605857778 -3.135044814917285 1.2065739763964638
Ni 8.073282960060585 0.934044992373558 6.0134987156977795 -1.244347852711128 -0.8652453764477421 -1.1525689829349184
Ni 4.1333433234182 2.0912544577840553 3.989409924748139 -2.2342086858491266 -0.5387157891850657 0.49231714731586823
Ni 0.38045202346357676 4.684760155652607 3.925493734421666 1.3191954939496378 -2.475843532049936 0.2544883051247101
Ni 4.553980232852797 8.70017417724858 8.224376253427181 0.3017572654140029 -0.051000402307267004 -2.8849135012096894
Ni 8.656071508836257 2.7939238353498967 0.24085893123401092 0.14644180853672842 0.546144477548969 -1.4007064061409362
Ni 1.271705184407051 0.9243978213244834 3.127183886389633 0.9551447698130516 0.8418246835309567 -1.0960677054140802
Ni 7.094776291955128 3.6806627093826214 1.6642005226449639 -0.3432376440459766 0.2325591091517866 -0.2513973249042122
Ni 9.132566275070266 8.039029979646838 7.0119763166190445 -0.06636608613005988 -0.22833581509905837 0.31742839629235653
Ni 3.1349623783137432 8.355794104617928 12.72942102702723 0.17552149951150414 2.108802100716143 0.9748964985186823
Ni 2.7791400980361436 4.189928400172647 2.928067380574642 0.20702959742211444 -0.6433799995643759 1.0993895706984613
Ni 5.34611607551974 5.052816300743395 2.6908638802791685 0.09634386343907278 1.1503277523092255 0.10753587550015027
Ni 0.6508185947718321 2.113190725541636 9.786290988067472 0.5791309597773188 0.698411634518223 0.838502304025943
Ni 4.609469877016748 8.883332347442698 3.093487827587021 0.2186779802943202 2.349613422574392 -2.065184878246824
Ni 0.21255718754090072 9.024551098457824 9.452593684523128 -0.728383498289965 0.26512135935852404 -0.29501069071878866
Ni 4.94218681441918 6.208663379402687 11.591432261187789 2.340283146312402 1.1952598369352254 0.7929205016310861
Ni 6.801725060707717 7.1971025833497 2.0529750722015447 -1.1036946258317186 1.4840309745022056 -1.091993021124074
Ni 6.0301723043630355 2.4730449341775325 5.332739831005036 0.08353462748954646 -1.9940702216881852 1.9994098887335436
Ni 8.059732735075624 2.0559152500957 3.8580620339581304 0.9987427090086606 0.9552059620682903 0.51249516492564
P 2.6605296028383143 2.0571671730562664 1.9166968142227152 0.7763314869241533 0.9077012316191078 0.9090688013905955
Ni 8.985640228205497 5.305980898254507 1.0425554149806955 -2.812045352295054 0.7255450003999053 -0.44249688135963144
P 2.6039261154520945 7.1265070158159665 11.159921112096445 -0.9993145223517308 -1.7028992164304608 -0.831948047847193
Ni 3.862808294829221 5.171822624524344 0.6551607422755042 0.131057098550542 -0.09525654391216498 0.5838988134796073
P 8.367540087689129 3.2507100202708643 11.576180893827 -0.04159736382581223 -0.2622939172120579 -0.5514599762246115
P 3.7085824324664407 6.335659917373136 3.092342686290738 -0.6188141372995536 1.0192385149691674 -1.595246612846788
P 6.3452978831063245 5.785320107097452 0.3091172690641561 -0.1708500621777638 0.011304369269225694 -0.29655823771156664
Ni 6.429793477628705 1.5531393070056714 11.984315143224524 0.7710931213433494 0.7955101167351332 0.987010765283713
Ni 2.235207187617478 1.0858958832376158 11.295189546922522 0.31115696146134797 -1.5426570116755303 0.06034327697474769
Ni 2.292850875698875 2.785510176629616 7.6869827994143005 -1.89945722489729 1.3114654722952317 0.47953336528763874
Ni 6.16051957731618 5.368761152600583 9.047665646648879 -0.2372133200943463 0.6828916845057529 0.5725931586588009
Ni 2.7060867111607094 8.804930672037196 1.627393067072708 -1.633884379823644 -1.059927250937781 -0.08691999902201158
Ni 6.049172076352816 1.8207286345109632 2.8406960453693126 0.49335355900018263 -1.6076961514640504 -1.0118183112456962
Ni 1.4720772953089634 3.0262383923780387 11.974157077143749 -1.9542998837687828 1.0168183355634488 -0.4754239711049554
Ni 3.2594918916266056 8.210571041192164 6.0904017656769565 1.0742043296820853 0.31183701824750815 0.10655705652664875
Ni 0.42943535035893465 5.123780080912588 12.298032308637177 -1.0032282555838399 -0.2704543415356633 -1.675167040622515
Ni 5.6968294054803215 1.8499186911871226 7.670329462443995 0.8012755584640007 1.0874761070903272 -1.1479523100985132
Ni 0.41127234158323916 8.849392347769093 4.621679808008631 -1.3229721873832505 -0.9742352107855995 2.096828473294034
Ni 6.206279202588077 6.924800134110509 7.152525841169219 0.1677400557938724 1.2634385507939918 -0.5353376167414522
Ni 2.414572767666348 8.191994713733164 8.937511154624408 0.01901510764992209 1.9235965411476548 -1.148293495488016
Ni 3.345451131374943 2.758897608401683 13.167870222702247 1.5387926436241175 0.5884033862181801 -0.7188750445788975
Ni 5.661416555264873 1.0432384494194753 9.769921174826472 -0.008774403758520372 0.18172402877779026 0.8217880765950556
Ni 7.7119559008828436 7.575726431078213 13.091708200651935 0.24415529862981822 0.045250130087051095 0.7346150810219736
Ni 7.2677073561993195 9.172655425756068 3.567788046513684 -0.4611995999754573 -2.0218404498229177 0.9356606929465111
Ni 4.415615129762494 3.8263460386027095 6.337737557168724 1.0773886409473379 1.1682992491859814 1.5116636486178094
Ni 1.9061907872014283 6.553319611509936 13.279466267194547 -0.4405014481961575 -0.27295962445602023 1.037636814970697
Ni 7.7593080458031105 5.527709342013149 3.0206397192558563 0.26385123439684877 -0.4728690658935857 1.42272456228324
Ni 3.2859571748003544 1.1326680932570312 9.095359308788534 -0.8953753630639031 2.075980683310747 -0.2508540508062325
Ni 5.498556106600535 8.592987479065926 12.271665522343412 1.4448761586796148 -0.1815579355135712 0.8592261668368557
Ni 1.5800096240784274 1.4117088337251558 0.30139308850377594 -0.8191573238404278 -1.2485757747495465 -0.19110958375774828
Ni 0.35186031232004117 2.9936607794556394 2.4389604110445093 1.0228362596227547 0.4397301172477718 -1.2393827953963688
Ni 3.5336630199907604 5.752199380537748 5.1114339112455855 -0.29802350940318356 -0.10928345431887632 1.039724807847977
P 6.6939031957288915 4.09060304175708 7.499843330099263 -0.06692581528827184 -1.679300603174914 -0.8259272955744099
Ni 1.0803634883898163 4.556898317988825 6.210512727364289 1.155375856256094 -0.3725225090530229 0.13428229035605904
P 0.762561924318316 8.41008705771663 0.4829053482173831 -0.3509100729895699 0.17120384597275676 -0.8459397341405946
Ni 1.7709739021443147 4.3710337849240695 9.990311165655214 1.6139256773135302 -0.8918035865522447 -0.43019620961540744
P 6.5553171650573105 3.747327607032809 3.938468627163718 1.4034369176982218 1.3317920996677257 -2.4763227856791996
P 3.9826154810922976 2.3954072999906106 10.988141632869658 0.10317142788386748 0.04000302275549885 -0.08658061340472187
P 7.562443160253963 7.838869591010315 5.4634672835042934 -1.1825999820793696 0.7067679769027182 -0.17022374144767458
Ni 3.679456813001487 1.5728662989504867 6.442826363860842 1.080263648502288 -0.9862366061218498 -0.206007069694871
Ni 1.3004994125000904 6.4811867562231535 9.30070044920599 -2.683177805196663 -1.653516809342591 0.7616332614820303
Ni 1.5438879645397172 0.5196492871100221 7.187245531098412 0.36402475599465695 -0.1691965857347409 -0.012215054008953157
Ni 4.555637189712371 3.0291656828299525 1.7382342756623126 0.02206340755794265 0.9414176500349464 -0.975957592793345
Ni 7.948633777641197 7.098366365150871 8.827154145650434 0.8521039539697778 -0.16681882953118368 2.012424812935973
Ni 3.9739256628954216 8.722386604482757 10.59811423982092 -0.6728890647670863 0.22616297581745565 0.033844459353270746
Ni 4.293580257054878 3.3664392515962116 8.74836492644611 -1.1572111096926199 0.5792584864941185 -0.019643742372856494
Ni 1.951922796525667 6.587480538764817 7.000753195490197 -0.5468073079439486 -0.3997011263503439 0.2619982403485101
Ni 3.815492971172501 6.304693234730878 9.508816071831646 -0.08576145993753617 -1.432025785079508 -0.6753858630470111
Ni 1.4104108841851561 5.938008681707183 2.385540121891848 1.3097608308992992 2.3317529973542035 0.20757132885819737
Ni 8.768643316812527 4.4916602443010465 9.80733526071565 -0.6142820537571549 1.346226529925501 -0.29431983529935113
Ni 8.975468354150891 1.9318460025771635 7.722227192349025 0.6142488865263743 0.6308828955386296 -0.5507349251331289
Ni 5.759710918301149 7.680436899287395 9.73280350010884 3.0011044812816765 -0.8054284042901096 1.0660004537150545
Ni 8.282621048635969 5.5657365019403695 7.121591377132564 0.4597942349874985 0.004194240587005679 0.7464395844607273
Ni 2.5204799269407774 8.011091845931245 3.8021765612110587 -0.5246485124587222 -1.0551498841537958 0.46211774091435254
Ni 7.560252295072971 5.989374344353973 11.258206269816835 -0.6666775366397356 0.133374433829809 -0.19413217263415597
Ni 4.5722988114669745 7.383335329049915 0.9013918958608892 0.5554413294698628 -0.09696504196283946 0.39527522936850634
Ni 7.086629587395556 9.176263909583582 7.925264242200085 0.1583241617966112 -0.08283477320904443 0.967443898895379
Ni 9.145554975786148 6.44041641216175 5.035284776637514 0.05814498377184825 1.6253537166448135 0.33061789839943706
Ni 5.434523929293893 3.8793226315296407 12.76298176768631 0.8422782261286076 0.45314690487430986 0.9805195011324146
Ni 8.573242076489338 0.8649535734556827 1.69415093841335 -1.3852324788750532 0.3722250324172622 -1.0242717065177005
Ni 4.303024911154449 0.8594994237929188 0.7045711958279968 1.330644616326844 -0.2944375918241381 -0.42069804031698516
Ni 3.300032102790846 4.875549532716652 11.832314205711516 -2.3585703746573636 -1.4489744971187044 -0.45545009908618983
Ni 8.203943213753869 3.707440973296512 5.6745470178454065 -1.1910514552808327 -0.602345193110253 0.5624288165312894
Ni 6.4478266914504 5.364314985027393 5.336323460479659 -0.5134104776510577 0.26886719955420146 0.05151616560142096
P 6.453349880982312 0.730694961782356 0.8699713911454254 0.5126260340765495 -0.187417993838774 -0.7300608859923878
Ni 5.582490176853839 0.09903447043355232 5.766243930985813 0.5812611187464441 0.39828727672195274 0.5780847779009914
P 2.8030002768140068 3.5028068011391404 5.1090488138993875 -1.4346465105318067 0.6706046396082838 -0.3392310939897448
Ni 9.079046568506032 7.956826508780201 2.4125135385025334 0.7324990631202353 -1.6316981708056026 -0.03337240481285866
P 7.308845912896184 9.059374808456534 10.5838874241183 0.8772953656337408 -0.42797426226342417 0.5909937726531757
P 2.399696977193729 0.7092714301196547 5.013122058109125 -0.3384898449483461 -0.4693204293103789 -0.2801018919277563
P 4.176037578499886 6.40260097449992 7.320600180751683 -1.1045749715541429 -0.19308676208877715 -0.4394650365118431
Ni 5.693929730976067 3.5952926098510214 10.423411152268573 0.8900873751920865 0.023547448302636866 1.8893023958514752
