# total energy = -340860.096630813 ev
CRYSTAL
PRIMVEC
9.39101092682245 0.00000000000000 0.00000000000000
0.00000000000000 9.39101092682245 0.00000000000000
0.00000000000000 0.00000000000000 13.74469374933467
PRIMCOORD
 96 1
Ni 8.35483506220715 2.3931864735104704 3.281270910814567 1.1540370828400124 -0.35446667999257664 -1.1509301617799146
Ni 1.3900105003047125 6.34142107548736 11.613015355056314 -1.1775601056626173 0.10032007447800141 -0.8099697438038889
Ni 6.587315308774382 6.107537945331033 6.223088701672953 -0.20786700572174524 -2.1242282054632255 1.612393814050036
Ni 5.257247631990563 8.17484694445665 -0.0026839509575859663 0.12488259430871396 -0.5041321376729253 0.005040647747700996
Ni 6.356164962833091 3.2955311610913145 12.129279613725377 -0.44718065998854606 -1.9125248567145257 0.5276345916702396
Ni 3.514510756714091 5.196271797254364 11.143139873662225 0.7157398413840254 1.5290574186142247 1.2571709726177254
Ni 5.742105532411008 6.3501922798064125 3.6124355244195763 -0.46126027801006364 0.4664747323314676 0.20007219226767478
Ni 3.3652969821686622 1.0675325719193223 2.135485861133606 -0.7583749024457327 -1.9068951692325737 0.7702863091713379
Ni 5.0919564465305545 4.120409398535256 4.901041887425432 -0.9720415455683904 1.8888650512037406 -1.8200376480173817
Ni 6.406012449477131 8.796522484838853 11.579175785845099 -0.26049363077852555 -0.9615817836876474 1.4509958984241076
Ni 0.6226756830588394 7.094655289644305 3.4558422933924438 -0.3440927929574203 0.7122835074043087 1.08741748593825
Ni 2.5338919920461964 4.8618766758487615 5.40505932858649 0.08559073868762677 -1.4790738876072462 -0.7306753796479352
Ni 2.4682957798742655 1.7356560529461018 12.544328494417652 -1.1194919978752915 -0.45681998285052294 1.5038940319747196
Ni 2.566281589151564 1.71724028028051 4.234094160981892 -1.2140350606601997 -0.7838625051938759 2.3372438452654456
Ni 8.998448004398032 5.63948995468693 6.213508931302646 0.5316162020258071 -0.32868057216740815 1.46752449220675
Ni 0.30148526228816247 3.0565017568805533 9.015048494628001 -1.4468865042414243 2.957312423797391 0.746288917815476
Ni 6.936886304033934 3.111072922081855 9.211116840596395 0.36774437093808926 0.25707354935338306 1.015694763481967
Ni 7.765624247018701 8.92205212952063 2.445304706625973 -0.863609640616532 1.9664370333519487 2.407603625935931
Ni 2.168694354402379 3.0706352285081486 1.284290254328086 -0.0006098656698570142 -0.4775315043662614 -0.2577808598330528
Ni 3.186989855395798 6.942286135386671 13.14693746506862 0.4970870579006858 0.17162524978089153 -0.8097290885479925
Ni 6.300279056085037 5.242259578357578 11.167055022397664 -0.6281600972908279 0.30276076697785276 -3.1582143110552128
Ni 5.067351997584174 0.2392087725217827 4.556035862636427 1.3120583686842242 0.45468622433697176 -0.914405897332793
Ni 8.230986408503009 8.771523613428448 13.119709167635364 -1.1571843702197426 0.9394471565721368 -0.5303108529508221
Ni 9.204937555326655 7.823576176197369 1.2697304307989004 0.4919672201756172 -2.2681626741970677 0.0054648797693131685
P 8.006174995019277 3.753202084527116 7.216802292146508 0.45394471818525695 -0.23534412809609148 0.4425711862409927
P 2.139253534766158 8.378866659479586 10.315557964137495 0.8548033551788118 -0.41347889686072653 -0.2855392608932437
P 6.455005354115779 3.6155862086262593 0.5441527441790106 1.2297028491044435 -0.16610123463886878 1.4064438228453455
P 0.4370426285672454 2.0334825773298713 13.41717132079046 0.8477302503821142 0.06076262390035342 -0.4788620502522269
P 8.516895739866566 1.1995607962464778 9.546624796811212 -1.4079687441303042 -0.014079875131833815 0.5710492112104487
P 2.1587023186470553 6.275824863315429 6.814454753896972 -0.4529476443793103 2.9967834853088196 -0.09401058732020583
P 4.403548381639584 2.2930782957362705 3.500677797440039 2.8507062592003614 1.2444704943319211 1.1833725985793364
P 7.808700814696962 5.879965574599119 4.365823751157714 -1.6595437322629614 2.345172613194219 1.146332257996587
Ni 0.4890397176402256 0.4182014431011687 3.9273809228431755 -0.14830817232150587 -0.4322602912332878 0.5477287913169535
Ni 5.0436490856984255 8.574547156691688 2.4693165827752086 0.14536631608436254 -0.763704285078446 -0.6134382176996209
Ni 2.331074326437435 4.9078832389740725 8.297272859986984 -0.22195742237654031 -1.19369352088937 1.5016414884951172
Ni 7.104346813046086 7.9912526784636295 5.239244124709989 0.78730572654747 1.6589127835471817 -1.500219668446926
Ni 1.0492013183531648 8.316294352865189 13.156517235438926 2.0164128510494437 0.32641440184105075 -0.6961387793236463
Ni 4.4326699069001645 2.033820653727608 0.3979995001342025 1.4085318157226256 -0.3762945745009455 -1.5064160270656248
Ni 3.295906801533244 6.787944868808905 3.7461578871398338 1.5621038075462321 -0.7052664526565273 1.054616637358145
Ni 2.579673170906349 4.886471733784093 2.9316060054445328 3.2858168753982504 -2.0852268844993636 2.2898136768079405
Ni 3.942928680734636 0.5578748895226936 6.442371626952587 -0.715986924397825 0.3004336615065729 2.0129670585926878
Ni 4.668177681967838 3.879717785368957 2.0698135817721837 1.0456056921087864 -0.4298048877142598 1.2809115107677747
Ni 6.452760902475251 5.767893248749466 13.359045657907402 1.9734913690955687 1.2149025508668172 2.365816771807132
Ni 8.341443480452366 1.697453420001876 11.851471907593131 -1.2195621611260157 0.18711871743080033 -0.13279850672168098
Ni 7.57957892714209 3.747454785765595 5.014600810324021 -4.475414371841377 3.726908391769924 -0.01498156101049678
Ni 2.541771050315667 8.538964615829922 7.9312798037073815 -1.897435566481571 1.4424516083985224 2.2530019072962295
Ni 8.225896480514864 1.4826809973287092 0.991648507144048 -1.0430937243202099 -2.1352435827371226 -0.7685089055559409
Ni 7.068313503654003 1.565096510288032 7.5151171491047855 0.40930239688553377 -0.736927274094918 -0.3383823728362043
Ni 3.958207855710117 9.523424304016544 11.81005942707262 -0.2635218760818881 -0.6281351575901634 1.1236008778373425
Ni 2.971879356324895 2.5772408990448556 7.757162006963136 0.4575923422401732 -0.7199960455572181 -0.15347531834474212
Ni 2.3408409779276007 8.281481874909375 5.7741730178374215 0.3414967500954699 -0.08970141842189068 -1.9004614977920886
Ni 0.8997255345994907 5.337972762961202 1.9457404829039888 -4.9448715838399355 0.4679490028841489 -3.4514925924639264
Ni 8.422816591185333 4.4722342364463845 11.068052166623842 1.736162606469281 -1.091436891510288 2.112440468799678
Ni 0.9630857470408369 0.6404970047250776 1.4929481897077461 0.7423240196304571 -0.13761341161182108 -0.428897545408642
Ni 4.358790822983689 6.1938601188864215 1.435674291526762 2.1024339924062696 0.7878916809579268 1.1699437267679398
Ni 6.60341150171106 9.164772201073347 9.378911669601864 1.7986067318371153 -0.653053518098398 -2.5382480624290866
P 8.300461108237862 7.738136757680514 7.543005634614733 -1.0370976546377753 -0.6923561723527625 0.7210388849994357
P 6.8125117537110915 7.259739872861254 1.6095178707484 -1.294734532693796 -1.2100544787458967 -0.22896959202831535
P 5.043658476709474 1.5271849986863015 8.527249329547246 -0.28228475851168805 0.5909654905184015 -0.8477166235353595
P 3.9531930558103587 2.8414382128648907 11.571644194984414 1.403259511580093 -0.13080693021294892 1.0974645857616068
P 2.619678877971836 5.300258462591486 0.7200351118992206 -0.2627891116809216 -0.8510577720934503 -1.4289815989365455
P 7.353574855255232 0.6889499262284534 4.663890685424318 0.0967128167427173 0.5735274975476122 -1.3199812230757266
P 8.703072533897853 6.619695514868702 13.01197830619331 0.6046249902833651 0.07346053108299606 -0.8576207700229488
P 2.487904210942983 8.604898904399588 3.5618686863292424 -1.4026591589919326 2.8513171533114834 -0.3895182722800711
Ni 0.9370397778985532 3.356722989081623 6.5705410848400225 0.1280180546139021 1.4017294480888116 0.5115227737100416
Ni 5.40050750553141 2.37050718182898 6.081752107194785 0.2795550182853508 -1.2451556933244041 0.872799020425284
Ni 4.635694174751988 4.404778604086903 13.589956533066964 -2.51815206301016 0.14113479450151822 -2.332655454563815
Ni 4.491053822587051 4.451198371698335 7.347556156274417 0.6367097866330519 0.3595662060026711 -0.6209432678274145
Ni 4.305449880229706 6.512271739487925 5.785787820301881 -0.9153952578292558 -1.504640423222441 -0.6441654715801487
Ni 1.0104446157570932 1.2048385444555867 8.421635201995466 0.8058096988889284 -3.3050893504746175 -0.5487412917418679
Ni 8.720314430182414 3.5954612719498886 0.7328350599579669 -0.6518846946012773 2.3794870702053728 0.4497075401754578
Ni 8.66256910324681 2.184856284416394 5.58474411668013 2.383228025305044 -4.775401946949466 1.952134757796664
Ni 0.5171413791009681 7.214822667017539 8.968124429723277 1.2385147909691188 -0.9355953869262145 -0.7808376023246231
Ni 8.524990791390145 7.43729571875026 10.725699102455962 -0.9440211490960645 0.089814032740355 1.5992279660920394
Ni 9.47919264197935 7.931403765053219 5.8048515727298 0.007310674728800312 0.6150716395379859 -0.33339057604856775
Ni 1.2341948449923739 4.124118847899309 13.065004650077178 -0.09966932826787996 1.1399926889318044 0.6401224118590266
Ni 4.121620838960478 7.128350237285378 8.121849712707034 1.7705644809879184 -2.8149136749817845 -0.8458559161775369
Ni 1.9309421276941778 3.4559484118172885 11.073467962695357 -0.9112673517038113 0.4182387801432152 -2.5206946269263555
Ni 4.491852058526151 3.7079186292525197 9.75378486592868 0.6238241889196353 -1.3138684253097694 -2.1670005634337453
Ni 0.01509323295672556 4.740328819851438 4.0132720489914515 3.1800936276268073 -1.41853726367477 -0.320128568832339
Ni 4.528477001614273 8.041466414538549 10.08494947953369 -0.4453184099688266 -0.007926196825612157 1.3121059340927081
Ni 2.3131093223021586 7.380376800786899 1.7336322900652068 -0.7866925184435033 1.5794826651443121 -1.635693922228557
Ni 5.708833180267107 1.3528784426199856 10.597791653776774 -1.1269086020543366 2.222775761421836 0.5053467268063168
Ni 0.8012448190399499 0.5785135145034028 10.916901965600266 -0.06544897363242921 -0.3810225761042341 0.217949843879044
Ni 6.362898317754677 1.589165671604662 2.342783039012376 -2.3600922106185287 0.008421648404791949 0.2607049754583833
Ni 7.423218593188954 5.131201481701133 2.481412205005337 0.029311347369607586 -0.7653742165817012 -2.5009958629458473
Ni 7.74449447216017 5.341719776369449 9.154997097673238 1.554023087420627 1.4599248254826211 -2.4316244143305608
Ni 2.9011274790874815 1.267063383661201 9.871012856843812 1.2611160733084024 -0.07807488992655585 0.13269334860238438
P 1.1663447901688657 3.041401011114989 3.231089104177211 -0.3173728604640728 -0.2681380346976608 -0.2610106796242601
P 5.213006578942321 6.807910158297456 11.861492116381601 -1.9668065008762254 2.152686717914235 0.52014522527173
P 6.353122275253463 0.6528076811082106 13.75885104946618 0.0745455366170587 0.37832291778488397 -0.05676892935992804
P 0.736136000341422 5.024979755734532 9.83351736703152 0.2750221634120038 1.2800458203333696 0.4730878667726111
P 5.38735069905283 8.061976382667897 6.541690959798736 -0.35541464572814274 1.8419850988227502 0.9803500654340859
P 2.9466926646935248 0.09105054761817612 0.25209699608438235 0.28361967527302767 -1.3800992714135458 -0.8879137645795353
P 5.689750645817091 5.4166600445343756 8.979848167915895 -1.7921519773507069 0.4583112226840687 -0.5258106510876235
P 1.4340355600988448 1.2590152871928626 6.37494041122183 1.0795938761287731 -0.879343506412021 -1.5324355910578382
