# total energy = -381175.5080644642 ev
CRYSTAL
PRIMVEC
9.17580939627421 0.00000000000000 0.00000000000000

0.00000000000000 9.17580939627421 0.00000000000000

0.00000000000000 0.00000000000000 13.42972455647129

PRIMCOORD
 96 1
Ni 8.684646763936005 7.772910805127955 12.896940667137537 -0.8082555893262596 0.8897101943583257 -0.953155764407481
Ni 5.004156169191688 2.429157926542569 10.085038622214995 0.06579632966951895 0.5150590689980742 0.7995382640579198
Ni 1.4092024705556676 8.564315198224335 3.583842710919057 -1.9954329063636669 0.165599869522418 -1.2710996668836754
Ni 7.995993085559719 1.7754640823405587 8.503701635865164 -0.14659196096134752 -0.22429558359141372 2.7135703014455914
Ni 5.248930063268594 -0.10993720871623255 1.4152777740220164 1.1544268620792635 -1.777646070425048 0.20231136601083866
Ni 0.03343848496007868 5.587453202951427 12.145628138465742 0.3605766495450564 0.21966374124635718 -0.2356729721904199
Ni 7.583567976207692 3.189740775546719 4.23260639267964 -1.7439381366496416 0.5792438312060992 0.13173021335816668
Ni 7.958427321488986 4.51246124161615 10.038947613542867 0.9298461431472631 0.8979667779401631 1.970449754055768
Ni 8.74953808868154 5.584544471341652 0.931251988022032 0.35311273706784346 -0.49503094670260545 1.4994588790215013
Ni 7.670022453265443 7.2377133647387035 6.4910832516519825 0.9140755105765677 -2.2161371730593964 0.08068713073842233
Ni 1.9152300125617099 4.471280208604561 0.9506092757317577 -0.4747063762126405 0.33134346371155193 -0.1400356479000685
Ni 4.606834442267709 0.5659657647864127 5.924979849723152 1.1114642424748085 -0.03251108525382788 1.227814630942795
Ni 8.362419861915512 2.896582838004994 1.8317072066374698 -0.13260490265363611 0.34029784469136237 -0.3749033505803737
Ni 6.897153195348077 6.057869428309079 11.447202222977747 1.668924402146913 0.2558119090321401 2.1381586995013886
Ni 7.1913571751721825 8.030246382402915 4.180686909816566 -0.15306677005241381 2.0274359416328243 0.5498764337875756
Ni 2.588422451939662 2.1595451161638874 8.91757927586018 -0.3189474040400443 -0.2539074929205756 1.0365638936214923
Ni 6.471303876705508 0.08762622793020783 9.243464573126154 0.6426508347078351 -0.03955770768796413 0.3145343625740131
Ni 2.8508322518651137 -0.029597491105655505 7.533431353129411 -1.5608683924772344 0.22942930527355326 0.3406014919747102
Ni 5.356810055496146 1.6639779969816444 7.913586058070017 -0.4386379126248575 0.6555405461863097 -0.4749226059885047
Ni 5.10932012180885 7.198486779149455 10.620723298088407 -2.547445412657639 1.474850593554518 -1.6443875933478131
Ni 1.6596286632812225 7.601341519198656 0.4727037546646456 0.22835664103466477 -2.3361806941082537 0.8590377049751335
Ni 4.4537911157079275 3.478356687388636 13.02222625239532 -0.8234649500768463 0.3691859884806223 0.29589129355152916
Ni 4.096420863323266 1.2739510386058404 0.0625175428292915 -0.7506873039934877 -0.5274556428902142 0.9410913770437792
Ni 3.4741174634021488 1.3304281460448628 3.7300922681290647 -1.9249615398159816 0.8827993261711055 -0.10972054185629491
P 3.9661518959289856 6.0101735705563515 9.13226660818537 -1.2323228032257936 1.827214368271479 -0.29890719755971745
Ni 5.448164414823993 7.415705717314195 5.816884225972478 -0.6422299451203327 0.33230299941134384 -0.9332361426654185
P 1.624164159584745 6.435031901773509 2.329627920955067 -0.4173874878865135 0.7907407203709479 0.2796318942698733
Ni 6.094948874476599 2.39695083521666 0.953444600865577 0.0916117480707261 1.5914004996278206 -1.2531006592030935
P 6.153316198671502 4.1371339300506325 6.0018786387732685 1.1223310099859831 -0.5863992113039579 1.1202995813782513
P 6.757882758839632 1.020735399793939 4.852884691445308 -0.1312980109167545 -0.43672218365938337 0.7348408238795344
P 5.169843761234973 0.6002621879342328 11.670323041809386 -0.7236794079460762 0.2850101278626511 -0.7141046197734475
Ni 7.057592224360473 0.13040018147005272 6.935243815721898 -1.2060967796497293 0.7700847346834931 -0.38425265300575756
Ni 5.4242247278526845 5.70054505497189 7.298853618562861 1.0746445025432976 -0.6257941681618127 0.5102901868545212
Ni 3.288050398471444 6.436270636055275 6.802813945191649 0.45915634429318347 -0.38239503097172856 0.3016546783978676
Ni 8.95096545870614 0.309621174936866 10.655627159824768 0.5142471146197402 -0.08216037284983914 -1.0313167862899402
Ni 4.78400097198869 8.093944851914156 7.971307405276501 1.0858982210802461 -1.0725850489111075 -0.009803359243666987
Ni 0.27784259391435334 4.353839022883677 3.5092947642614467 0.7923641149069838 0.5836689568569884 -0.8261041874719063
Ni 8.893423957365748 7.210993407490542 10.14065045081868 -0.36938730585815094 -0.9443376518952188 1.2496160430886025
Ni 2.877955944731035 8.284333723116799 5.215876962307287 1.8195313978049246 -2.161923148910838 1.0974039077270004
Ni 7.164380295258173 3.9482498916050974 8.139326570512354 -1.29441083080579 0.11521036132627255 -2.42874477878992
Ni 1.7839608819325223 6.0877917430708415 4.737308947794667 0.48670211512193595 -0.2790693368981839 0.6213091358072653
Ni 0.7412081272563844 0.46815714106009065 1.252845759187401 -0.5029265474005983 1.0057088559138485 0.7394353852287523
Ni 1.633918045077463 2.580200926632535 2.4120991791112307 0.44930079165534237 -0.8903488563835893 -0.028994330349821032
Ni 2.223986826244188 7.312120003930097 11.257614399943979 -0.2521894817882044 -0.01865155366291627 0.04985754695207542
Ni 8.921492758609611 4.908865387590674 5.837954637314838 -0.4588547538923646 0.27888961678721 0.14800169682468062
Ni 0.9792148618310512 2.688576412572794 10.870421849121044 -1.0238302481049077 0.22099968644896134 -0.5026488682591794
Ni 3.917354941036911 6.213325992765929 1.3232352289820764 -0.29929569124738775 -0.17146172761983375 -2.678531050453271
Ni 7.846399863369893 2.330536326095029 6.443810398716955 -1.7100060026785713 1.088805367424712 -2.3735753327066282
Ni 3.1258679656550807 8.746555950595807 2.102531223869433 -0.4014772444141602 -0.24186058905837055 -1.0967667883636336
Ni 1.6764479220847526 0.2311936960249554 12.589601516021967 -0.1794956536679038 0.059131001834201384 -1.739581916563475
Ni 4.793341946054152 2.7841332926491504 5.153751226543413 0.6060995179463626 0.2477126769637734 -0.8619854747495477
Ni 6.309378366554993 5.176349410166617 0.5956834589964469 0.21066256618901139 0.04907078938472194 -1.112895575604696
Ni 3.214698977371924 4.087364339352135 10.759331241151347 -0.49375362265207867 0.22321829136683494 -0.2817180873749406
Ni 8.45095724772853 1.1455814637769342 3.461430989194969 0.7235444250301087 -1.258797966698187 -0.2943851413196479
Ni 4.427263850459153 5.599400106913346 12.16319430816213 -0.2394890035024005 1.184472002291102 1.0915415354089524
Ni 5.2408461751038855 4.582463492250155 2.6557013223156813 0.025655238674259038 -0.4762474954475153 0.8715790319752537
P 7.503830191699957 4.970563530632101 2.678652774604426 -0.015673959091831068 -0.30840408130655916 -0.8851727114992884
Ni 6.199231949382284 6.805294166498029 2.54037974858804 -0.1232615137655232 0.45904604396756427 -1.0724346393761723
P 1.8015050296861226 0.006007402476088995 9.66161263485994 0.09943175833577714 -0.013842305199730998 -0.11185944257616864
Ni 1.6838528003468634 2.452427779420775 13.270031833929227 -1.2411352593111011 0.4008362683960516 0.9413106921434369
P 1.8140483612651874 0.8305227041335914 5.20792612338025 -0.9936573240659533 1.125189562480701 0.6014183104206093
P 4.135684152150493 2.8853975262311238 1.974330483935227 -1.3662322836234666 -0.6270159563840556 -0.2611459196505438
P 2.5204480552039548 3.8396633620464646 5.3160621206927 0.9501228911184282 1.7290169965634352 -0.7582160082703652
Ni 3.059930598627166 1.85588087675089 11.599199507255147 1.1244118037744117 -0.3378768939546955 -2.265193821376731
Ni 3.0544067613114407 2.1909263846352856 6.579450884989352 -0.4323777906477586 0.38443005912388634 0.011479204284193134
Ni 4.87437351970062 8.780010952012976 3.9803551314456165 1.3959807185304924 -1.2408683788029597 -2.089023118317002
Ni 8.962664615811704 5.952788057977368 8.043934855006901 -0.09827373347193398 -0.8519088072398361 0.7688881432722307
Ni 8.494643276732134 7.7563025899428 1.7816816108540734 -0.03457053888601788 0.9606567007702165 0.5042660921476283
Ni 6.883582173105621 5.620440238084374 4.6751024649072415 -0.06834814955709519 0.375667739550224 -0.18528886331091313
Ni 0.6782051841048305 1.644158248473393 7.209706958999405 1.8887843185644762 -0.5174049435224315 0.7129532797778237
Ni 7.393509434146852 0.5776025263874148 1.1175851514280795 1.7946660020218126 -0.3011432859790878 -0.32074691914262826
Ni 4.382017933841473 5.232514540082824 4.96795026008805 -0.18742133627288368 -0.8988448096697422 1.0498189588591855
Ni 3.917290710370449 6.74206366327101 3.3978811677975393 -0.43660776956870617 1.633977967978715 1.4353160257950053
Ni 8.946524366910772 6.726143633797946 3.735074732684611 0.4040131234621364 -0.8678756149817375 0.7265973529238196
Ni 6.850347391116322 8.38533185822343 11.28067320920381 1.1971339140294868 1.181466382695559 1.7317647345119012
Ni 5.571826799382191 4.948596642702123 10.00201589790821 -0.46041824172474255 -1.9056443275446084 -1.5550499860232443
Ni 7.371138810599113 2.306991198931986 10.761037024136385 0.05824551390545453 -0.6011236619983261 1.0194411178982767
Ni 5.716850468443725 1.621090263404067 3.0156986089586355 0.9897510470330115 0.19994158022708144 0.6859546397017928
Ni 9.136169997544355 -0.2860384269548951 5.7238295891452875 0.17789102818494523 0.7462074138452632 -0.6103984024320327
Ni 8.206238408508591 3.5937057885447605 12.912612949754244 -0.34371124124828545 -1.0404650284481114 -0.5111034267844359
Ni 6.841098175145805 6.75260666838026 8.86995682458341 0.3998309670599888 0.5084737024710727 0.29659449026614076
Ni 1.5388383070948233 4.257465495762304 7.296987258911668 0.7614730817550822 0.7368971921879309 -0.6946092300529972
Ni 9.089740401501878 8.77062409890004 8.416274523000988 0.23465970043455717 -0.5044360420665892 -1.3839618396927458
Ni 1.0542821593060536 5.192407076782099 10.218194299276266 1.4899288280438794 -0.6494141215735977 -1.1922963834315272
Ni 3.855821962566386 8.063600449915644 12.977344615414575 1.0544322892614808 0.07786688768080784 -0.20502542250789207
Ni 2.6552957515360216 4.754023602369959 3.0943564006888598 1.6055518514275382 -2.1486523999438605 0.682173832503122
Ni 4.100770197023688 0.2543451809606819 9.720407551777289 -0.9148298722440888 0.08239074369309037 0.8180448075025395
Ni 3.7739553902559138 4.164753116629261 8.204528037618806 0.40808626509024554 -1.2134174816808587 0.041671154486541136
P 6.041912695598038 7.364679040714942 -0.1703681724664609 -0.16508873421395437 -0.442679943904715 0.5268182664165314
Ni 0.7006216867000428 2.703110894812178 5.124850179378394 0.14166109931863347 -0.22308716510560936 -0.8788156589330092
P 2.1892472114977806 5.43099647525967 12.577850056802282 0.985891049856973 0.5081057776086927 -1.7587152949588163
Ni 1.950997317971508 7.039479176418211 8.802109971599677 0.6958695848226596 0.22715799274087334 1.0309678875909536
P 0.31415585998907797 3.5494692109714823 8.804863632028994 -0.5938664662152805 -1.097829168189877 0.7303323944862196
P 6.2121331375316355 3.9546637824417954 11.798603611286197 0.29788415561184184 -0.6484026495899479 0.9201705677307119
P 8.85880362814277 1.3458343301862303 12.383106346413522 -0.033660368366922676 1.527644340316782 2.4772098162698435
Ni 1.2090688896698008 7.138733907720876 6.694194382718836 -2.1398075479587213 0.6192602236980367 -0.8363600608719596
