# total energy = -381174.6983685124 ev
CRYSTAL
PRIMVEC
9.15977645402027 0.00000000000000 0.00000000000000
0.00000000000000 9.15977645402027 0.00000000000000
0.00000000000000 0.00000000000000 13.40625872485418
PRIMCOORD
 96 1
Ni 1.9164175956548064 6.870546825192338 4.9322025565913235 1.221128220061555 0.12661423228784 1.1444705221975
Ni 5.001787546581192 0.8586869103565039 10.276393539857606 -0.6439968072127683 0.867572481919022 -0.5967689845740561
Ni 3.113197351883265 1.0857449456954458 11.755572868983032 -0.5022428910700124 -1.9695609236929108 0.9284076109285236
Ni 8.833093055218061 4.198117917695196 8.878134424120386 -0.43884540064997324 0.5090216045547427 -0.8175316153115468
Ni 0.2348649128358307 5.278348677947573 3.964632467197781 1.0744866368091948 1.5741432552092698 1.2018626869637237
Ni 1.1287226169560378 8.222026046450663 3.063437782114288 -1.103113299406952 0.9644513919259583 1.1884322724904306
Ni 7.069552129072906 8.535107206656768 4.194550184754871 0.6336267768323539 0.6549288807442398 -1.6383105339157977
Ni 8.679208810295224 8.87164655443712 1.0130263961705703 0.15701444184625218 0.44161113632056853 0.5416252495223769
Ni 3.9480560196955867 4.484883040064198 1.8561233669521535 1.8365006786694114 0.3877742930057709 -1.2931928992382888
Ni 7.158859949787051 6.02285531052663 4.3347799508737515 -1.4256499634601512 1.2560998510407333 -0.38098400955681483
Ni 6.524673665175295 7.633272253197078 6.210932085084731 0.7275872276409147 0.587249475119395 0.7900424087523426
Ni 0.847171239361445 6.2337316847298165 12.48536981650723 -0.43086058267228383 -1.4739499361171196 -2.3380401159144957
Ni 8.312845230284587 1.7596297015867 8.271795691973773 0.21491259971461696 -0.39726346344312874 -0.8393579671580189
Ni 8.696438349860692 4.194188373583773 0.39315043035898983 -0.5321394215191286 1.2013358679259762 -1.0883186575962807
Ni 4.304554520433491 6.6854552217902095 0.8015509725853623 0.25333208003307983 0.21214249316864753 0.4084135665226773
Ni 3.3796094509059262 5.660219759544779 12.195834777729617 0.2733252353255551 1.3649709004125397 1.8334698622628876
Ni 0.926456432647343 2.5350322602446087 12.484739623885165 0.5719709516937698 2.3757916236316565 0.6068075997569807
Ni 1.7452030536251841 8.043730997199294 11.113936022179594 -1.2008334743682612 0.41923431128726507 0.5597178453580296
Ni 5.988918338655253 8.31357801240327 8.61644418987497 -0.22651753094339697 0.8415904560329633 -0.24052772917955997
Ni 6.393954494979236 8.183271032148966 1.319657241776992 1.4778150754994805 -2.2604917879153716 -1.2274197094972217
Ni 4.100813612110953 7.286739589273225 6.211696010443455 0.034212127105334625 0.5165012007612395 0.44449385718500223
Ni 0.9109406872619387 2.8632453712014585 1.6384595983746915 0.16939790311226957 -1.108398716175607 1.0214622620933635
Ni 7.013897327159146 1.7158642895485265 6.030697911151804 -0.17931979021167183 -1.2176258633352515 1.2751445263770103
Ni 0.04537844867691808 0.7175320068127905 11.809211604092772 -1.0689024578531978 -1.7269619138066195 0.17116039432933103
P 7.418264819799832 3.5932520776071306 7.152132093959919 -0.04703781811509319 -0.39039167602395997 1.2986222977839763
Ni 5.093953217558191 6.76525519451448 3.229366217135282 1.3968538651640652 0.5900193245550484 -0.3522357337795288
P 8.9935265403266 1.1930150880937396 2.9851583322862787 -0.030244657817154363 -0.18569818293418985 -0.6228286577755854
Ni 7.352204511800815 3.9530847369850295 5.103333744654946 0.43811803556564544 -2.497282675760318 -2.0058541016969906
P 0.6261128576191971 4.32623571136994 10.824990873007518 0.45316567392738727 -0.1564505989229822 0.9109346509547408
P 8.055895180369385 8.857668735523298 7.481738406919909 -1.9732178037192083 0.21059237507270828 -1.4998730837407845
P 6.31113179601541 5.771272889630759 1.7440736531847683 1.1656355863108894 -0.08460677750780268 -0.512707280936446
Ni 2.4624959902717554 0.48146533130232433 5.467219605126794 0.9042029886578622 -0.984091277644073 1.7972311916458272
Ni 7.949962365337683 6.80093252391772 13.496751116821363 -0.5731454316178451 -1.041834140881496 0.0063141151434859
Ni 6.914339716559961 1.8644541836638988 3.746043561195485 0.3561533236663802 -0.005877027606067299 -1.3363599215440662
Ni 2.722716080391568 8.042155515644133 8.382625323513556 -0.3664297658917237 -0.05200364676080076 -0.4632994199272795
Ni 5.146759328985581 4.756726886541576 11.041354869301971 -0.188341791204624 -0.315605741261321 -0.6601129960483405
Ni 4.3934501512058795 0.5550073447330666 7.288379189263772 0.13650809436278427 -0.39094600586553313 0.16847641973926467
Ni 3.3124316501759212 2.110595697328569 1.0667008544085963 0.12447636000923079 0.42242479320010473 -0.001818541265977513
Ni 2.7973774185085944 3.109505961960414 11.066102753405097 -0.5138709622272442 2.5927587918824573 -0.09883423396109431
Ni 5.201021844873847 3.207140019498064 5.455516158713825 -0.8984809985724204 -1.5039989329837002 0.24356780155746444
Ni 1.570782589826336 0.6818326939459891 0.39699387257146734 -0.6121953464314553 -0.12264059235207267 -0.6076969443404695
Ni 0.4116824901404114 3.0644581812145506 4.183222289177725 0.11486866171613765 -1.7475510508118808 0.21264771493984025
Ni 8.369654164035268 5.443719282580721 6.2795452227897 2.2421713923396287 1.5113417465020165 1.9526433220019659
Ni 2.125938322938435 3.955118207364367 8.720932508155226 -3.955930434302729 1.6662008325681625 -0.9062189906466265
Ni 0.6236076587509594 2.128860291636672 9.960086306374013 1.1444054732875195 0.029409820620684837 0.47418521360184784
Ni 4.68774460984432 0.26740593477112046 0.2218855095587081 0.6724404072654419 0.2678600984459258 -0.541723465663138
Ni -0.04700797291333311 0.8926577734008684 5.360935054678126 0.21972107684685382 -0.9623310031488459 -0.5903749081222542
Ni 5.160508153487318 0.30701097633048713 4.948947543980814 -1.2220317057124308 0.7409777900152078 1.1050146301947228
Ni 1.301860712047196 0.9165455544921937 7.530080959266889 0.3261045839101158 -0.32067955623980254 1.2323192036813682
Ni 2.1006207007380353 4.463165210021814 0.21539305998720176 -0.7305853910372901 -0.32665737108979226 0.49263853521102896
Ni 8.311397985600195 7.085737454119253 2.599553725794398 -0.741969978725148 -0.8440134636521593 -0.7637755046360136
Ni 0.40082907098510967 6.486440758133157 9.752637520530953 1.3642371075703086 -1.5592465406030953 -0.11303109428676662
Ni 6.266899235376577 4.839980095000127 13.074212459592706 0.025105279708059987 -0.20666887164858597 1.5663037045601926
Ni 8.950695425489744 7.4526506207189 4.964404666796723 -1.312213920425482 0.505331043077033 -0.4160294311967222
Ni 5.684218373931554 4.1699058061260095 3.3740604583122207 0.19594428614223028 0.7223498905013752 -0.19370999749507284
Ni 1.694641087436252 4.758842794909265 5.970115149489921 1.23494635689157 0.2997026968778193 -1.436542699113255
P 3.523353823261526 7.960459469187777 12.59857183015624 -1.0766216808743265 -0.005951846708060717 -0.03470860712577893
Ni 7.915530765536198 1.884248460644747 0.7859106542397825 0.18227450196462155 0.4628361071376158 -0.3026849194345948
P 1.0423092856106784 5.251134982015088 2.0208729387397204 -0.6406615721919483 -0.6785043540713347 -0.7299978939649364
Ni 5.277496818734607 0.12746378563382274 2.6316349269502157 -2.0345165026286898 2.0655913696566235 1.5034993676394621
P 1.2384292598989433 5.92038489100569 7.58223123069806 -0.4725813594498377 0.17688007042192763 2.27318532422264
P 2.3970951861795498 0.7539521940888434 9.617140610921098 0.012179315675011283 -0.456422233191472 0.07463526811738759
P 2.610426380480315 2.9549164142483484 5.034760909966503 0.5922741820274962 -2.4686357014475875 1.1093173713351347
Ni 8.219122397305394 7.793769856741004 11.297105904475483 -0.11633958983470931 -0.6700472244429171 -0.18730049442430322
Ni 4.019145044984048 3.2644619007318205 9.060365429326716 3.1718702112757504 -0.9623358882448525 0.5739203621106568
Ni 3.9781642049968586 4.42604063593418 6.963143921641709 -1.5804977366723876 0.5476706843855084 0.9386678552039511
Ni 4.240307848178206 2.262867821590309 3.396287571927087 -0.28168594858542456 0.07899765885114138 0.41519022312487847
Ni 0.5944823174663674 2.988395397295548 6.712446335154145 -1.5116572208599062 -0.49090226924621255 0.18359887720299992
Ni 5.631302345186363 7.260478510095025 12.107607810640525 0.6339098552904114 -0.02787718602624231 -0.3106154871355811
Ni 4.198026319930361 5.318560096710148 4.797161803850347 -1.3168357354682094 0.00565616984451284 0.1415500276620659
Ni 6.0993760832698065 2.0784815209774106 8.320031074935896 -1.3168755875672096 -1.1856511102008678 -0.7647448105278184
Ni 5.779269374500855 2.6449312584936675 1.51475956489794 -0.3413216579701864 -0.2027386833562444 -0.20123741622036953
Ni 3.8689979888664796 8.113555973333032 10.416167149107608 1.5854615084355663 -1.7077074364523814 -0.3462538051644811
Ni 4.4761262937459705 6.193245472672737 8.441050041835927 -0.5452237655069126 -0.16444544420300067 -0.9892802780441801
Ni 5.665853022082133 2.253240896506148 12.494619358800271 -0.5379755685849316 -0.04282763668848753 -0.131057098550542
Ni 7.871453921097586 4.266852880427396 2.6845766030695617 -0.4202948913412955 -0.7722040950193411 -1.6125102850232425
Ni 6.32525617135297 4.326079995169722 8.970006982249913 0.4460781709529866 2.1511409706936693 -1.237334140397456
Ni 7.586053605424626 6.504293162499503 8.351000279226616 -0.22026306539325294 0.12839857788177242 0.46549411358575316
Ni 7.637916259874214 5.323781169305744 11.053299217836459 0.39659934749656856 0.7427227977307724 0.0011603388566883244
Ni 2.938034946189253 5.613889610091225 10.13363017956339 -1.2298530015290625 0.453726945747496 -1.6159856451663526
Ni 2.9585986443947156 8.72149033854307 1.7523724106788212 1.7840625154743532 -0.7289846222090736 0.6114407276536179
Ni 2.128429782141948 1.0661338642442675 3.4305011690482643 -0.5065767425586759 2.115976506977394 -1.9580580652596342
Ni 5.887473814100468 5.38664471531202 6.418902978187351 1.2465626009742594 0.19112938125209017 0.6919337401033632
Ni 2.5150731072870576 4.1758505010638025 3.412897910602269 -1.4431422067076436 -0.427092116768787 0.32017819112335183
Ni 1.1641984312766416 7.158209605656723 1.0454483410115747 0.535741022827458 -0.128995588035823 -0.21167892326866772
Ni 2.935653404303543 2.387981208578465 7.137881313706886 0.7166564396610239 -0.18113935991891383 -1.1257765453324222
Ni 2.847957704250493 6.395502497204947 2.8668882143089474 -0.759017421125738 0.8044837809886533 -1.220344290707679
Ni 7.2836985434807024 0.5748510845069256 10.236094187240791 0.4470500479479527 0.8234222697643689 0.17685410227999865
P 4.182848570297198 3.798687544579117 13.26160499884749 0.7797649380857345 -0.6509729814202854 -1.0160014960891084
Ni 7.758019249125895 2.940324890310129 11.543673347746637 0.5432656133392773 -0.1022031504333272 -0.4147197112463632
P 5.7997139956120325 2.797285820743759 10.300860218822688 0.904536460737881 -0.5719123305416924 1.646420307507126
Ni 0.7846869081015866 7.884360046162841 6.926638548444359 0.20213421700302608 -0.2591995945574504 -0.44949670971623235
P 3.63321618240465 8.082311975747805 4.161074865618264 -0.6996943578853885 1.0587481430280155 -0.06730171057045184
P 5.764348098609231 6.625357928281951 9.943730609485073 1.7985529957810444 -0.04495008234812904 1.4018333206565274
P 7.106594265172188 -0.17215891498507155 12.769903617324852 0.2952701150277624 0.8198808322700137 0.11259529230092868
Ni 9.27509806942946 8.70833689951276 9.122489781370772 0.5351401560186655 0.2972634913087074 2.2926825137153033
