# total energy = -340886.9525183569 ev
CRYSTAL
PRIMVEC
9.11093898278022 0.00000000000000 0.00000000000000

0.00000000000000 9.11093898278022 0.00000000000000

0.00000000000000 0.00000000000000 13.33478014912879

PRIMCOORD
 96 1
Ni 6.6994463478746065 2.268605519139423 11.469284251182616 0.17060040806080298 1.181049349762798 1.9227614468408694
Ni 4.641112183429675 0.7061669938523633 6.475395609461588 0.07035952356016915 -0.26670721578840517 -1.8168019146889032
Ni 2.7896327716596288 2.3139962158371983 4.834444480857906 -0.39090743931811384 -1.9775735095847427 1.4199999642632255
Ni 3.560518407608133 4.59614970085169 4.741714257670374 -0.9498179582834997 0.7226221703261555 0.6109511896117091
Ni 3.749779937616741 2.867312635177339 2.8724184052354342 0.1931078451346997 0.22737705073021486 -1.2207045022605751
Ni 5.224321592706668 4.770487513238668 2.532514792260076 -0.1986691412725611 0.010830000735968445 0.19017575908956927
Ni 5.871644677748864 3.5258421748438353 0.10470472994583924 -1.3414509629137286 -0.050259410376184414 1.022621572508787
Ni 5.947210803483779 8.447680602081588 12.807229246434913 -0.7596743379834465 -2.1390876390735616 -0.8360222179165666
Ni 2.451544057677084 5.657847389770143 11.708136620638431 -0.8038116946222932 -0.28640109467290675 0.4167205437264759
Ni 1.1722407083953912 8.078705805841826 11.819948793878918 0.2607841654357509 -1.1298337461209316 -0.60811397727323
Ni 0.14827688327531327 0.4159927065927408 5.288013432009184 0.5200560079920333 -0.17576883963561987 -0.8245116461738057
Ni 8.759985359489525 2.7190685512814134 1.570930831266987 0.1250114065770944 0.7153796298311292 -0.6912071463499838
Ni 1.0694328758908358 1.2654911661837749 2.729122472157768 0.7849338838811836 0.9552373295268581 1.25140604510949
Ni 1.9893916911586893 6.893892002014294 0.744241606758827 0.43102487616428997 -0.2510365991306838 -1.4835267811722774
Ni 7.605082767476282 4.500512177118943 4.2183245387403465 0.6099466596065947 -1.6520541087541354 -0.022537261870567638
Ni 7.955270808077584 4.273868465546512 12.78690729762231 1.1746064223509318 -0.1653252757047927 -0.8940473882810989
Ni 8.02556170029423 -0.2510601162453274 7.293831234584256 0.42821466040900447 1.4299113098396665 0.30549102142482226
Ni 6.947901646740188 1.0596932824002856 0.39224140044632766 2.0199077515765795 1.696437777075833 1.2473226190687356
Ni 1.9889270332840232 6.852901888717768 9.254563556908638 -1.0595454421183301 0.35968730496156764 0.3940364718653988
Ni 9.1283406118964 5.56122588465575 1.2973758073245887 -0.1437884300742814 -1.287850146869137 0.11813961915792558
Ni 6.5177286751252845 2.334277165425566 7.335009033218393 -0.08523258401725967 -1.4211420482874686 0.329995948544722
Ni 3.4219774734478827 4.427141787615293 0.573416972341873 0.7571281745228251 -0.49914908263603713 -0.8118911291963179
Ni 5.853687017533828 5.8705422541638725 5.521292640250622 -0.6890335357374326 0.26242067259790935 -1.5348629695524083
Ni 5.195020813786547 3.288019341463261 9.452265460546474 -0.1101951674998683 -0.8519136923358425 1.0180216118429308
P 0.3177439878231447 6.116929369940253 12.405558935508353 0.37297399476814475 -0.6574688735572741 0.3355626439992221
P 4.26620616608388 6.263651927070115 13.099167411430523 -1.3823775259247613 2.0278126082459527 1.62184338949871
P 2.0990145058250143 8.844352652026938 1.7321744025271 2.1827143746245765 0.20110937528293749 -1.6901928246073858
P 6.412397112595583 8.036367273614896 5.872236888765596 -0.3117241468187277 0.21455290238235306 0.21399317322414113
P 4.94902546837508 1.511778061634248 13.05999037493907 -1.1766874732496766 0.15373525687434814 0.18622500197193734
P 4.2483578371334705 6.925980728182412 8.283205380857867 0.005947990053318789 -1.5037644483753907 -0.43186922644245623
P 4.939941862472293 1.3465511879662129 3.9367473332559184 0.12641034380715005 0.27051861911469544 0.5210145152505608
P 0.17355791603263693 5.883734893428903 3.5612527492688804 -0.0394458647004482 -2.6767145660698226 1.748393601317834
Ni 0.710610398665592 7.537169830265279 2.6708233974829936 -0.4381406612734648 2.601366073935494 -0.8546498603200829
Ni 1.960746899826332 6.727498928190234 4.614540130655876 0.043124341993299925 0.19134535391763818 1.009606905416674
Ni 6.1348505864004155 6.35474309238211 9.518205879524826 -0.41453202071558926 -1.0784474212291555 -1.100064999498931
Ni 0.24834778978869798 2.5809922749958294 10.467429029957925 -0.34898714493524413 -0.6480591502076001 -1.2941552631515583
Ni 2.924993988206968 5.5420109148974985 7.068526831003509 -0.26236925053468363 -0.35132479192948524 -0.07495048536496124
Ni 0.9927643265709287 0.26925648305480077 9.221093612430728 -0.5156877037210087 0.09476006389172068 0.2546585121539872
Ni 1.9026464436156307 1.241119405110602 11.853898884827315 0.63607832369664 0.26501697257017587 -0.922931932525933
Ni 4.335622408183509 7.108873712026478 1.8183301723350427 -0.006577138996885446 0.07003659300311163 -0.7432208204131135
Ni 5.9211352968701645 8.362083332817118 8.030017860421665 -1.138891742558142 -0.17659313530912815 0.8458646579282851
Ni 6.8331220407589415 1.1534721746343681 5.34443292002624 -0.2704857089942309 -0.7363819431144093 -1.6800871036319518
Ni 0.735370285728192 7.574779785297077 6.879319966627215 1.3820736215310971 0.0032233920333041262 0.18968724948892493
Ni 5.422010741030298 4.588232295104929 7.669312152163216 -0.6695222051773825 1.4599183977247179 -0.8576547085846777
Ni 8.722229629438223 7.547410525385371 9.699012458402253 -0.8829013989666085 -0.9344414758274294 -0.5629422658325982
Ni 4.8308748150678245 0.5892599836802433 11.052292074612406 -0.37572713203324964 0.335370582593074 -0.6173005288685046
Ni 8.177122165883851 7.279621814558192 4.804907728624964 0.5745014314251073 0.929354034002193 0.9871938278287966
Ni 7.593593873751694 6.294793115611463 7.133547045171247 -1.9676282254465727 1.122476277314596 1.9284063038314727
Ni 2.70651367772671 5.431158123504117 2.5928674725221 -1.1308917550718007 -0.02269178517056092 0.25903093019007
Ni 3.59951322532521 5.2457231877574655 9.556703239987849 1.0785615782095166 -1.6317449648831381 -0.1817386840658096
Ni 1.124617831711475 3.916318786460304 3.914224181648819 -0.7171909720082551 -0.20230108159819354 -0.19748746225963407
Ni 0.47159585450057934 0.5051723969615007 0.22682319706519463 0.38634861630283784 -0.2490864173828484 1.7852639919816224
Ni 1.6218746451139578 3.562167487516262 8.286885289006447 -1.2205072986481045 0.5233771019454664 0.9623523433050846
Ni 5.2892734748340136 3.355813836470917 5.382437378704568 0.2722607986167827 -1.7442284141965507 -0.5276924414913685
Ni 3.9467857655364504 7.502694038152798 5.897680096232117 0.7048514766062957 -0.02853204600142183 0.12204075398454466
Ni 8.389580145870887 7.6430389381794 0.2499813811010045 0.2989246810612142 0.5396969221514124 0.14176934276172357
P 0.16718663658647995 5.638459312176232 8.478799924370012 0.7110833164486206 1.8996402874423735 -1.2524609687365655
P 8.63009070617355 1.7034084357097805 8.358759662372446 0.2031019802329341 -0.1827370434233369 -0.2339073956495649
P 2.1066950271650833 3.7873170051387866 10.478429577367177 1.0053758980544623 -0.40796310924882 0.6175748655758138
P 4.198047233527467 6.459464222017643 3.924532297715431 -0.01739119889325392 0.29554162352159424 -0.14604225910546462
P 6.819419188925652 4.238144474829535 10.548704069894129 1.1244724818090182 0.9841411570454018 -0.025882267083400582
P 6.4422263259614025 8.249189691150692 10.368311127634541 0.19937465198001791 -0.07314608516637079 0.8775943849313983
P 2.3326280855174373 9.032265763105142 5.672442202504018 -0.5753005302876351 -0.7191375542116647 0.28996567209571356
P 7.273717926268318 4.320890020274978 1.8416131762313024 -1.0741469940815889 0.3779547358121878 -1.0244120887503068
Ni 2.7880019136289382 1.781808063386287 0.7805168092682994 0.42311333462669715 -0.26309224474363724 -0.18412672468201194
Ni 1.6146861144647116 1.387067532449353 7.0118403924819885 -0.6549746463805107 0.5124036336530982 0.6655071704807183
Ni 6.791831266484691 1.1214381140985639 9.633472009633664 0.59360549924441 -0.39460391433309455 -2.725517189394822
Ni 2.9662118749714677 1.6488976893543434 9.611495514349702 0.6296541653378511 0.9862908563985531 -0.6294608183801225
Ni 6.374067393404988 2.3645801476047708 2.513806390694598 0.6185940508689476 0.17907836362482707 0.8689084271216261
Ni 4.0766986407298615 7.240226115537482 10.939413010447932 1.2678287094418874 -0.08969576199493585 0.13125327372174814
Ni 7.332027934069553 6.6143957349332725 11.608005581929502 0.8102001146471401 -0.14166804129716892 -0.2221749377039851
Ni 7.837657700154746 3.8705636522137707 8.426381049544444 0.8482393288080489 1.06093280938416 1.2489994925505263
Ni 3.438513827222765 8.685922538643235 13.058282985023139 0.051972279302233075 -0.09797034329890224 0.09297006187083344
Ni 9.113125344235764 4.983136822938803 10.462335104120163 -0.3113253687184122 0.013082287105254888 1.0366024601689117
Ni 8.708590554175965 2.742911877908888 6.242557370654146 1.236328067730445 -0.16035996127971738 -0.3376642637232572
Ni 4.0119927539479265 3.0993500224713846 11.567348017896217 -0.5522176803262425 -0.2338963399059714 0.7166291859675142
Ni 1.3997864029009979 3.458685445546505 12.686936611434835 -0.19057248030735566 0.6900856311510308 0.1773510965210752
Ni 2.896403862506925 8.598448416002661 7.982866019269519 0.6724126393513 0.726272365484233 -0.5709579370482231
Ni 5.699466157838275 8.172967577828013 3.5171949829056866 0.5886237297591023 0.09931091648719671 2.4851771507460363
Ni 3.1867968122958015 -0.1737838673128667 3.689653208634947 0.39147488178580964 0.009229231907751849 -0.03538712125004228
Ni 3.6105374611751317 2.6668993161767447 7.2627875330872005 0.548955464635203 1.5940371659197192 0.1379509974568979
Ni 5.245896295593125 5.331010685105493 11.640209105925477 0.8085114140908076 -2.148474736715416 -1.1842514016398635
Ni 8.08195841096449 9.201228121647945 3.0162209065058745 -0.9106307465610769 0.5439394994778503 0.02340243808434034
Ni 4.86099557847265 0.3943669824494571 1.819397063259031 -0.5075195660879195 1.328571792958215 -1.2721293936997704
Ni 6.485220845776096 6.100256352084587 0.4972431469944045 -0.684911286038943 -0.40509941454777976 0.4928964168581059
Ni 8.156731885030856 0.12035276719562421 11.39620905609346 0.4215285066380805 0.2908699290775378 0.6993500871720925
Ni 0.1759987365154418 5.368921301115016 6.187124597300351 1.8507163080481608 -1.8457761904340664 -1.4879498499406374
Ni 7.180084809053738 6.332530623785326 2.916849720086105 -0.23685850785808882 0.724138864080998 -1.5731587798088134
P 8.510263640142009 2.1804845198498044 4.033917316881192 -0.3051724617431389 -0.6624665838821817 -0.9161442201801382
P 1.8140425645739082 3.538233051501598 1.7284544062481555 -0.46745560818749815 -0.41947496654316146 0.09688919441958152
P 4.947749936954428 1.3708045068360397 8.457770966712818 -1.2397530342515939 -0.4651989509428375 1.049670091986147
P 8.781724059272923 2.0684199736068027 12.463591970772532 -1.1408442382988222 0.5372379190879586 0.6095229418056148
P 6.759961202845828 8.20290612245846 1.5478081798921808 -0.6968910841086385 -0.4266773978288716 0.4197089369308385
P 1.7169837344010062 3.772703059433602 6.099194927723831 1.5021667648709678 -0.41839844564953105 -0.05634341178673522
P 7.0982321356027525 4.142734724564762 6.278587488912079 -0.8602173271055316 1.6655372308422347 0.6123480699592357
P 2.8495189718592426 8.788329489844156 10.535129682296777 -1.8892016086075527 1.2688008435471696 -0.35168706036491043
