# total energy = -340884.9236076434 ev
CRYSTAL
PRIMVEC
9.13309864852867 0.00000000000000 0.00000000000000

0.00000000000000 9.13309864852867 0.00000000000000

0.00000000000000 0.00000000000000 13.36721305988528

PRIMCOORD
 96 1
Ni 6.684953212878934 2.411667735257676 11.684307238387987 0.10206893884830807 0.3761786177483715 0.3112999147971155
Ni 4.55259389728531 1.0642708402011745 6.446752869760167 1.1225940338393827 -0.7494768286251544 0.4927244100566159
Ni 2.9620191204037134 1.9763659924668826 4.8940174334550575 -1.1923732594160497 -0.11358902367276565 0.44099921376818246
Ni 3.37874414075658 4.80398243470121 5.057137313375463 -0.7020816271706425 0.42696561849325176 -0.6499972477705773
Ni 3.6955165306469726 3.367081173916249 3.092758512747214 -0.24670583296581378 -0.5353299034319684 -0.8221745134001969
Ni 5.1768229165515 5.127832975962984 2.6439543970693844 0.7445642218148854 -0.7209879771568422 -0.31713297653912476
Ni 5.305873598974267 2.81164265288136 1.254690464978615 -0.14766745341371346 0.6847727035785497 -0.3139270680073174
Ni 5.727466560850936 8.203723569009801 12.836922540802568 -1.5102194599721153 -0.6283259334447308 -0.7354622595136173
Ni 2.344375065187545 5.584223043291229 11.896645386360502 1.4218133633228804 -0.6959266633128401 -0.7471810906124423
Ni 1.266514174353315 7.685876881580865 11.863668507448693 -0.9233466514658486 1.0844851427828033 -1.633320536900374
Ni 1.1160098434513495 -0.029159243720535574 4.35247126861502 -0.5785930849959777 1.6431305810122605 0.4528347729505298
Ni 8.779848558246217 2.575908246369397 1.5540186366505018 0.288317080748697 -0.21221988337380226 0.10014035436702753
Ni 1.9948239846237412 1.448153238190823 2.611525504070197 -0.7122364562164574 0.7790995365875937 0.31835347920978724
Ni 1.807221007437184 7.067045523554014 0.6286759249471275 0.44147152541891066 -0.7127434777598628 0.03530947393457145
Ni 7.6898863118415575 3.9068198985544837 3.885501419933732 0.18445942543108232 0.3092759423885513 0.13281470467159706
Ni 8.15331799814701 4.119922486875107 12.868576033735394 -0.785384598265357 -0.10006784925787927 0.4143412448610219
Ni 8.077979068259861 0.2820638754946924 7.264077511677107 0.15414277672541196 -0.4066276782668481 -0.41362390707902313
Ni 6.978956788099832 0.7439904271601392 0.41668026817000237 -0.4521894260570471 1.009398903170926 0.9747653722574569
Ni 1.7945990652497625 6.930551365818115 9.479786397890576 0.12227806680633134 -0.09772506005731557 -0.263251653139637
Ni -0.00859150580007762 4.982963766862494 1.7389410494144772 0.7776990566956413 0.3258754986184452 -0.31930144494535334
Ni 6.314423404960205 2.6506169924570284 7.376135150949428 0.5760340660195499 -0.8137796044682822 -0.13968983452487554
Ni 3.606377488860263 4.5688325464960435 0.5461592929144696 1.521434354851328 0.33182631688524145 -0.41513031642122056
Ni 6.1361909868795035 5.872701093893174 4.830817304842368 -0.020032493170842918 0.9548555207074071 -0.24281472544152377
Ni 5.502326548649688 3.8005928293924733 9.314621617206232 -0.20723759966786245 -0.7582370913162877 0.833711567505519
P 0.42998079957922214 5.819582992762898 12.756357651928704 -1.2039131417348494 0.7296950180125368 2.231669721477356
P 4.060968335775393 6.415727734007149 -0.4891988972268497 0.2400469328883995 0.45579436979948595 -1.616921012496428
P 2.676025272605658 8.87359068169896 1.532189617821156 -1.106215335371043 0.5465424843183362 0.1541152659215862
P 6.577712369778571 8.145490932695042 6.015846887298465 -0.9278409397917762 0.6979948586957786 0.4656743479173593
P 4.893678595499085 1.638706206207002 12.867746748387624 0.7352866531677015 -1.4032649108967317 2.2475560536903094
P 4.365630236996813 6.749789079440804 8.53694375606758 -1.2469174132105172 -1.5542863683843426 -1.736894599539299
P 4.985557566848911 1.399126765208133 4.0740460195801464 -0.7129725630515334 -0.6413552558248632 -0.7212666847395256
P 0.3095325826747854 5.737293774883979 3.954890136119646 -0.7580064633627204 0.7850367280076351 -0.33688110570032953
Ni 0.5946441731535173 7.353094169943331 2.5344366725020717 0.791774818062417 0.422713270974801 1.3725613111652877
Ni 1.8505118945344177 7.003186898536321 4.905205479171114 0.6163903583494094 -0.9546824854646526 0.012826719451023072
Ni 6.201821433014677 6.097265720886168 9.636169704325134 0.6407340773010965 0.8506898472310706 -1.3255880277395429
Ni 8.767929864646662 2.6757604127478904 10.38065697204605 0.9975720857393272 0.31974753134383643 0.32637069308730887
Ni 2.562710918973721 5.983750439086269 7.0575279215616025 -1.0841472998274102 -0.5030509887936047 1.1535025504927812
Ni 0.7388987247220151 0.053224958383238374 9.246395544464933 0.3949610405621972 0.6159188180296296 0.855437646328701
Ni 1.4112737862712808 1.1326503489980078 11.648510058645877 -0.3413705089302508 -0.3726716330363775 -0.6317277600374281
Ni 4.097080607417263 7.178377994801962 1.4337941806603862 0.9739454474593229 0.6410752626905991 1.0013719191013917
Ni 5.624984062091852 8.520760818757962 8.144776724388922 1.31032261694004 0.130445175998156 0.37513217876172816
Ni 6.86631828376013 1.2814559235708414 5.2758649770891655 -0.4101668017683582 -1.068754362311108 -0.10013881170513075
Ni 0.9364987915745285 7.89907993398547 7.085211256557473 -0.226607519554042 0.3066606162528912 -0.08881978714788574
Ni 4.893769926484522 5.40054729847847 6.778674330205027 0.724584693369165 -1.711333206130427 2.136582099042888
Ni 8.168871664966966 7.681684789349297 9.675870370384832 0.4718439670631809 -1.3990670707653001 0.26432148916504805
Ni 5.020382071596116 0.921922366298751 10.906081391336715 -0.8668376606355265 -1.4360158800755076 -1.048490726966065
Ni 8.366977705478801 7.829111266042029 4.9731511657871215 0.7602795756676132 -1.0372246671339427 -0.1527135004780531
Ni 7.530139285213347 6.79824016721524 7.567179479667259 -1.5264973711965324 0.0837112622767268 -1.7162069892829603
Ni 2.5334302050425546 5.805435823118676 2.7674137965636856 -1.8916955786740002 -1.7740658092729573 -0.9525800944096692
Ni 3.2208420000342013 4.807252083979861 9.390333177513963 1.0880206667398875 0.5695266039183352 -0.335314532544158
Ni 1.2829811510276428 3.846157858027094 3.7056853225655506 -0.25707714889780886 -1.299109264722724 0.49259559778823553
Ni 0.6809565209409453 0.46410936221739585 0.5082304479722539 0.3003501006538311 -1.380241710528681 0.8422591999652138
Ni 1.2969456587009909 3.5582003940421387 8.5251136535239 -0.7845862707337777 0.036540003907562874 -0.5712764967299064
Ni 5.184860043269974 3.2553925118250944 5.0971457648560845 0.6965802377364391 0.7227797789499424 0.2609957672259247
Ni 4.32661364001804 7.519654488085156 6.262124542769299 0.463682257187995 0.9224974160916757 -1.0333052774748785
Ni 8.26185574124058 7.272357578816844 0.6015789348777639 1.227800489875408 0.3379044047585213 -0.9938740680624496
P 0.22889736894213383 6.068934849203548 8.109981445557057 2.4661633286476943 0.35830045191637006 0.8493389896301308
P 8.402733786277466 2.165485064011697 8.231823373299266 0.8040261246259445 -0.02399687713522964 0.1360352684914238
P 1.7826073068618578 3.839709890455227 10.661488792547196 1.3478584091019692 -1.4672861509436987 -1.1886495307075593
P 4.110296201010026 6.684487424853204 3.650639224332694 1.4069099638484865 0.7699682637102868 2.7298189020939696
P 7.281709871725614 4.353081359597741 10.73397910899856 -1.1774891432153656 0.09355190251623242 -0.6152233346245017
P 6.279151378384356 8.256595076479398 10.795908823603815 2.472591600771542 -0.9354241514556728 -1.2184432170302242
P 2.7357922694757635 9.052224956115586 6.20630304447008 -2.1898232177552157 0.10340565538186061 -2.041731018099258
P 7.038431525816537 4.128982520630478 1.7420152503842934 -0.09758442071439323 0.13569845397729532 -0.22851116433465807
Ni 2.805276883196387 1.8743949472262462 0.34873458155399567 1.1214542638079847 -0.40390488001904623 0.6630358261220904
Ni 1.7513995091379657 1.3686222160721073 7.585439283585719 -1.230497577091597 0.9871537186194806 -1.380056076880436
Ni 7.429547337852812 0.7219833129091909 9.666727225432712 -1.1152967288470212 0.8094946039396832 0.03668090036080134
Ni 3.0712327127895196 2.1229796233892233 9.666566482898345 0.03942889541958371 -0.5726607786719428 -0.32960025576820007
Ni 6.691976565659054 1.7919595997706272 2.842725327155203 0.33085392566964306 0.16041112623262693 -0.13523128453288968
Ni 4.30844790701458 7.3323711693476294 10.567811514094114 -0.9480426115506317 0.4868250138530455 1.2458488627366866
Ni 7.465157289074778 6.351467252653533 11.80572173711835 -0.06371116500571608 0.7717220131765999 -0.023912030730907204
Ni 8.065978176773413 4.400865731178485 8.35565722983386 -1.2135347239850134 -0.6151066065409794 0.15767135870396073
Ni 3.2315916570201595 8.753481302750497 12.66284111600999 1.096991245669614 -0.14337525379626276 0.3791364148251148
Ni 0.17503674690025256 5.266400347068308 10.77235638907927 -0.15984368376493116 -0.17108017591069893 -2.252696203130353
Ni 8.9518522031201 2.289384678855806 5.631553499874349 1.1389763318521482 0.48981572105025317 0.7531859020456255
Ni 3.9398360497900318 3.0881198119968585 11.82876728467372 -1.0401660091504539 1.846161598797943 -1.2130531563629043
Ni 1.3004893009359544 3.2569268723804394 12.592409399970382 -0.5782549849302687 0.8860923951000805 1.3956071372411578
Ni 3.1528734806718353 8.77904484557437 8.231716516046305 0.949026829840772 -1.160548144485653 1.9738767774594457
Ni 6.292668364229063 8.232237102663296 3.7593413632000523 -2.379034813159303 1.6431863739508603 0.8610601347218009
Ni 3.444018396048548 8.770751992096672 4.100071697190332 1.4836630496398255 0.03069691486322455 -0.9693755687004532
Ni 3.514964305536167 3.0978830943400957 7.0968139449474155 0.3785244922727287 1.1037758726916151 1.063668206037452
Ni 5.365174807818643 5.21814105436329 11.584401186728087 -1.4590329097959711 -1.5104338899757663 0.09181717921331284
Ni 8.165191026253845 -0.07084635871349218 2.435306020908533 0.44961883711639333 -0.07596427134145627 0.03677320296429151
Ni 4.763751135616121 0.392900419491718 1.7593526113498374 0.4233714733840902 0.5278780751396135 0.11394589279155214
Ni 6.095959687794416 5.87720371147523 0.4415515221242613 0.35611501422927705 -0.6581705276099891 0.7940340464102389
Ni 8.280697323536275 -0.40348659401374415 11.895362186015111 -0.5150510985782742 1.0981934935078312 -0.028535902656163757
Ni 8.918087137803967 4.80926136565948 5.954398486986462 0.13691535710353192 1.203002714105438 0.1474350256879332
Ni 7.438598238509639 6.5690998578518425 2.792063116223332 0.6245276427445632 -2.672265272049217 0.3890331051135365
P 8.8922952675165 1.5632120136446106 3.5985869558024692 0.08052875078368711 0.7638212702722845 0.4108859393225698
P 2.0450194942200275 3.696575970078044 1.4828252201923484 -1.8624261402859215 -1.2597199642918242 1.815961163955163
P 4.9991932829746855 1.457395933917068 8.75318539035768 -0.1666725337613065 1.16558107892387 -0.7611660920376245
P 8.531181684196346 1.7863701434618706 12.80033626134628 0.849929057805646 0.9386213182367319 -1.555920561553656
P 6.421408521301343 7.84126742020372 1.4745643325595534 -0.9412379299239726 1.2027983114041156 0.7394914352776685
P 1.6667630849333104 3.771558709121987 6.227543891753211 1.074929380773568 -0.6129003429182799 -0.37789560043947823
P 6.7864402038967535 4.380928177057545 6.26832682999034 0.43190085101134 0.24706038809175518 -0.315823770809398
P 2.757346382038943 -0.16254266809244328 10.506188671599924 -1.3947375901520107 0.4386433119414962 -0.4737771795301517
