# total energy = -381169.47170413256 ev
CRYSTAL
PRIMVEC
9.21693125491099 0.00000000000000 0.00000000000000

0.00000000000000 9.21693125491099 0.00000000000000

0.00000000000000 0.00000000000000 13.48991055325563

PRIMCOORD
 96 1
Ni 3.144282386497806 6.137600654803047 4.936335874418378 -1.4802527384066957 -0.6067165827050712 -1.410925255655467
Ni 4.421408041856265 2.68084586248289 5.874006557496905 -0.24221514418431192 0.1113004847489051 -0.16064072574492977
Ni 7.526131359101828 2.8109612820154886 0.17862505079575697 1.387989729905216 0.6616042358818864 1.033214260422969
Ni 5.006176249849867 1.9628469121684202 3.6941036776748177 0.25086690632203895 -0.820133314600452 -0.755240470581809
Ni 3.56439933327937 0.21605316552537188 5.099267256244939 0.1777915264926035 1.4983119099012518 -0.5534800919784338
Ni 6.3572401283074615 3.5874877462516137 11.757387655845735 -1.0174976210186608 0.8848659788921469 -1.1634900007227962
Ni 7.284564805972278 -0.06794168757828097 8.476425551324779 -4.992372457634376 -3.938724611947403 -4.4057721860632055
Ni 9.074059673756686 5.3134963910608475 0.5414348053632617 1.1189988602889567 -1.4561545598069117 1.5961896934863478
Ni 2.7576505512244887 1.3837747677344376 2.2901143361556597 -0.6051826625590481 -0.061751213065867845 0.9715754045652494
Ni 3.5882066668950605 7.978682687220447 11.05171727287325 0.29583704327482596 0.3879938652157447 0.5791731258691638
Ni 2.8038365941003014 1.352086957834808 10.209083290392764 -0.730756883618148 -1.0416788462505544 -0.1998359078871526
Ni 6.734203402619547 6.857498292970724 7.59280940539528 -1.316896670613132 -0.6873042117511518 1.4817676323893256
Ni 1.8953144563410245 9.041164445853317 0.3713031567846394 0.19736379219757622 -0.1437840591989072 0.1623757061581655
Ni 1.052499822006547 8.34809729477634 2.6372239699020392 -2.7482115456685445 1.026218031610794 0.22679855251892556
Ni 1.2694940362203284 0.48877755500329256 4.5950679317465735 -0.9634946844396438 -0.003319808401852347 -0.6845713862010211
Ni 3.908845273872465 2.969372680719658 11.387197904365303 0.32895182355092384 0.9503278080403827 2.034912709625844
Ni 0.21570476552123982 5.606880532106545 11.155522040241948 0.43448403835748395 -0.6322944311741756 -2.976403378990571
Ni 2.2733653285496076 4.950395381463433 13.232765817259187 0.7819696590465371 -2.7209617088136557 0.9609495494202868
Ni 5.433399450683965 6.52979029966609 12.13162548356465 -0.014881802207838888 -0.9456062341949973 -0.5848156688669218
Ni 0.5749742967663339 5.466101123029482 6.139663404033861 1.0883883344919514 -0.7393855058274234 1.1855415812061971
Ni 2.4102551926069955 2.2009294652566496 13.050436481763413 0.5920718362087029 1.142074768271814 1.2995342680752844
Ni 1.7507837562141797 3.5361125710391246 1.6428820628709642 -0.6725458224950546 -0.6397840546830014 0.17376980692772007
Ni 5.586732320227374 8.835166030711745 12.375549727727453 -1.0110279541339167 0.5290296722455535 0.4528219174347234
Ni 1.4334908953082022 6.748766154115015 12.470060141546767 -1.3767524664285 3.4961508546032496 0.3493134179264113
P 3.488838930266815 0.5914698387609143 12.34839480465407 1.034629909823573 -1.454961567940075 -0.43509210425512806
Ni 5.377673883885489 5.492848657738245 6.041861624037945 0.003151915365420378 -1.2029309803272379 -0.6396729830264338
P 6.039311299139973 2.429140684894471 1.8140957791872878 1.1595757532700546 -0.25593583620451404 0.2999662349518511
Ni 1.2010398872603083 0.07316953102652703 8.7229268494864 -1.1152738460288858 0.8413528861008608 -0.032162957885789774
P 0.5374890370624964 3.439961543443739 13.195668590364185 -0.5092257501457488 -0.2888762956862767 -0.37240655230044895
P 5.289836528346377 2.437721647959205 9.987323000990182 1.2200776673098535 -0.23286815575177314 -2.1110955247360095
P 4.98898667292642 6.6555184598873955 3.81351639655138 -0.25420342689443964 -0.12276451952444664 -0.191132980796516
Ni 4.947750122172801 -0.1374714524240739 9.502171386770636 1.3359464881557315 1.4252367871821325 0.3010229583511396
Ni 5.815293783255593 4.8611294015687525 2.8835897791731653 -0.9562565148199919 0.8154217680573956 0.1340758307722078
Ni 0.5043661509553704 6.901610526298133 4.582158697731035 -0.7807946649018295 2.311109610072239 -2.7238452010090377
Ni 3.531384285268761 4.075450524525666 9.415350658756807 -0.21959612123321534 -1.8732088327237222 -0.3272998897697976
Ni 4.17754647282648 3.3588894154980897 1.197655430077311 -0.1672075803291701 0.24590801965486678 -0.38006226907349383
Ni 1.3319018782303318 5.045182303222535 3.4167247378771433 -0.7009624259645347 -0.26778810755740984 0.26532653339079465
Ni 1.0050879272643436 3.5844645927766052 7.277146097947783 0.5912277430408528 -2.078631233559717 0.594969469471472
Ni 4.3044451833262185 0.08878669946571621 0.9544925044420554 0.2131927888100328 0.4722334891921158 0.18971244629990552
Ni 2.092464617409401 2.9266337701598606 4.794395131994209 0.5729081187960584 -0.3270093551125723 2.171292248830564
Ni 6.167564898544669 5.265448528057133 0.6686367529036337 0.9539011272139376 -1.1650200642140776 -1.061202775216095
Ni 5.355590116427807 2.0167106588389947 13.133817451006287 -0.5056061511152905 -1.1707932192524289 0.0555967634286978
Ni 7.977954549645674 3.915039051723701 2.8768310034316293 0.4717691479611875 -0.7637225399108911 -1.1745053779966934
Ni 3.2836516050819533 5.535799557718546 1.8357472725657695 0.73182466276103 0.8489394401988669 0.8046722428503754
Ni 8.738738495176573 3.328971256413099 5.32071785675496 0.17581203416872948 -0.39015359187122484 1.1472051475198437
Ni 6.4273717587688575 0.6746812164673851 5.8092677535544945 -0.6940201903187466 0.15407721359479917 -0.8324105893059084
Ni 8.810031458985076 7.642080355185987 0.7883610040590232 -0.20082089750824125 1.3702501465336079 -0.7535139748090055
Ni 3.3061040497926855 5.758075073582265 7.654808937347531 0.2525517502236296 0.9433616611351946 0.018440208983058565
Ni 3.857202807651515 1.8628985088666214 8.035440550327463 0.27044380001270196 -0.47506710198616897 0.8070775098577585
Ni 5.452331027628072 8.72961373316359 3.6409404177850373 -0.7077434534421102 0.6356152680172924 -0.3470757868451442
Ni 3.4421183053740805 7.176044656537072 13.382477354484516 1.8540199185000974 0.3115336280744764 0.6362873543836526
Ni 3.584916222411591 3.8322802253453494 3.4072276118385805 0.15806936547332778 0.5010095328835437 0.7718197150967288
Ni 8.250388605786817 1.271844353708521 9.38244897900151 2.9842807248561183 1.5149999120798943 4.918955635305122
Ni 7.813229552983027 6.098668336880989 12.44897548944485 -2.2273039883094934 1.6671801657622964 -0.10276442225343593
Ni 5.401066455591499 4.5917922343532265 8.463002934234368 1.7303848234452393 0.2105288688246245 -0.8123721825977944
Ni 6.821718165562243 7.531596999378291 5.353133804229363 -0.8092043263927742 -0.8612339412955038 -1.0725709078437207
P 8.29559765394205 8.473484428538574 12.22061772059894 -0.39648287652336234 -1.3905700890378825 0.5600613447403774
Ni 4.410264771882835 7.559994364794451 6.0631748560367535 0.8044608981705177 1.3193425610504632 1.1103208728989846
P 1.1476369871560457 6.815017456488062 7.817120019695835 0.45048786998490803 0.11173731517600756 1.7444094198591051
Ni 1.7584891108029201 7.148467598008947 10.12274829465983 -0.4854631005085124 -0.5081798253797377 -1.7454458315434196
P 3.0710815179047692 4.339884284275629 6.105384714738424 -0.3003303031594892 -0.6590519017736778 0.07887244612718673
P 4.623139017793785 4.578621239488022 12.81405260911861 -0.6645841444458167 -0.07914961104797337 0.30138856922067453
P 0.6962082812729624 2.465142018654783 9.247184981630072 1.6912163807758938 0.961725251244047 -0.2728413537106011
Ni 8.671021700722653 7.737964091772912 6.737670812184481 0.16406337827323356 0.4249997530161326 0.8326808122481595
Ni 7.603876174838702 8.330161146415467 3.0498530816741622 1.2192993943829322 1.100612387361969 -0.5841458964934069
Ni 6.930090844096228 5.7885738993408085 10.104887725135832 0.9250181256310004 -1.7928497747486802 0.05487119811658292
Ni 8.710119923408582 7.668579032748942 9.354011980780648 0.8323265142325343 -0.938411516218771 0.2000840193422167
Ni 7.949612485817471 6.21058953397558 2.4527756618943606 -0.3226767891754894 -0.45311373764352936 0.4978720156958264
Ni 7.474184734147111 1.1477107226066556 11.85818493852268 -1.2569421444363706 0.7280875643161009 -1.272184415307422
Ni 3.145904566411225 7.981429332755669 2.8969718417657395 2.5083893271964413 -0.36169096565515774 0.29004846161750697
Ni 6.743051656692742 7.968249120959139 10.57677801856318 0.7209802638473584 1.0065413791174729 0.6493431591263462
Ni 1.5844365796381135 5.010793932444315 9.120272445733345 -1.0407787030337883 0.15886692167395863 0.33731253681079326
Ni 8.637536589214406 1.3403261534625197 7.01688484300921 0.6260067983932509 -0.018151988318678418 -1.019474285129057
Ni 5.590142584818086 7.305385853838264 1.433626384198698 0.053952542957055476 0.6116088778003661 0.7780309861137632
Ni 1.6318761251742953 3.5043971103455167 11.041532563757746 -0.45822560494879794 -0.2766458150583558 -0.005692936619719228
Ni -0.15966674475080403 1.0838926901037367 1.4374440371540287 0.2226559911054617 -0.20540286045196882 2.7265016647952787
Ni 0.5006655530278831 2.445178145402137 3.495006900710338 -0.1170391870048952 -0.7096676670480164 -2.809365491470045
Ni 3.213243466680769 5.4549117683994215 11.240764829612722 0.854685855764341 1.0383544098630118 -0.8988126708802263
Ni 8.446589422928591 3.604640455449755 10.953956047375167 1.017620005529138 -0.8140793950968883 1.4317403926286052
Ni 3.2207921334369636 8.357572300179719 8.279742688674643 -0.563509708300294 -0.9940064798752559 -0.8631571264601456
Ni 1.6921456391166103 8.046722074270786 6.150346749134112 2.2000397532769016 -0.052616083533819066 0.618371136224864
Ni 7.8859880088724035 5.396946487288668 4.832882272133209 -0.48773724125466966 1.3868772135673277 -0.2488843286743714
Ni 6.463861589889461 3.6297012917258145 4.660602156862439 -1.0307603995658379 -1.800849505124705 1.163825529685344
Ni 7.599092587480381 1.584160071698326 3.8329014465167384 -0.7802655318712368 -0.387452648000294 -0.714425493447976
Ni 6.19996241215642 2.1697025019233322 7.474543272775703 -0.07689603912710628 0.4105511816909704 1.0745452579612722
Ni 7.697861223572421 3.3116618593824114 8.923184959797986 -1.3030574507371946 1.5450969885755907 -1.5759602538133501
Ni 2.012129843969851 1.1841544690706278 6.756043843090217 -0.17477973624947318 0.8432465035791477 0.11497896204175681
Ni 6.909758293590532 0.40567678047273675 0.7023882337272096 -0.09838300535628862 -0.3705895536963682 0.9103628376116708
P 5.008415964162144 6.540362119897293 9.661474062734051 -0.9930482297270447 0.4034600791721439 0.3438925040211561
Ni 0.8722719468531559 8.996066000874002 11.178724743162636 0.22747320998844694 0.10952873756046297 -0.18834461941810143
P 8.298233696301356 9.085783610403668 5.062291692843442 1.5623285219625287 0.4447072587473889 -0.6194491997803913
Ni 8.58895414419377 5.397425767717632 8.414682250063397 -0.3002346581218894 0.2136064793086837 -1.0193228471528575
P 6.957428262409871 4.133065562246022 6.7951918372053095 0.8250582627058951 0.31145135277331526 0.2893858883328435
P 5.035808684063744 9.207778913437846 7.3016705088206555 0.11733512097875921 0.5362125631472379 0.3990061571658483
P 1.7420645391795522 6.896670251107264 1.2786759432075334 -0.5946987323085887 -0.31297961649238354 -0.5290163025091148
Ni 0.3604262561265379 1.2646827980680286 12.871992082821649 -0.9256781278125025 0.8707727340238746 -1.5013797501932982
