# total energy = -381167.05966380105 ev
CRYSTAL
PRIMVEC
9.34063263523951 0.00000000000000 0.00000000000000

0.00000000000000 9.34063263523951 0.00000000000000

0.00000000000000 0.00000000000000 13.67096002728749

PRIMCOORD
 96 1
Ni 3.9902529685876478 5.556032593668855 9.80884608132052 -0.8611596364141427 -0.2184398961415851 -3.2331843368041993
Ni 2.435635399760786 3.769692605128368 4.31980450644343 0.35825031540472496 -0.52200079042323 -0.485032440728997
Ni 4.012782575019012 3.027280425038143 9.498432566108692 -0.6888805550993362 0.2884032127046001 0.41151637381771705
Ni 8.351366423805002 4.0022930443297815 9.555112460298641 0.007729250323457656 0.8952426941407807 -0.46058844875401966
Ni 5.784383044924054 5.981974792208075 5.334805309024168 0.5299187597187262 1.4064181118137327 0.5313907162785623
Ni 7.815531679799367 5.36910784909819 13.484488788357364 0.8900891749642993 -0.781519458882996 -1.4665628996244293
Ni 5.026969808478618 3.0132414538663608 4.500042291957621 0.11231067118097432 -0.9476116946608001 -0.9569262871935068
Ni 6.880562353530637 5.423460991645497 7.368388112819886 0.5384242260865759 -2.087425177702263 1.2232190411523125
Ni 4.154760194321135 4.627620391659999 13.303429961215759 1.1606389044272465 0.4703388432725642 -0.8020782568709541
Ni 0.1786321307274789 3.214466707328575 4.15606788291997 0.20277570724176688 0.49813735354207117 -0.5116443868895704
Ni 3.383868424674846 1.578249369934387 5.443120221602416 -0.33845204973187515 -1.2520310802879986 -0.6250436631490333
Ni 6.624423519550186 6.587425272835994 11.66463741134515 0.24652971239926574 -0.5980506794999572 0.1756461980148265
Ni 0.4140851992009236 4.690632300858165 5.894986412550263 1.521669867900902 0.33740355386270277 0.10075844756700066
Ni 3.4040441916283055 7.019168004374335 0.23476559789577128 0.13896401210244455 -0.05452898428581577 0.2612533917626856
Ni 7.871837014612077 5.697729993985514 2.104302603220733 0.7186089354017042 1.4158026383524263 0.18484946178064937
Ni 4.911734421022677 8.737704339065209 7.413966664869007 0.6738028348306073 -0.2133812506717551 0.3969459322027099
Ni 2.3067253258141664 4.903393235888677 7.7895628523530664 -0.9518648135101994 0.9053468724543183 0.9995896303899882
Ni 4.095923548006393 8.302795132991116 5.186242543563624 -0.019892625158868967 -0.6639485677443469 1.0136270823196607
Ni 6.82192186050572 7.640796461096418 3.268193093411725 -0.44303064237591444 -0.39424216011830165 -0.6622079309041563
Ni 6.04746196911118 3.7498811228560123 0.9618806235694772 -0.33704797029549693 0.6516754068039486 -1.105091506179245
Ni 7.982560876402037 0.5897955799732905 7.154068226166905 -0.5115369147774287 0.3974424122231542 -0.5491603815571574
Ni 8.707879698378914 7.177426346731959 11.354074446007743 1.551410332388128 -0.04224939558751434 1.5534067939928664
Ni 6.270273425087027 2.1208840946539653 10.647722713093689 -0.6889214356396006 0.7730880402861912 -0.7439710683155767
Ni 3.06272812669943 8.900455525823117 11.520818753308525 -0.26256491148525746 -0.6107316174017352 -0.5168393008269486
P 4.799039685701616 4.735252503976996 7.806993407312257 1.1284623196947015 0.23652477866775395 1.7447518908001889
Ni 0.899835469871164 1.1351857913832717 8.019754342342768 0.6843983509582665 -0.9612331420989768 2.100891073399182
P 9.187773392252943 5.783458322272019 7.6146426891197105 -0.8020620589210381 -0.1439457815877521 -0.6936476374706763
Ni 8.380985570568622 1.7166962300196553 9.359796091176593 -0.5795752464035889 -0.7342548694690774 0.3389469870904227
P 2.0889671522095337 5.040560429273656 10.25326124944486 -1.3700483149354468 -2.1488956263029184 -0.2179408450179795
P 6.181901697704303 0.8408503074941257 8.57547902993669 1.2705178262382764 0.49006049007120756 -1.813530185916167
P 8.310426430028606 8.103718225084133 9.564778147170603 -1.0600254670785423 1.0153078124561934 -1.0770883360980998
Ni 0.6641759734117604 0.4034761084112294 1.5991471678070606 -0.03513746713308142 -1.3633806731072844 0.3355341047541318
Ni 0.3642211648007619 1.262918945590939 11.9230871178924 0.8598352611757645 -0.12574057143363507 -0.46727228853209846
Ni 3.6133397518719037 1.393874618131451 7.795906076120702 -0.16751765537042118 0.3515533630005236 0.24076966998703697
Ni 7.185608741107529 7.475691434860606 7.378791709686905 0.8298335726073515 2.993606116022103 0.6486152798213861
Ni 5.452715853728013 8.649780962059229 11.876127086244939 0.09578490561180923 -0.5118163936910605 0.608231476687701
Ni 8.339849423502402 0.2492921501022623 3.7423021333624766 0.5648484817163756 -0.9588289035328583 0.4630307396469251
Ni 6.346455626602035 3.4838318774229595 6.35446708739647 -0.34145741221710224 0.5867643079528604 -1.881176681420547
Ni 0.6177698412922332 6.59453349443395 9.377390107210637 0.9747543165138631 -0.9808817695678398 0.3246843065238215
Ni 6.5070117646404695 8.56375373352156 5.3566782689662595 0.0055877785004226355 -0.3583405611256861 0.5009892211685695
Ni 5.231763183689083 8.727756565081211 1.2665169573643063 0.48438349429108835 0.6984782260901004 0.2277462611441755
Ni 8.496118211063227 3.2536506621293917 7.1393174987720425 -0.1856292773694674 -0.6090483161620415 0.902361307463433
Ni 7.59891306340229 0.19885927116160718 11.447720828760199 1.2512713193038385 -0.6201729653202931 -1.0920948368092611
Ni 1.4879534721848058 6.725993561148298 6.231578919447488 0.03436819306722468 0.3949268448901521 0.6240489033359317
Ni 6.172766558778153 3.0386573158480106 8.523611429790455 0.6906103933062494 -0.06271409119976941 -0.22743978564735023
Ni 1.1734170016335081 5.8708212613070705 13.653188090113403 -0.14751678676846205 1.2407362241004696 -1.9459270863240552
Ni 6.1468276213569695 1.6178256313148538 2.2344503110198213 0.78505832527419 0.5025455099120958 -0.9545981532809624
Ni 8.524084065812605 7.32348582258902 5.2540237798944 0.1446885732910476 -0.19986701823540418 0.18216008787394436
Ni 5.066051016318097 0.272835215197723 3.7115976050618227 -0.3178968512883429 0.9741421368511611 -0.49489339268347676
Ni 3.0754500686395283 5.9916890503708515 4.766106482403233 0.1784695263962346 -0.6663633478334265 -1.1474892544191655
Ni 0.5983105008782783 5.983553359159527 3.7792415340897207 0.5348982152111885 0.33767120570179265 0.17429559752420304
Ni 8.056024953758037 2.8621006737395405 11.809372385464247 0.8224581060788868 0.7399118106445386 1.0734970192024158
Ni 4.75515739257784 0.47997215518995795 9.951666225705608 -1.6525816991228315 -0.9623042636759684 -0.4491604094227361
Ni 1.3431830036608834 1.2503464537764222 3.888951003152297 0.385875019100529 -0.7211795243423579 0.6061825645784722
Ni 4.048071485921868 2.368513612109137 0.6032573000350154 1.4619873644386046 -0.19732445431920853 0.25399413909711094
Ni 0.23882970724829458 4.8382423217681305 11.395415152933353 0.0488347621145159 -0.018016748292394778 0.6269419086130106
P 0.24684397023258553 3.3209312405394704 13.804252277050864 0.48979618066622743 0.05429527100845488 -1.0375923348860068
Ni 8.79877339663082 2.4524578795215177 2.004312996700642 -0.07772136324187906 0.4362969231965067 0.42147039970663536
P 4.062568148103243 0.29049741785156424 13.348325713003634 0.8831137720877308 -0.7080905523688837 0.7750148249952589
Ni 4.217790784784999 7.37136590657209 3.1587843927268806 1.0734833923556608 -1.5898179856320491 -0.8036718266103191
P 6.284555252712877 4.005375453169894 12.276385346639747 -0.3898741129575931 0.5964020881529407 0.24559794461361573
P 2.14912082775596 1.4540843374749701 10.486227841453948 -0.004085225812967158 0.8226964473419379 -0.3536688666816296
P 7.146630280229386 3.89977025818109 2.720042724994917 0.10768191415971132 -1.6469720662455378 2.0315029126133464
Ni 1.376631809892522 2.5882519998777203 6.447648306633053 1.1303808768736532 1.385288271813653 -1.3002181815161866
Ni 3.6992829147139332 3.7022252140613126 6.458708549989346 -0.09171742041065495 -0.8470609922292315 -1.1338091858289117
Ni 7.451657986540582 2.263132592308705 4.239405943260463 -1.3286065028508927 1.0830178142086573 0.7040199818439359
Ni 1.489681489261838 8.228929408422617 13.122372068137443 -1.357717818394552 1.2089807860657438 1.7352400946550115
Ni 2.595154727553001 8.809617871368305 6.812444854417303 -1.0470498807544806 0.24732341194515473 -0.26334524129470777
Ni 2.3688031717274503 3.7238207572077937 12.37299831438499 -1.8406748646517592 -0.4222877534016082 -0.37653445842589345
Ni 7.93790331075181 4.9325360103770075 4.59187005349441 -2.0090309567630755 -0.0011068599109335777 -0.5048528178890338
Ni 1.0105350460157163 9.016410142008418 10.120912888546586 -0.9616614878856471 -0.31216920477594623 0.06450126500717923
Ni 5.057541699792819 4.993371552121398 3.5407238039785764 0.019554525093159872 0.35538199271799437 -1.8088101547326785
Ni 4.424050639352729 6.586117584237159 11.578907214932075 -1.1840729670804704 0.6984046925396875 2.1966788072244685
Ni 5.952495754937186 6.7052760374896065 0.40837340221386775 -0.9207243833516531 -1.2033408141711468 0.3773546403343437
Ni 7.716492949703286 8.034223916688882 13.413699868249266 0.49878192910460556 0.11911252459415615 0.22206206627520464
Ni 5.4776460028015235 7.368143388239246 9.435697139642851 0.7973458843922914 0.3479862144745555 0.2419891442164348
Ni 8.251888683965026 1.0650563199543015 0.1699574850007761 -0.6965642968968391 0.42913100157568673 -0.781489376976009
Ni 6.046229005575135 4.792080914229242 10.18880247621841 0.9721539027765387 -0.6931974373071352 0.5270296110963891
Ni 6.065433346712318 1.3583428507745245 12.754199815641629 -0.25522338351852175 0.9197897873525256 2.443278967850353
Ni 0.350154171730433 8.232151926755462 7.692416534472159 -0.7854954128116085 -0.6113926480245019 -0.09311044410343965
Ni 2.252717786682266 1.3251742635283508 13.297578988799257 -2.171798241932705 -0.03108309455804969 0.84871344023099
Ni 3.8939790658148192 1.8422623574063954 11.712184968798805 0.5201963902246396 1.3616135539045324 -0.26112792192841483
Ni 1.4512167631903812 3.0826610371988203 9.027386319669072 -0.08067144700913847 0.23200786463400686 1.3651894441812489
Ni 3.968330503291458 6.433818565637085 6.76266862196592 0.1900495179243501 0.9461487369620285 1.865578055651342
Ni 0.9805049114067472 4.823185221615826 1.7826382957424978 -0.6002399738417921 -2.1587774041930046 1.8747764343211584
Ni 2.8425040260227075 8.791440999844493 2.0853411185376203 -0.9305552533991457 0.6800657850211836 -0.5202195301530911
Ni 2.125731883102505 2.4994599440167997 1.9010429599240448 -2.0082699102273347 0.5082685284388021 -0.6460968842749066
Ni 1.8419634571552335 8.079964995749572 4.319353353876831 -0.5797783635533306 0.5034564517621394 -0.6820954138567027
P 1.0361564019200402 7.21554546938801 1.9784478502789637 0.9933246233168828 0.5850930908980246 -0.46597362432533296
Ni 5.835859272553922 1.2959380827115319 5.969492904532191 -0.28486588897530296 -0.445908992364974 0.7665224712535316
P 7.750782412891319 8.94673836158904 1.7666293851028982 -0.47760092415161615 0.40557198330882405 -0.44288254683382433
Ni 2.8909538886095576 8.049579917092348 9.051802733935897 0.6724391217138612 -0.4648798770405219 -0.045103834317173935
P 0.7198461451907511 0.5548821625109562 6.016069970232852 -0.1614123138036317 -1.0407535062228075 -1.8016766290116908
P 3.578004137804803 1.985230083790495 3.2299964435030297 0.8125326194350586 -0.6930457422206193 0.4846385477246879
P 4.453978027000361 5.480448192656172 1.5313939533748313 0.2010327564087312 0.9427859911373828 0.38871531676280147
Ni 1.869667774184845 6.747925367077337 11.496129592562513 0.7582972551302618 0.12970752650118308 -0.5068796185110754
