# total energy = -340858.62109556375 ev
CRYSTAL
PRIMVEC
9.42883169847829 0.00000000000000 0.00000000000000

0.00000000000000 9.42883169847829 0.00000000000000

0.00000000000000 0.00000000000000 13.80004827163573

PRIMCOORD
 96 1
Ni 0.6390607664716315 8.194748641695059 10.291703878240497 -0.6183091726386771 -2.1449613242455183 0.12495715630039125
Ni 8.172996326565213 5.657534844293601 11.170339005110783 -1.150205367798748 1.4001358783494466 1.0255770555926855
Ni 6.241254967855999 1.1571156762244157 4.247944279902583 -0.8429395138616903 -0.2636180353401202 -0.09563809562129981
Ni 4.654627713343835 5.98975973532095 7.229348461050889 -1.2899026585227915 0.20730727656353326 0.9607947690099776
Ni 1.4128067389427255 5.133329507510389 5.061429950066681 0.1851482239679908 -0.6112910894496311 0.2940488410261516
Ni 8.868862976419063 0.7824798994345858 6.942142470681953 -2.1511772232482436 -0.43472263673085126 -1.9816571927358126
Ni 9.314139561597623 4.426261405392015 3.3112247200481684 -0.3090041767844033 -1.0696982142816158 0.31643929290620987
Ni 9.137103814359664 0.5430667720609508 11.105023600963639 -1.1688052422881225 1.3943118154685021 0.4215071664818418
Ni 3.8020727354328696 4.827627920540367 3.8580799967554875 0.06398807281618658 0.678448818243051 2.099718650357635
Ni 5.700718894269626 6.646968174497571 12.217735136367727 0.25919625212334074 -0.11841935518187348 -0.29120700070198235
Ni 7.169976049632977 8.158023341551692 3.5490547465504116 -0.614418065114387 1.719745084343206 0.16459636795856816
Ni 6.334562688066207 1.4055371095690323 0.17332173036338386 -1.8671569701026878 -1.0322642378048739 0.07056804002654944
Ni 0.6085481236490516 7.484257873606969 4.059988059589901 0.4211430982742037 -0.4316576246522824 -1.297831683561881
Ni 2.835909762290215 8.607307180276061 9.959205551088846 0.5851064606344634 -0.8146596930803905 -1.1654658935022444
Ni 1.4965630524660956 3.666269269973329 10.63871977782623 1.7414570220990007 -1.5410683270321717 -0.0946811310246692
Ni 1.4922917916278553 6.3019483586192475 9.141855945623401 0.6911806639874225 0.07554878107059247 -0.9769047871979627
Ni 2.0714766470595842 4.181903798584444 0.425974823452376 -0.33403977959679243 0.44150212154652996 1.5526151513295068
Ni 1.0874837528460426 3.7767657506870935 8.0436761259012 1.1517876246842036 -1.365495919678074 -1.94261807655548
Ni 9.058750221499233 8.450232270112174 8.320739521824894 0.46796031573805863 -0.7411127729311754 -0.8293810584509652
Ni 8.47009881886752 0.09089676790041015 13.499110559190187 -1.1155535820528335 1.810222975919805 0.4915938959965984
Ni 6.055818131419647 4.5015223413982675 5.122426006333035 0.10024448404505962 -1.106285012266714 0.28012477474589176
Ni 9.020488021760649 6.498492359001399 1.941569973053102 1.8312839103551621 0.37089860029635474 1.3748498500891482
Ni 3.955951271591982 3.6459595661199757 6.858914171743443 -0.5479229096056305 0.7360505279169195 -0.6823982898091022
Ni 8.115207016018694 5.681210641125435 13.73916296136478 0.41195089025197434 1.2111513113545014 -3.508004668618043
P 5.84942100173074 4.50153177023014 11.224848967932049 -0.36579110386646035 1.277113220067607 1.1325092360705658
P 5.597218606805253 6.175809445829015 0.5553704547713689 0.8921594272297666 0.24825569395143698 0.4324798634432616
P 7.827137344650237 7.843845234728297 12.189058287110724 0.8211298741857664 -0.8353223636360647 -0.19800142578157512
P 1.3922990296200495 6.122329111448225 0.6230524957185101 -0.8132491858861092 1.7492844885632195 0.4608920960373675
P 7.8853226661354014 4.6793123951860265 1.633939247081968 -0.45762910901537956 -1.6536528206998231 1.9527379385983015
P 2.4325160482892767 9.044210962751846 3.8548779654515886 -0.2831000553241318 -1.0421686414027793 -0.9723498208374286
P 3.46138075338402 3.125186324138351 9.956596593309726 0.6381408626526236 -1.3734599117201571 0.10373064282144716
P 5.499658483420551 6.440127889710657 4.2999848316564435 -0.2158040011806348 0.6657100305201438 0.38915368985180077
Ni 5.075757060096937 0.16062957977981882 9.726025824466118 1.1456917961991107 -0.891997961951238 -0.2962065107991028
Ni 3.926787894610356 0.8665266209796286 2.8854931604581027 -0.46734402231029837 1.7821377876478146 0.8704189502288816
Ni 3.3412951506559283 6.955045827099462 5.435783804783523 0.8277674341069421 -0.27822267262717243 -1.1902235600628985
Ni 2.3703423309220466 8.224713469385847 1.5457570398776492 -0.6136639605571819 0.41452996383306023 0.6980036004465269
Ni 2.6817672188386728 3.3982358663339234 2.5229526891943093 0.18811270591295343 -0.5628921293209532 -0.39372408283130256
Ni 4.387452333404827 1.4473256924279285 6.324768960400246 -0.028990987915711364 -1.308188858426489 -1.7999886997863064
Ni 4.532458338771923 8.256752640088584 3.383965329294903 0.13383800372978885 -2.092395891443977 0.8884043310627088
Ni 7.347549240287669 8.528510432317624 10.063464859518955 0.5316928209000134 -0.7974682689027686 -0.2091939520632849
Ni 7.239994555118123 7.601015098684071 1.1522918858384474 -1.2128071017903694 1.0852909265135504 -0.7430326156617075
Ni 4.861383138643898 8.476774431833245 0.9503432790269826 0.8473726099323794 -0.13433525508118155 1.5250033031495092
Ni 0.6294358148961889 1.3850388290782287 8.646682925058787 0.2370117456065015 0.49822657082176774 1.781656477136022
Ni 6.294461866112487 4.022613112930519 0.1285658941142135 -0.8374422381925448 0.48621257708002713 -1.0225035588736842
Ni 5.459133364032569 4.775486480285472 2.3806329580276877 1.5779199486428823 1.408426657603329 -0.7831626509133738
Ni 3.392719999688514 1.0411033288652416 0.6911088612909891 -1.001418713178927 -0.007576012575045016 -1.3373076301693163
Ni 1.9982617675696632 2.255895169653707 4.450281354587195 1.8554337681284885 -0.16009976563979522 0.899571660533438
Ni 3.045701271453221 6.945352987934538 12.433498867638772 -0.3180644872144586 0.8499200589445813 -0.05241759436976779
Ni 1.8880481518120733 2.5081824240660464 12.917466664406115 -0.03949754387399005 -2.8491731103852866 -0.8450521893293189
Ni 2.9962847636094763 1.1884382557048427 8.574825797358505 0.46039021670028457 0.5262623939130614 -0.1388801941393866
Ni 7.1168728685270874 2.502515696110677 2.176115937414155 1.5543619588172843 -0.634872733424313 3.0879373199065205
Ni 0.5782994881189015 7.959857582087471 13.345972186333066 0.1019529820957341 -2.5139225983098448 0.7315503260537207
Ni 3.697412701648179 0.8537203815304064 11.434623505197687 0.4319728418998561 1.773458514706262 0.6971245402756832
Ni 1.971210448927476 5.875369147043845 2.8141055885850714 -0.6311415485166549 -0.08627722323169011 -0.6707995292279093
Ni 2.4628768869187097 9.148814423545302 6.031890584776818 0.9749435497065339 1.584628985231942 -0.6211852086348915
Ni 7.567391884226754 3.092826573151949 6.965078104211797 -1.026726081595464 -0.9413613428757143 0.495675779375456
P 4.2709119714607935 2.5207039127927193 13.151708077497686 -0.09631532419398252 0.5643121495969313 -0.23110412187281487
P 2.239309854389989 2.1988130214976245 6.681445641122536 -0.7708740633540078 -0.6985931544014097 0.45643431737633006
P 1.402161587758679 5.886542312812751 11.378485183112039 -0.9204148225310341 -0.23323968015857893 -1.091848782236726
P 5.83547575939132 4.222485490963661 7.714820156501894 0.8936820345218801 1.0662920168135444 -0.0644783821890438
P 6.700354220559637 0.308780100576391 2.0396609396722254 0.2356212930168781 -1.1461293979571616 0.13317491622449323
P 8.998905425604509 4.356893489306072 6.152821010840685 0.9997294984019622 1.8442936923512687 -0.31117573051442543
P 0.9516520008908849 0.9436940667904993 0.7157247126605111 0.44799389991846067 -0.8839218698113229 -1.1914988272308966
P 1.8538403497786629 8.58915667892151 7.928403941844016 -0.746742974633759 -0.5800866388223688 2.3894765773179167
Ni 7.970210439483471 6.416037224276433 8.59073695114334 -0.004222008501147568 -0.09631326731145348 1.5460084446462665
Ni 1.804989571847268 9.16332539579707 11.916852625367738 0.518405616872804 0.8555461468821072 1.7270369900189286
Ni 5.6632581452402055 8.378903156996751 5.972439914054365 1.01915598255769 0.24289880051489784 -1.8289766023782246
Ni 9.36087828118958 3.8055142590663302 12.318213483216967 -0.4119699164153679 0.5165999311226328 0.4721465859052643
Ni 9.286126502104441 2.361724378590587 5.315736860266108 -0.24051847320817932 1.9948222693628614 -0.210975726554056
Ni 7.795729905682958 6.242565575486276 4.325790601608274 0.8620132426636895 -1.9070525207460445 0.9702021783668067
Ni 5.108871117633137 2.6220167112626744 1.7875339754017185 -4.698057507431032 -0.375733816901469 -0.5247896660222768
Ni 6.8225801681227844 6.370090526561767 6.699178445225136 0.7868089894167094 0.07594087430268856 -1.1208536541095082
Ni 0.5203932600571629 0.3696375530142204 4.633945570631519 -0.1606057587419363 -0.8578323718131226 -0.728055939747217
Ni 7.356780066690842 1.4792045729888328 9.125420548786455 0.9101368376437937 -1.724567959653146 -0.660075972162818
Ni 1.19360525557097 7.133571329773275 6.2829134328350555 -0.9963670096876324 -0.23587274690605184 2.0858917717768723
Ni 6.925561869834171 3.782177900181906 9.632696417942602 1.025814368414472 0.8079650546690343 -1.4236630149371095
Ni 7.590124797871339 2.1360547165543 12.162810304944074 0.3043962456987467 0.5997483789173542 -0.6225707761285084
Ni 5.661787247468096 2.1490476468745974 10.834929054676907 -1.3425673359063588 1.0778257284847568 0.5961454920574443
Ni 5.248512117664783 2.199925623658579 8.362566762894467 -0.3152051633887926 0.671824628058314 0.9681807770614035
Ni 9.091062828326272 9.12215911584176 2.242259192999705 0.02644199624161253 0.11904439036038207 -0.5513841286813537
Ni 4.3038280235276725 6.681223120690345 10.02196762756492 0.28943062552784987 -0.20169610102434293 0.05995735439023867
Ni 4.341392489707691 8.65783629028076 7.684750668777322 -1.6387396510334162 -0.5124123754038465 0.8741035981693204
Ni 3.0687830518770878 4.539115094073903 12.199187681191345 1.638187120964056 -0.2477101058606121 -0.580604973219684
Ni 3.552293550298614 6.095796378559025 0.9706180962024078 0.5079574249562865 -0.20308141140764382 0.4963738338837452
Ni 0.7052926530767829 1.9804789906581384 2.5157764052561533 -0.9706786037825927 0.5890646739512628 0.16351316219671838
Ni 8.227004675530862 2.675629049289679 0.47871028011523853 4.519447855912507 0.7751747476118908 -2.1390135913025157
Ni 6.385846104620705 0.0644649235122459 12.001281214603619 -1.2057769344164655 -0.7836948692677599 0.06395670535761888
Ni 9.329829137833455 4.623446566341496 9.556174847114999 -2.906049511857357 0.9001190483964756 0.1626130189799522
P 8.72828852203204 2.5895249566300578 10.370736346995749 1.5468468813871619 0.737535339992562 -0.22870116885827707
P 8.601791313630653 8.269132696337168 5.509186318027706 -0.5751015269029516 -0.2931769799441596 0.4163227940674249
P 7.560282544994894 2.8938782206423124 4.134453202186115 0.3780321260173425 1.1346645918506717 2.0992447960450105
P 6.466962345219777 0.8562953955147847 7.059939695914591 0.4265974365205556 -0.35375268464468757 -0.43821573748577436
P 5.906107138948177 7.556124430139123 8.727826509270288 -0.0004692263269346757 -0.8769647217671993 -0.13880203260328353
P 4.279661927438468 8.729448268352357 12.827020594669209 -0.4399718009449326 0.2997003828849742 -1.7388512090450376
P 4.32086592272127 2.6943641382203256 4.359987089043437 0.1294689281278157 0.054169286953551866 -0.6723398771318356
P 2.4209374427498536 5.125993876313588 7.093791088103221 0.166243673754004 2.7281510274732437 -0.3672288647542514
