# total energy = -381167.61924155604 ev
CRYSTAL
PRIMVEC
9.26270715071846 0.00000000000000 0.00000000000000
0.00000000000000 9.26270715071846 0.00000000000000
0.00000000000000 0.00000000000000 13.55690820386213
PRIMCOORD
 96 1
Ni 4.222405109702435 2.2135739956155724 11.990841328895385 -0.2702157431622959 0.216328249115221 -0.5183328546533396
Ni 8.837502694179104 7.859712789187531 1.0426742431575364 1.726149702317969 -0.5676869796064352 0.4487310351948014
Ni 5.155567291060035 9.191514103387654 10.374125622919745 0.4697940265126877 -0.7977804008265487 1.1942059417494142
Ni 8.4728576970229 0.727654200208266 2.152986627352847 -0.19195676224939198 -0.43336483715137625 -0.05576028558975558
Ni 5.6659331990111035 6.874503455671507 3.3686067305175698 4.886664636481901 -1.4221031266491573 -0.10070753972440721
Ni 4.977362065864105 1.22693820517974 5.732307906777048 -1.443935134922584 0.18937383201356417 -0.20551444632916865
Ni 4.660308858668745 5.5103382422648455 1.8255054643112594 0.4714500740588719 0.4223186066395436 -0.09462225276227576
Ni 5.954281276372159 9.092014101877457 3.5951568037755166 1.611040128235619 -0.792462588158061 -0.6889209214189684
Ni 6.636164734869152 7.91002781508619 1.0021971386519126 2.7879489734674823 -0.42817660808221736 1.2874117737801378
Ni 0.5023045738127024 7.638982474908253 9.657046655603324 -3.0103877063558153 0.4916095797258824 -1.431602067278528
Ni 2.750199678681276 6.784655195138186 10.074707684098549 1.184504141080618 0.029585426966600662 -0.0067504313499561165
Ni 5.192516230365954 4.961263480626279 10.616198141023231 1.042547879119069 -0.554454025855929 -0.1439897474518101
Ni 3.0663358778567593 1.7029394691536317 7.521982440550055 0.053273514612159865 1.2230205519882615 -0.6322923742916465
Ni 2.79440131778076 2.2547096786081986 4.925088903648255 -0.03470063670597895 -0.6168549566906537 1.9999832447385102
Ni 0.6778940104751685 5.8318375489505145 0.024433169240699975 0.3072871940932966 0.6262582522824246 2.0218257945348985
Ni 4.25224028982386 4.593441374875957 13.197392315370607 0.05681238100335377 -0.6490346267469919 -1.4290487047290552
Ni 7.1416121452590655 0.953012163040374 5.250061725560727 2.062304471375235 0.008818369622578362 1.3725615682756038
Ni 8.172190218990782 2.868262145563512 9.319452468762737 0.8697327227951344 0.8146825758985261 0.28112107722089
Ni 3.3688281092213583 8.898516146976318 8.802527637792737 0.5551682783141342 -0.6057398206140986 0.09750291674418046
Ni 5.499741705146278 6.6558387251137665 13.009439943312902 -0.7636415501613106 0.09442273515695995 -0.9977332939075396
Ni 0.7749051225415204 6.457088815189702 11.509692778490734 0.6010455004622229 -1.217241226302323 -0.48645863165256226
Ni 2.9253018969412627 4.397109031549748 10.364731385205014 0.3402158265005173 -0.13086940801976815 -0.14895043389119508
Ni 1.9186771842135841 8.804369990269034 1.1270538013177764 -0.01765525118791798 1.3876811975258618 -1.2657247757250072
Ni 0.8745514748266073 3.7589270259595793 11.034008299105528 -1.2623530310392967 -0.43931796941101764 0.06841705512181767
P 2.7227542770358917 5.260624916933119 2.713699980678024 -1.0010273912777792 0.6790535417065854 0.48391529640541825
Ni 1.9545053359396543 8.811604164648056 10.730373975934356 1.5521708647032366 2.271172150447353 1.1318566900882314
P 3.6922540590194934 6.648141415371171 7.507640064610901 -0.4796328669799804 2.245546736569765 0.7060346982811195
Ni 7.491186717684578 3.302006938964929 2.2929340927053996 1.2790533745131134 0.8675953647371574 -0.3858796470862193
P 1.1702782248001202 2.166352713945587 1.1159969076478151 -0.8726025881437617 0.29715370520372053 -2.1489056536052478
P 6.420028723396525 4.113938807553448 3.969232163204811 0.33060555710426287 1.1792603761831755 0.47244817630608305
P 3.7247198480060173 5.973288351693227 11.713615910425919 -0.34672277438109966 1.0474262902572928 1.004257982399935
Ni 1.6112294044587454 6.638702716661537 8.11969382552969 1.8203567219196972 -0.19042592742716236 -1.1375578542380667
Ni 1.8060241383778906 1.7184267157115398 12.612670024797762 0.43581304158155265 0.40214187458135264 -0.5085179254454468
Ni 3.644125032036903 1.7856647077951857 0.8448042904242615 -0.8023659633147021 -0.5077993021118674 -0.8912567129098392
Ni 2.227468056522787 2.18419268815045 9.792711045113546 1.326731911535999 -0.2563911785743778 0.18516159370442947
Ni 5.575019727141565 8.983001299999453 7.386833983834855 0.40796722301387806 -0.9620983183127496 1.3457501045097147
Ni 4.695405256520368 8.138964888007997 5.3915421689667085 1.850414460537026 -1.5720416354852345 -2.4592200645606423
Ni 4.897888037474838 3.5059439649610207 5.408881030708185 -0.7038652014336265 0.7012987262580309 -0.15104742562953985
Ni 0.25146027192312786 7.990002029668116 6.7564511777672696 0.7116610433289614 0.9717800643768877 -0.8563922969324864
Ni 6.153188652319839 2.184776238708553 10.394569344138619 0.15992467351451167 1.035585588868623 -0.4430843784319853
Ni 0.4641913122027593 5.352223829140747 6.754580110898431 -0.3219052011167875 0.18438126389497925 -1.0408918315728848
Ni 6.934562849619758 6.966213520366392 10.58851468780097 0.260004606957249 0.13060329884257507 -0.7478315797122476
Ni 7.890705807717891 7.109211195223442 8.130403367676971 -1.0647763514999662 -0.6763302292381513 0.3206440750161768
Ni 1.0054390861969293 3.498422646656582 2.928373410672484 0.8559865768536356 -0.08211872097862633 -0.5343264018681185
Ni 8.789679336536473 2.384313478750694 6.530498549128333 0.5984309456575113 0.023102904566050533 0.4881571024009077
Ni 1.171445325916326 0.48659594855100596 8.436125505067134 -1.253943466819363 -0.14144898330782738 -0.9513197396400066
Ni 2.1454838344629508 4.713310069676131 4.8006231272292474 -1.3270072766845726 -1.473974875817784 -0.715135375030807
Ni 3.2430405444747112 4.681168475444109 6.95659234632351 0.013564626058312124 -0.6809535869427756 -0.019240079176534607
Ni 0.3174135265082199 1.2259748836235065 10.59030424284582 -1.0980340851118315 0.16438836571282012 0.9590669876855933
Ni 8.87957391060615 2.144529775613989 3.907168319403012 -0.8717350979371439 -1.6376366477772246 1.4605555170880846
Ni 7.716344606039622 9.196580804265151 9.627709809133103 -0.4466813517546242 0.4574131363498316 -0.24778852450703134
Ni 6.570436564070755 1.5494656723725422 0.9068866596406038 -0.25126054221603183 -1.461492169969741 -0.8237089477668523
Ni 9.090513543299478 3.8664948455032326 13.114871782559753 -0.4686735397549993 -1.4101325845508423 0.8931441597405393
Ni 8.93222313873722 0.9267153370966529 13.352958557724323 1.5653930198204653 -1.956460124644895 1.2528525477480292
Ni 3.0506170636170644 8.772395124767897 6.449956530590665 -2.692596013186769 0.6178548587100778 1.8722852924681885
Ni 7.237731258615175 5.457633437890146 0.8242929514423045 -0.11502061391296967 -0.674172045244568 0.9001288185884886
P 2.4502454291090614 8.97797164995104 4.306325237582009 0.4274106764504704 0.6070102026860901 0.051036397751525006
Ni 3.438937540559162 3.156054460488278 3.0933477848018383 1.4672956640253958 1.5032106327544497 -1.7493883611309355
P 1.4358585676878861 3.4723388629801053 6.4895833185687675 0.4816010464499447 -1.9706068484589223 -0.0071456099058457585
Ni 7.123179357788827 7.831016922060498 5.478807986712741 0.32282822715168913 0.05780611237519077 0.01914931923494121
P 8.205647117655353 0.33969774766193744 7.349566407398798 0.5911004734343691 -0.8837434352519296 0.01827103039504595
P 7.988353267773793 7.633563791154439 3.223222982267388 -1.0596112623592588 -0.050772859677493204 -1.4507675844633854
P 6.737693269271803 3.839197647174192 13.00495216163987 -0.7941456322874387 -0.6818935822585418 1.3329267274928012
Ni 5.139774375162168 6.975930100294171 9.1610944464374 -0.7015985168866369 0.35775589226680965 -0.5877737230539813
Ni 1.5656383592685397 7.426875741098718 2.7855924831655865 -1.9920449637280402 -1.623690727120094 0.28558991162552105
Ni 0.05018905307976675 5.395878968511214 2.412872257810109 -0.8268181828197952 1.6918894955835184 -0.18692819868654903
Ni 8.688947394959168 4.274776456615362 4.80713017908746 -0.477260767203378 0.19717455900490558 -0.578893389845216
Ni 1.1066990020887073 4.240152456834584 8.643464723444039 0.1419842869860071 -0.6704822550978066 0.8077508817756992
Ni 4.7043345063300706 8.445143676866643 1.0899390595516982 -3.7702659328199517 1.0145318535221173 -0.0749240030024
Ni 2.338277823611457 4.102749457169505 0.8852610169738881 -0.4557640307821828 -0.5520664994603589 -0.21989282653802772
Ni 0.16522909857931994 8.885724348234408 4.208295227715795 -0.8593902032185456 0.49634529463865484 -0.8346507914903366
Ni 3.775785153193666 7.73345282637004 3.074652862715818 -1.279084741971681 0.6842127173100216 0.15959531519955095
Ni 2.3124441330313097 6.923197507797656 5.0192415442506295 -0.3841757770212352 1.203052850617083 1.7065774366129964
Ni 4.210845251027632 5.744508744795036 4.5955616085703985 0.7225643205050265 -1.0848852064346994 0.18557528420308042
Ni 5.589978999384998 6.335404629764319 6.6449318873016034 0.45383313230805716 -0.7255881949330149 -0.06758787435230296
Ni 7.921087487568333 6.731376102912655 12.623989979354235 0.7045959089520639 0.476190931177967 0.14987911635305157
Ni 7.6586472024455965 2.038314311331971 12.110440478913958 -1.2293084418795022 1.5786221169162296 -1.036215252032822
Ni 4.932576876206516 3.411890435326451 8.158195194574308 -0.847493708891276 -0.4367630641996478 -0.42361547107409625
Ni 6.745714773768901 1.7513278519398232 7.788498316872241 -1.035857611583087 0.43146530613581824 0.6666297141209357
Ni 5.96609122814329 2.0695666856659316 3.6046056914631497 -0.5921983344842382 1.0847173133982673 -0.7794124398423222
Ni 6.7886752100940075 8.868477187294921 12.34660153723679 1.3797935672476689 0.016670261566829353 -0.7127146814044565
Ni 6.41849111398946 4.982206461767086 8.485377172171027 1.8887807190200503 0.9173163861113685 1.21125698369443
Ni 3.0784978125042075 8.33369478297624 12.725056304664038 1.0835032384855083 -0.1455159542883494 -0.6785902289169216
Ni 5.246175093589615 3.37304264102988 1.240196844368131 1.0243614380180293 0.01819672551368479 0.699863279363085
Ni 1.8331638706833158 1.2353672687967834 2.798281465856782 -0.7598838828910912 -0.3877735216748225 1.6675239222549605
Ni 9.217866505575003 6.647122517571308 4.7526450823751825 -0.16873327294507715 -1.014261116359234 -0.901319239352164
Ni 4.1195612708672344 0.8715864822290078 2.875162862480762 -0.3976943803329603 -0.4604287832477038 0.7811214521136289
Ni 1.1331718194705864 0.8933316138195254 5.677890427827852 0.19563909619698563 0.5386741373138529 1.788828826514745
P 5.005604060334835 0.462852851002031 12.927136157852198 -1.1663958615156815 0.4349388665067155 -0.04365424635484094
Ni 6.937851110701132 3.7291381593745117 6.496321011838039 -0.4580366288664434 1.0262730532184454 -0.4094142398730497
P 7.7599719572882755 5.826752322658474 6.212277314546039 -1.3072234091894261 0.15491873565948805 0.29902778229798177
Ni 2.779877392779086 6.579476966367717 0.8656898427799862 0.3402734192113301 0.04707175667682216 -0.46427386802540693
P 8.532509531851206 5.396221688680258 9.455008484597883 0.7219241158178664 -0.03375447074262574 -0.5067958005480175
P 4.626351773811513 1.558663540693118 9.132936742602839 -1.342050029950308 -0.699581229346292 -0.7184567260945561
P 9.362744510008163 8.472533502268398 11.764196776023269 -1.5388060133605561 1.0109996719991428 0.8094565516128963
Ni 7.551088645609215 4.645701569301627 11.208404699071428 0.41502901495666583 -0.5685315869949177 -0.1871511133306325
