# total energy = -340855.4238917035 ev
CRYSTAL
PRIMVEC
9.35281285408364 0.00000000000000 0.00000000000000
0.00000000000000 9.35281285408364 0.00000000000000
0.00000000000000 0.00000000000000 13.68878700875828
PRIMCOORD
 96 1
Ni 2.595910637372156 4.011589812290186 5.363033868069339 2.0038422134732845 0.7982835657152123 -0.11272204768678006
Ni 8.524649394945715 6.102055733805729 6.733555791643989 -0.5299187597187262 1.6919656002370924 1.6338550692476055
Ni 9.081590698743309 8.175256362669794 4.645687146276504 -0.2394735768834328 1.10048614619675 1.7162918356872827
Ni 6.597427470146824 9.264522366657884 8.295445620387623 -1.0079277179420383 -0.5156149415015443 0.5335992938941069
Ni 2.9285060176426296 7.92868815564326 1.5393317792603691 0.20545428251519457 0.23582466727693582 -0.5130479521053164
Ni 8.902259863803176 7.649993036234369 9.93444565053667 0.6194150041083462 1.304016472216354 -0.3474915342263241
Ni 1.1764529260341916 4.676649633450245 3.860223887982732 0.4087663218764057 -0.6469507476347698 1.1789449018252858
Ni 4.695532962736994 5.896929840830503 8.62805596515877 1.6041989369440695 -0.48678747574689063 0.379618753778172
Ni 0.09204944948353481 0.28130455421374695 2.3620276505098716 -0.15817015271725018 -0.876544089290013 0.6449632848910957
Ni 5.782283060049437 2.9459677193654437 3.459293115388977 -2.116517467082529 -0.5041797030814091 -0.8776170106392175
Ni 0.2535528877156577 2.507077620252025 6.953383371249153 0.5659394007877092 -0.5681415506453505 1.4867620002801234
Ni 7.885899036531384 5.856516336200467 13.341406971790857 0.35589312802645806 0.5945236401833052 0.1346882675452261
Ni 5.098601788364406 5.549865658971816 3.70741669520421 0.464850052243851 -1.528268347054026 -0.4038025501132272
Ni 4.078958123757474 4.023935525345416 12.21365601319696 0.5763950489033943 -1.5192815701743834 -0.17846849795497005
Ni 0.7997328449667754 1.32878219007247 10.235516439576875 1.0432865570573064 -1.214704061702766 0.542915171978394
Ni 0.4458682328334996 8.098928056424542 0.49234423079868733 0.7943343512594772 -1.4898689213402212 -0.237586644273365
Ni 4.439518414660627 8.180830639170487 7.992718448179176 0.15093121176664973 -0.6198770313464291 -0.5855445766131464
Ni 7.074589279731455 0.9675578494519512 13.321051509750399 0.41163901543851045 1.7291092991669252 -1.8526688037888417
Ni 1.3819716371520847 0.7811226178173086 5.344006505463612 0.029813740927322845 -0.6786359945531926 0.4265943511967621
Ni 8.00901946581854 3.574270985747433 3.472680731803565 -0.740036509147861 1.4474246361330816 -0.7684317724611023
Ni 3.4612048303499536 5.917758555204743 6.804545512274145 -0.3432296736261766 0.7132098758733201 -1.109661899158747
Ni 4.900078981311143 2.2204419626735197 9.573335414233785 1.4915442521601152 0.3382867277986045 -0.1899351038336729
Ni 7.42429095483376 2.196657759416361 1.4767464963206907 -0.2651817802828143 0.23299953912331484 1.394366065745205
Ni 0.6752964749016879 6.764534178599695 11.918252093505368 -1.5134739623536708 -1.92084340388255 -0.40832280658108383
P 5.656225847505205 0.6288429236875096 2.4737142660015587 1.5025930537751089 0.6407667303112449 0.5999741217749152
P 6.5224459689621455 7.391312936475623 7.060265446743513 -0.4328501022984868 -0.7445727064553177 -0.1669088181418287
P 2.634294581598416 2.445928929376955 6.662455707821371 -0.5210831637049671 -1.7485594374717368 1.0955887088951326
P 1.715997997799415 3.616424113580706 11.653058694828696 -0.28325329307254443 -0.14788265474831305 -0.512391292357924
P 8.292129112925968 4.084981335278359 0.8831842535323763 0.12898144696843591 -1.495944952330972 -0.6206041393204409
P 1.4945514462776914 6.001690698354464 0.15706833434516085 -0.31483106787882553 1.4463445156950252 -0.015423533643921825
P 5.812025005137036 2.3070303046926997 12.008899556332098 0.09690307837665248 -0.3516266394406202 -1.186495203368718
P 5.388978571111163 8.869899131097801 10.088677276723006 1.2265776732119005 0.17541994093663335 -6.173255714132956
Ni 3.0312934316403384 5.399219901259251 1.7201057532341553 0.4229115030285362 2.0133252132630552 0.5081841962551119
Ni 3.5566876974566513 1.0017517334897694 2.7579209980645762 -0.268852287155866 0.4777973564331385 -0.8804444527856836
Ni 7.27239192018983 0.3400224490107455 4.415633201023926 0.08109182237600873 1.8429407778678002 -0.7090511165099401
Ni 1.8187105892937585 7.539265084067047 8.238268133878652 0.2717293515933449 -1.8282106707464771 0.8475420456307082
Ni 2.0129591608422945 0.6345874213833598 8.064064510981607 -0.809243921381458 -0.9440491741205226 -0.25674239126620946
Ni 1.4325422966139236 4.864154826883008 7.238781651678259 -0.39850453493908145 -0.6791520149576626 0.669779315493511
Ni 2.3324138389592854 8.059057014943903 12.532208144867111 3.7338750528957436 1.5692337337227942 1.6361454079436788
Ni 4.4952798852934155 7.149533369664453 10.505910937518708 -0.9002275489498819 -2.2798226270334996 0.8941196362799312
Ni 8.567821979387338 0.8976062910559857 8.608125120824912 1.6402344904113881 -0.043587140562331386 -0.4995535171633074
Ni 3.341292415894574 5.945311942068915 12.849924135062158 -0.2579963182779686 0.5962966729233279 0.4766961529491597
Ni 3.784896332719989 0.8217849072710336 5.068615734859579 0.2221433131351013 0.44220763225398685 -0.31757957715824014
Ni 6.84626841071307 2.6188343818406166 5.409302233587689 0.3451060647132831 4.6794077535403275e-05 1.8918662999239093
Ni 5.0583379287411 1.7476946807874256 0.2261715926092254 -0.9140333444847225 0.811289491056577 1.174216900221997
Ni 3.1824161828118553 2.184573925122909 11.095747954920736 -0.934304693139249 -2.2438300109889746 0.2565703844647194
Ni 3.564497296245376 3.3767676353025182 0.8181391807945726 -1.4711021822556793 -1.7854640238075703 -0.6509621827870079
Ni 0.351902391982528 2.51949815581062 2.5295645883570925 1.5360654745009417 1.0160794005148952 -0.15859541318012685
Ni 9.492169833145985 0.8858685108405968 13.140729276640679 -0.06741792443334195 -1.0721371627404117 -0.3313002691784423
Ni 0.032219505230273525 5.337818684435324 9.10835470819698 2.656363513217296 0.3224165935355673 1.3598644324239095
Ni 7.6315586419678105 3.208931407441838 9.735711469911402 -1.4732896768253014 0.5715667742768156 -1.1553326617229847
Ni 3.026878903941802 6.279188657709515 4.27615844306376 -0.6571791102309973 0.8123066194671817 -0.14395503755913272
Ni 4.575358669519838 3.786607897484464 7.560111568785836 -0.7022747170180551 -1.372793996001384 0.649428776861617
Ni 5.423078927019774 6.939656247725547 12.59128892880543 0.8987316811306458 -0.6827027084233984 0.6977572887636757
Ni 7.411477601132499 8.24811477532149 12.715418526606722 0.9367534117900577 -0.19885168959701238 -0.2615755509887947
Ni 8.756430804744735 2.4856035617862617 11.458842858125381 1.0116501610989481 1.1518611582346163 2.632223168525667
P 1.766016841298937 1.331494505819452 1.3705490467321209 -0.20749008199830074 0.025143846255479278 -0.7627023261764929
P 0.4155454780635295 8.751857279226547 7.2440650556971224 -1.0531505943355797 0.40645490013440966 -1.3668940855771814
P 9.266477104558296 2.1149609385546704 4.854659851205986 -2.303971456365561 -0.1840213094523992 -2.223046755695036
P 0.8813520374812251 8.887267304691408 11.438679128749797 -1.5833120661927311 1.082887202168064 -1.460948124540813
P 2.6746332637250867 8.554858980679347 3.9675717335605394 -0.41504906956132387 -0.5264274587360159 -0.17991422926256112
P 3.0387850347897616 3.5804064310233654 2.8086104382505077 -0.5360644676051478 -0.34094370580547734 2.2222502279356693
P 6.818041621318613 2.13058013613212 8.045406584486246 -1.1934610931635898 -0.9372110681527666 -1.3083289835487788
P 8.780682648647925 5.88543523375105 3.5174021420648427 -1.9583869093539628 0.9511629023471684 1.5302342125311452
Ni 4.2245627153058205 1.122019554836133 7.353917584575074 -1.5597990706724558 1.4968399533414156 2.3651971359452624
Ni 7.240218243742867 0.8461293440221379 10.809227336941154 -0.46295926297904144 -0.41864475733238216 -0.7677357748353423
Ni 5.139885104596061 9.467946047681558 11.821896608953175 -1.8162982355796073 1.6919596866998217 4.774593592115557
Ni 3.3592498167021807 4.475115220636541 9.995114542108913 -0.16539778081394096 -1.3715218141571799 0.012469079001288203
Ni 3.1315836445882392 8.851305739011591 9.8702451368056 -0.9947014490597514 1.4331526995950996 0.9513189683090583
Ni 8.341605493276093 4.9848435248108 11.245283533739624 1.9733224476178723 -0.3077147685490184 -0.70000906091233
Ni 4.7735260696821165 7.879941294700944 3.3299755122606136 0.3817805373161812 1.3592579091881622 -2.371891260135986
Ni 0.57921502776807 5.1565705228464624 1.8814417761149989 -1.0444507525687368 -0.365928400775273 -3.5531018180669967
Ni 6.443592403228325 4.3169591541487105 12.227002477234699 -0.026182571932638777 -0.07488569356529684 -0.1701887744446811
Ni 5.811248721664624 0.6175671724303997 6.1256500749606 2.3280544654566935 -1.447915459726571 -0.8886421581051276
Ni 5.233301000047299 4.810797029170821 0.5209077214582871 0.5337031664618227 1.1956760985370376 0.1265970058966594
Ni 5.22349925210648 8.777671042887482 0.4666698240502697 -0.34815539306256815 1.1073437925485317 0.5611242387872529
Ni 1.8771656700476875 2.6840796047749214 8.766038949458096 1.0908211123031601 2.794900207974335 0.5273322299384725
Ni 7.361823517336881 5.983405949094635 9.119825933244131 -3.9426023497352554 0.608181854396688 -0.49058679488832285
Ni 0.9159097459416559 2.9975484826227103 13.591322550561681 -0.10196789449406955 0.9287814493281746 0.8471095860789798
Ni 6.496136506216416 4.978174969198392 6.41572943825648 -0.073994292099279 -0.5412285283045905 2.3179739412922404
Ni 1.0100476785503671 6.609427129123992 5.638999836667991 1.5604984107323254 -0.5116217611817512 -0.3892524202131941
Ni 7.5499834076740875 8.041632724472773 2.9216522763343935 -0.7746713256129111 -1.2507624979882201 -1.6170418543450087
Ni 4.829792592212619 7.46521886417443 5.467547811332196 0.6941091504881272 0.2747812510457913 2.337357488025175
Ni 7.0079130764202935 6.4027860804556225 4.855439875803566 1.2598649745101205 1.6412441626228251 -1.7781628621604666
Ni 8.811238288459618 4.056670370567616 5.53489648189235 -0.02020527130328133 2.5055240898335045 0.4535425976508318
Ni 7.0912559923560154 5.568767693884407 1.8315875421228802 -0.28254238304844886 0.8245031615333736 2.3691674334469197
Ni 0.9475241241759647 7.345717973487559 2.8853222098255036 1.0299078217575555 0.03435945131647631 -0.034209041781541084
Ni 2.630226107977942 8.415763946923759 6.2875332373973 0.8926659345525402 -1.036163829969596 -1.1491381028764984
P 7.356838468050186 6.854592414212429 11.217441144956204 -0.5054128041575618 -1.1497371699130778 -0.5123018179679113
P 1.925426184718131 5.9195730009113445 9.698929662538447 0.38773675489961607 1.389031540906169 0.12271284035090481
P 4.881869054554679 4.0852525668530575 5.514583107510036 -0.26480331389747297 -0.16289738298959042 -2.702320696673701
P 5.218299088122611 6.912860438707946 1.2495769585728342 -0.37040057761401374 -2.811843006476261 1.1658055362298503
P 5.562314252969173 4.370765886881086 10.20151428820393 0.1248334862383334 0.4983263296244256 -0.8663362955190758
P 7.930923477931291 9.012080593117197 0.9655657002998573 0.14292119697797967 -0.3014718729631002 1.5624915299029543
P 3.2247189556518587 0.6996222060269509 13.387756706781616 -0.12602827787738297 -0.7372841432137044 -0.3177744667778656
P 8.25377322713847 4.238947341577747 7.8690265620225714 -0.3864015810279603 -1.6584314730353888 -2.4738329293778105
