# total energy = -381165.9961174751 ev
CRYSTAL
PRIMVEC
9.30321946040227 0.00000000000000 0.00000000000000
0.00000000000000 9.30321946040227 0.00000000000000
0.00000000000000 0.00000000000000 13.61620206413103
PRIMCOORD
 96 1
Ni 5.984193602181732 5.785076795415514 7.778051548302854 0.22811804266129743 -1.7163422293092443 2.636754737847433
Ni 6.057791371575161 4.589296781357245 13.407560837711543 0.4546232323095203 0.28017593969880134 -2.2935967979994563
Ni 0.10019009198654924 8.05568566692935 8.42462995453822 0.8853976830259009 0.4004863412558006 -0.2619452756233876
Ni 7.972719555508468 7.916165284222582 4.417313744558524 -0.24941140482243498 1.0153088408974578 0.4274235319662768
Ni 7.925347561860214 6.967581115260103 6.942166580254544 1.3915121412361777 -0.4278361940236632 -0.2938724633492874
Ni 7.132406254982436 5.983244673793648 3.2012648061951783 0.13399792634642083 -0.5127224504450977 0.558749053686857
Ni 2.5234703772796556 -0.04550855878420366 12.027041212288474 -0.7368020613709634 0.33528882151254513 -1.2741582512043412
Ni 5.478051945772998 3.8966999999095657 3.9418764337579404 -0.9888989834453613 0.5480532645359077 0.25540078963665047
Ni 0.505837441131377 2.32612118221673 3.4999902537297576 0.9933289941922568 0.11786708222282928 -0.7525444118068847
Ni 3.301368378240461 1.518685459371948 13.474988711938531 -0.8466406168623613 1.3087401029442687 0.44467152041344704
Ni 1.9825625896329948 5.42816808286217 11.554096233989533 -0.633239054475632 0.3758844835467204 -0.6424286913947
Ni 4.457609709461911 5.090637976508614 6.2061833043885635 -1.2421109929608092 -1.2323143185853616 -1.5859955265621655
Ni 5.707701918908732 1.6577871972016214 9.782328782549829 -0.021606008305549887 -1.1506319138132055 0.7819550037585178
Ni 4.15601794000215 1.4518697369874702 5.4224075293533325 0.9453594082915137 -0.07541765480936688 0.48321518501460003
Ni 3.9670416424811394 1.8215982859994337 11.14412660906918 -1.0373231403850198 0.3456192569042757 0.5916967122574712
Ni 0.7757191869560098 6.809491506449265 4.023234018528826 -1.0355081986634682 -1.225123200153561 0.42301306160340696
Ni 0.6974493407341927 1.220135842685749 0.26717264830884885 0.7885043748412615 1.9948623785721773 2.3950134479757463
Ni 2.5816341055374883 4.488031237197534 0.6023062453215198 -0.6039806718311469 1.2568081899616677 -0.600839555099004
Ni 7.881213088594834 5.8375469533448445 0.9820506404375112 0.03765226313513515 -0.7266829706590905 -0.48993656289883364
Ni 8.351462924207228 7.884822737757347 1.9090327337418507 2.568474722524112 -3.730230514164621 1.0312257692380304
Ni 3.7031651248379576 7.269172884719864 7.5669596374078 1.6934853793157285 0.6348616776807195 1.694044080032676
Ni 0.8939147299454716 4.4161452601904525 5.173952958660409 -1.0935549662945554 0.04308963210062256 0.4820571601507569
Ni 6.819204067597886 3.7776280936440503 6.226730394956421 -0.514476971242359 0.8295332677581133 -1.2912326901881246
Ni 7.697186103843043 3.3926608711058024 3.5404304185352555 -0.018112393329994612 -0.8969949009451972 1.6246451206135635
P 5.668833067875267 3.2878973164174696 11.602488790815952 0.7396351599443843 -1.0424368074625014 -1.2577990931200274
Ni 2.628568847869665 3.413658237497026 9.655166796614926 1.205118989117492 -1.6891990932355487 1.5626740782274056
P 5.2757069218433985 6.653169509341721 12.913306835168433 -0.017962240905375515 0.05830336372658346 -0.7606917235043674
Ni 6.413834884715839 8.022287108956602 9.730628000872406 -0.5938752079660288 0.9473448141526589 -0.6598404591132443
P 4.7295335119648225 3.287608916613248 7.455510789193222 0.5874649335643108 -0.6381125805178495 0.2675237981524296
P 2.8796720451516817 3.9752842949501797 4.972895500308365 2.6008287133747854 -0.8706788887584876 2.864960198016214
P 6.9502213076898665 3.965692675654942 1.7008815705279063 -1.6659833172407177 0.4002078907834334 0.2069943733088048
Ni 8.253481416527844 6.795918109211873 12.535197946038961 -0.6848580642035044 -1.8263756744202675 -1.6885784289324146
Ni 0.3240878845109874 2.7195450312723115 9.77519414352217 -0.6197852429635713 -0.7253069162471703 -0.5384447949118661
Ni 6.579497314192364 1.5560844017258328 4.859500418576267 -0.9103489536545999 0.554906025791683 0.7136055686498419
Ni 4.144705225101075 0.1963556112212849 3.0141779925527925 -1.6949876748928678 0.802009865526864 0.7562907662231944
Ni 8.080515959750873 9.220560385838462 6.703297116603214 -1.4182282170747833 2.209576489122743 -0.3156003419446823
Ni 8.994594487621171 2.3622548867198363 5.98167894195331 -1.237975887746513 -0.3440750523456074 0.08000630262131382
Ni 8.81008373545585 4.758392098825954 7.319988930223691 -0.8467154359643547 0.010334034936156396 0.0140770469183564
Ni 5.732532211730254 1.9798274431026361 2.3558477594563736 1.1524409419974861 -0.5591583733101338 1.2573082695265378
Ni 1.5464834792111042 6.337325207621723 7.411816358209767 -2.039390028670907 0.258568902951987 0.32881812618653694
Ni 3.4853395436753054 8.727424630278172 9.612752488633435 0.7719359289596189 1.1082706752381752 0.21076515320514672
Ni 5.834532710229756 2.3148549834131096 0.009695815353537024 0.22782262290806568 -1.356316310061335 -0.5271309125609438
Ni 1.5634711580016998 2.9486089015801107 11.73520572910894 0.8815592831164171 0.4640985187898072 1.2900926630464102
Ni 8.000154749787475 0.5600593952908663 2.032231548173581 0.2790636804712291 3.718063539784784 2.522324963440927
Ni 1.361256379144973 3.431613451114687 7.628395307960623 0.06953779898982218 -1.4554567624089387 -1.072645726945714
Ni 7.099035606668161 0.5269873803222531 11.38900037058001 -0.1373897256367892 -1.136562837314649 0.4910112840202511
Ni 0.06028951391153011 4.770179277921072 2.643163738607171 0.7439283880030995 0.006499748791730741 -0.3483785648169677
Ni 3.4538388424787247 1.5029537152126398 8.156840502777117 1.5211245369203932 1.8970319032852487 1.0237662276361916
Ni 2.7757271737785585 6.8934716687946676 5.636018752086555 -0.11869266344791816 0.5760960296057369 -2.809306613207652
Ni 8.085465272520093 6.3469354333559425 9.219244910602434 0.45124685963811967 -0.769992432080003 0.423558906804548
Ni 4.034145764669838 4.647776819077772 11.589552664113693 0.6562586552992569 0.2232314039929575 0.8285341370696375
Ni 4.864430194584556 0.24227816327283877 0.8261249604802843 0.5332473098713268 0.5949823249872785 -0.9501866544768279
Ni 2.122678378387189 0.15836033249802586 7.126012152226259 1.2471804370639166 -1.0814777234150472 0.2866597476509321
Ni 1.560596463178976 7.438612421309741 10.271204593905185 1.0662094844020669 -0.6804992730141765 -0.08256352182552879
Ni 0.6876465383565091 8.374116263667851 5.973754459590863 -0.10374966898484067 -1.7517054392998863 -1.9075106913293858
Ni 0.2807302300731067 8.361612736671924 13.314711916225356 0.15763047816369627 -0.2861038751474621 0.12815509441239864
P 2.7009199858512973 9.134691669936384 4.643492686502159 1.5186303097436298 0.024844826957821725 2.651358346693221
Ni 5.714130443577025 0.6743754957525745 7.251239998828981 -0.23653454885976682 -0.4363290619860227 0.25335110619647333
P 7.706889361772173 0.9502959613488259 0.14733415675727354 -0.5445269965502041 0.540959333803604 -4.275371747260056
Ni 2.696268376105789 7.440566097402854 2.9089520678557568 1.7255503781710733 -1.0772906819168928 0.3189067806100959
P 1.9414144498242305 2.7543018592907482 1.7064504777152287 -0.3524949009781865 -0.35395297358095174 -0.49056648317334867
P 9.040580301565265 4.23722574293923 11.626098501240254 1.34232950886394 1.2154314267870938 0.2250363184121802
P 5.171650411836382 6.784958916651456 3.659149732782062 -1.0376591835682 0.38790336238446743 -0.32821725937774443
Ni 6.8302004730362675 7.972859103800833 0.24519100129547594 -1.371162373935232 1.0866767511174833 -0.8550900331812952
Ni 1.0628649171901212 4.977948078813935 9.340020236356754 -1.6472821412867888 1.6681091053344692 0.6710666668463668
Ni 7.59259931032504 3.949774867105813 10.060943460510678 -0.8430688403507028 0.5898889696247711 -0.09682851638497518
Ni 2.13870782557021 8.903506665584633 1.1394992574254175 0.7335742984622851 0.8793738454293243 0.3957570541009313
Ni 8.04734067904591 0.6935624556308462 9.085179005483248 -0.21779069259336037 0.07536700407708956 0.6269884455802299
Ni 4.88122250576584 8.880146281442693 11.939884000486888 0.28191503387709516 -0.8084365949888142 -0.1528050317505949
Ni 2.478414885284664 4.959174181881064 3.3051147847294935 -0.0261036390655873 1.2266440076734617 -2.658597030533505
Ni 2.4559941263113156 7.351506377215356 13.171279529722614 -0.750471845548572 -2.5979081972938807 -1.258348280755278
Ni 0.36113237420226457 0.9982354513860321 11.784319285445914 -1.0115807413135933 -0.948036955123677 -2.236538362423567
Ni 1.3663917563040138 0.47556104361981405 9.612344077297779 0.25967062065659796 0.3827709262539085 0.343936212774898
Ni 6.074546469878481 8.565567217573472 2.512175338495613 0.8788809649533058 -1.5590308250478633 0.9691986768029567
Ni 3.414756017396966 2.63612306209637 3.433706675500166 -0.24156234109166144 -1.1928820807316685 -0.508976096028788
Ni 6.810300886544984 2.5938678391681744 8.196286153419026 0.8730342763645416 1.2751147015803395 -1.3562106377214063
Ni 7.841348793075829 2.535155220960372 12.124683152456434 -0.5377140873934287 0.7293571750571439 -0.14302224133221822
Ni 5.279121203396601 8.636206563168757 5.10787312093767 -0.1074047492389247 -0.4859996897382727 0.13269026327859082
Ni 3.1471023926404316 4.905224812052662 8.144735153575407 1.0337750180224452 0.966390003709568 -0.4346701862263611
Ni 1.1740011772298 9.114038522666329 3.35286728005493 -3.03722076738826 1.0961785199603316 -0.6458153484787458
Ni 4.255283291971292 6.610384002902538 9.955581708809072 -0.18965613914067336 -0.5947460406067563 0.05223633159689714
Ni 8.606687447723763 3.2191465243788606 0.6447084591176732 0.6997524648168336 0.1002308571983048 0.5080713248263314
Ni 6.502420140709295 6.051186085736539 10.971813307978527 -0.9034239443999924 -0.5796883749426855 0.8893299282007715
Ni 5.240075591192806 5.635983399852488 1.5466779164984665 0.15028586487316697 -0.2873835131908341 2.427426059978497
Ni 4.1774618609289424 3.3550014386061693 1.3929236079704428 1.2870299649606867 -0.4335144753553631 0.052885792255437956
Ni 5.039777275551228 4.281918409374072 9.452517557407969 0.8487754038171768 -0.9520874710439667 0.5261713768611519
Ni 6.191981009513578 6.454443437794125 5.611345683674431 0.2260789007440816 -0.47356994861535223 -2.5283351741907487
Ni 8.841500707677012 8.20978419457854 10.854482034079782 -0.6878140615080349 0.3419819172620046 -0.5208268247197869
P 8.296880935453435 5.394806737767387 5.013226817445817 -0.7508893927019649 0.42557413746236383 0.4730343878268562
Ni 1.9639933635289266 1.9968802444296687 5.528164667883306 -0.7221082068042144 0.19703211988977035 -0.16316837726278996
P 0.9334664372895776 6.59694085073802 1.7177520287529149 0.15641846013346608 0.5570220436934213 -0.3570231278658432
Ni 4.118032894820331 7.432221109519412 0.9875153515665341 0.22596705775656567 0.6898287779452185 0.146920805055676
P 0.4304729903566043 1.2468732955029296 7.787650610173683 -0.6356589767710343 0.688066286728157 -0.45905272883578363
P 5.893412786388396 7.802582277456765 7.423376538749304 -0.09251009151527939 2.130734382012859 -0.260156559154081
P 8.34069909925612 0.8127599553594905 4.136847725918963 1.541844543076564 -0.3639792474687022 1.4210109220262432
Ni 0.7264614307169266 5.395681240399543 13.437856771984038 -1.7399552407424939 0.46100625301772863 -0.037520108432645055
