# total energy = -340889.9573023584 ev
CRYSTAL
PRIMVEC
9.03456543754212 0.00000000000000 0.00000000000000

0.00000000000000 9.03456543754212 0.00000000000000

0.00000000000000 0.00000000000000 13.22299974571752

PRIMCOORD
 96 1
Ni 6.834865417245193 2.4180562078646415 11.273744262541124 -1.1016567694660835 -0.5165865613861941 -0.04774769969792422
Ni 5.046256402708047 0.5916953591061078 5.872902857969458 -1.2273739438609508 -0.5419466374175377 1.1240821883491352
Ni 3.0932092666317565 1.8254519714975677 4.757741176286204 -0.45576943009882154 -0.2715367759665646 -0.2669309017634371
Ni 3.3742113486180214 4.474377458951863 4.414115102032441 0.8606731836960274 -1.0724935176385657 0.4835707685818059
Ni 3.7422343627874106 3.0148344133625913 2.4043507724284074 2.3667755361759757 -0.2733676585277163 1.2701717557527674
Ni 5.396770429484278 4.809749554422144 2.09365026765639 -2.808828130909337 0.1573574270079677 1.0004437508601673
Ni 5.562970291241001 3.2913643855657746 0.10534845118506392 -0.06550373812976461 -0.31910655532572785 -0.41865452752439514
Ni 5.8492214556191255 8.294345220877936 12.176068753354025 0.010489586677414193 -0.7233179108415994 1.2506334286095235
Ni 2.1426013489224416 6.72263804810288 0.2528829012006801 -0.4484620978041309 -0.18226987397893124 -0.7633173340526725
Ni 0.6584987412436135 0.2324250317202538 0.25407727072254566 1.0383772926811472 1.2035462453137336 0.1404825056295
Ni 8.366350705668166 0.14518184923275845 6.203834464634921 -2.0816792763574212 0.6091840704089574 1.589867865033378
Ni 8.80903536680198 2.792466659643402 1.4706221329165314 1.071965670159554 -1.2349913511968924 -0.1268649148460654
Ni 6.766347274629245 0.8708833003965287 4.357017553309006 0.17431333813601593 1.0019676437038614 1.2076785223145523
Ni 0.9380318029253754 7.53948019318934 2.3941037685577577 -0.6845125079386275 0.3221204024513872 0.31730626889219543
Ni 7.684737932769933 4.0362642878185335 3.7293086103295208 0.8298492563366353 -0.9478808891617869 -0.048685895241477435
Ni 7.91832661649031 4.150379881091482 12.518967545107712 0.46026448975569767 -0.5959765705797477 -0.7896225476061047
Ni 8.31291125240164 7.415706649697978 8.90976263787786 0.5133621409116256 0.2683234112355895 0.15469582101540455
Ni 7.23881889728795 0.798153243475787 0.31592880766387504 0.07534540681053475 -0.4097268860174621 -1.0019866698672548
Ni 1.8282436521500371 6.747998072670781 9.18120434295007 0.79644342718268 -0.037713969611006024 -1.0939794554264837
Ni 0.2264721566978846 5.1832565496790695 0.9210233304453143 0.6914303181043835 0.43649232703676444 1.4695165829361143
Ni 6.468432486554233 2.3358868372037698 7.19365510576143 1.208053389155468 0.25528611843565713 -0.7939882807739681
Ni 3.5098021034149824 4.622977987663244 0.13854957490596947 0.7097304019651519 -0.0522432735754326 0.2736862182093996
Ni 5.787479236916938 5.2927193418645695 4.415569667032595 0.592841881605508 0.35693673879962395 1.2220844133272373
Ni 5.459434173838738 3.1526476712032654 9.371867096948511 -0.6610905294702614 -0.4485451444362404 -0.0631213539405171
P 0.34092112542739006 6.028304607377212 12.093491020345285 0.9937984776295077 -0.5427665622156717 0.40526756469452785
P 4.442855860905048 6.4027602319820645 12.450921910252683 -0.5826855098977965 -0.017359831434686234 -0.7929762945696859
P 2.5273834815718654 8.58700189199587 1.3573015813827973 -0.05866408950011187 0.8076410956707124 0.4235159693817545
P 6.56413563591219 7.957888977581454 5.83082708083457 0.10392373266885972 0.050918127006105866 -1.4848506421900234
P 4.871148459646034 1.4008274062352306 12.482365811038619 0.6924618446926913 -0.24621038138663404 0.9589710855376773
P 4.145239213482242 6.219710906093124 8.131059909860653 -1.6441790768814328 0.9430595565137435 -1.0225603802535483
P 4.8594306285578375 1.4648192316767867 3.4684987816062627 0.02734239656869485 -0.7238804682132888 0.7780376709819825
P 0.44176494239458586 5.569158968415569 3.4437187761253787 -0.5720244306395246 0.32020004550022274 0.3396537833494602
Ni 0.7477475972095821 0.15393363255977177 4.5111580774122775 1.7828672096146714 0.017674277351311496 -1.013948984435454
Ni 2.2047320539290176 6.458783570901038 4.635349017816727 -0.971426794802527 1.9717160223627008 -0.41317653512895935
Ni 6.013262056288663 6.022811591724457 8.945623537599047 1.7587875429576483 -1.7803755535410692 1.0859249605531232
Ni 8.945267575729444 2.377689770469064 9.9870803327745 0.007450542740774266 1.1253859947622231 -0.9870591020231453
Ni 2.6991667046335266 5.339635839043448 6.6317042457236886 -0.4796557497981158 -0.2702381117597991 1.6110316435951868
Ni 1.0172378361946286 0.1652078664957477 8.891488422810708 -0.7416563041394711 -0.3204149897245062 0.4406456870835056
Ni 1.5065498884203343 1.2418461620879682 11.288037848173072 1.3358004494961704 0.9367153594632707 0.431200996730838
Ni 4.464430402646462 7.046536245745859 1.2759389973959248 0.1007885294739877 0.7404671689273763 0.5002142906757578
Ni 5.956958645847921 8.138146622817924 7.921092096903646 -1.1710631850843638 0.5973929913113003 -0.8460752312771944
Ni 5.367904993611658 2.9978946035781893 5.005738184616802 -0.11383173581119106 -0.3676757224836829 -0.30697403372825194
Ni 1.0691956207653457 7.719783011251903 6.429379674941404 0.48246133756771103 -1.136744614308152 1.1807444169278698
Ni 5.309397149257639 4.688370170713644 6.8962037908821205 -2.0944584303999605 0.44368421679951325 0.8218063314275008
Ni 0.9340114214032107 7.9415364145362455 11.173711749530536 2.0791099729683484 -2.5553029610288447 0.6624064200682076
Ni 4.976672181396334 0.7024672597917457 10.45767366932431 -0.6741363069106261 -0.22738579248096322 -0.40891981673513444
Ni 8.403808013063436 7.232648289243819 4.5084477078467735 -0.7326546148614931 -0.23128872707979525 0.405204058446444
Ni 7.3787372088245 6.1590438006519195 6.874928293249434 -0.5032566770465075 0.8354588892139289 -0.19191228216470174
Ni 2.3712842637292555 5.574001495372603 2.465454247369658 0.8580876823570384 -0.9814525544696453 -1.494349068598762
Ni 2.74048177137703 5.617502926898947 11.130142558765057 -0.8099594593912438 -0.28134424897528965 0.814446805738636
Ni 1.1408487575120605 3.4072688227519556 3.8562361205386084 0.41724453455074595 0.5407649584046106 -0.6912770803559708
Ni 1.6986337795276223 1.393247406017037 2.603436451579915 0.5264765668063965 -0.4540203086181987 -1.215002309669475
Ni 1.51865620581292 3.395749752098562 8.165757157581718 0.034809908590333595 -0.2670288607938821 -0.21765956633213482
Ni 3.8383259984497555 2.747501628551686 7.140856203168886 -0.4103061555596998 0.23553644661255563 -0.7504682460041463
Ni 4.319425630891984 7.055841847920757 5.75442447315257 1.075456714031948 0.37905233975174074 0.16354941475129253
Ni 8.409734687846672 7.422030845350822 0.33126498212202016 0.42216408333955036 -0.35015236888793894 -0.8376042176917059
P 0.4292023794584735 5.95111328215165 7.640288775352184 0.8938800094652993 0.4384422516742836 0.9427119433663378
P 8.584165038517309 1.6374517038689724 7.871280925028808 0.7884267275257905 0.5096111585096256 -0.6345300053729136
P 1.9303794119434563 3.5852858958142764 10.475974084630597 0.2656800600754715 -0.811285377291519 -0.8228337442507506
P 4.294643818498056 6.385531316110676 3.4526178228654514 -2.7826501869623885 -1.0148182744142846 0.06729785391570992
P 7.167644592497808 4.185677927399565 9.78615702305758 0.7881919858071651 0.8225367818356222 2.1029515554726363
P 6.521944216342506 7.944418440840898 10.057360215608025 0.6048160232482487 0.6710388989322249 0.533603664769481
P 2.8513810594322466 8.779573649624949 5.482387390232471 -1.010930509324104 -0.27141104902197777 1.3635886753530322
P 7.169731577063247 4.078293085214286 1.5263572692050396 1.0450148526023226 -0.072990533425113 -1.1977980299760467
Ni 2.9377515029196495 1.900086514766337 0.24440847902587004 -0.5119786303005377 0.1480441200268418 0.023409380062875813
Ni 1.5648770414699864 1.1737887822981559 6.843311832267827 0.5516661786981467 0.7723272508607667 -0.6933043951986446
Ni 7.034682896179387 0.8754927355709297 9.141178508663224 0.07178751425594734 0.4232100081055614 0.042497249932262296
Ni 2.947048070529329 1.671250012350811 9.247967069544094 0.09209511546504785 0.04582759985707591 0.10574150260388884
Ni 6.3203559626255155 2.0148977695610983 1.9804354205357113 0.9437396132999039 1.2958213380000716 1.755415798271938
Ni 4.46903803090782 7.228898944678205 10.32277225185351 -0.9239398049651573 -0.10214170106777248 -0.08142478023539526
Ni 7.413366697306426 6.32175632023436 11.200647402272518 0.40872415578456056 0.2774703678421802 -0.40584709134708175
Ni 8.352482648058002 4.113157472391889 8.035326042980955 -1.3377884264604765 -0.7268014985148257 -1.4068099479355127
Ni 3.1550960383774376 8.781010145494665 12.48165208038637 1.067125311348117 -0.6259718313902574 -0.947737164495071
Ni 0.22598519363261566 4.972136829656724 10.100613196590864 0.31309068814895114 0.398853690748384 0.33629437995892403
Ni 8.754385281796196 2.651933997672005 5.694723162733207 -0.5413367717476807 -0.9209454982235237 0.6768025408888795
Ni 3.8488060941030393 3.0034056883613816 11.336685368047787 0.013936150465117933 0.1441177883892421 0.006844790835975309
Ni 1.3666315768837851 3.5566463240721147 12.664235222710044 -0.8320030694548446 0.024344233172319367 -1.39923110714699
Ni 3.214109818383684 8.349663863709878 7.694238681553546 0.5898414042162873 0.02059376499095163 0.560312541519235
Ni 5.981857907589688 7.587769944281408 3.416294353405085 -0.3800653543972874 1.6779926829967682 1.5548782363320706
Ni 3.572953714291232 8.544882748947932 3.5020983296532977 -0.15507917249675227 0.04366864453254415 -0.6264899086772565
Ni 3.524546513851326 4.316444224369929 9.097238900723791 -0.19606718487333974 1.2454433997681518 -0.09837272094364348
Ni 5.541739062977884 4.841081426599374 11.343455871222417 -0.5901347670869901 -0.5858348541600555 -0.7933485903074401
Ni 7.834395505611861 8.926105262901329 2.7245592536362144 2.0148732744764652 -0.6763603111451384 -1.6694316808006346
Ni 4.5129189141733335 0.6127269234778991 1.45612978684978 0.1730216159077859 -0.9514056144855938 -0.6341718507025464
Ni 6.473925502206988 5.743480904303586 0.1796658812146694 -0.6655459941384538 1.5354129285186076 -0.25268827580149383
Ni 8.266907246309815 0.13082140781819496 11.060721863083796 -2.3106928342497945 0.7475880962428738 0.27465321010835925
Ni 0.13077533153558138 5.02415785618397 5.700302910212059 0.9644411075133134 0.13826261516004576 -0.6882948577991953
Ni 7.4267378538295805 6.138300438910594 2.425362460756719 1.9226681157961145 -0.8990348141933613 0.2641127155883516
P 8.68815288418049 1.7048676295282823 3.4605384261923766 -0.06676949221606565 1.3527278213791283 0.2707150513962176
P 2.1240262828335186 3.5649039166816845 1.457901465089098 -3.62590440385102 0.3512461161727499 -0.2789613505654099
P 4.928337257478175 1.3484992044905615 8.355216507493076 -0.020142536386145955 -1.6722601513883653 -1.4833527174882584
P 8.710052670269764 1.966680294990777 12.224887929967888 0.01820572437474929 -0.07702022340979639 1.7568746422056518
P 6.649539380921229 7.833871500829196 1.3361046844675104 -1.8420619748072729 0.6890325072961682 -1.255319264120967
P 1.9675927860778302 3.313724934481185 5.976927745350035 0.08294584486561199 0.24922577117419015 -0.5529530158303703
P 7.02460935596093 4.192869441313371 5.952398900782221 1.887838409711439 -0.9630627391085479 -1.0788001765828839
P 2.804844013992538 8.679696531136116 10.160553019531992 -0.7130291273210817 0.1729694225136118 -0.07413338878030458
