# total energy = -381169.6729691877 ev
CRYSTAL
PRIMVEC
9.22876796682696 0.00000000000000 0.00000000000000
0.00000000000000 9.22876796682696 0.00000000000000
0.00000000000000 0.00000000000000 13.50723477761115
PRIMCOORD
 96 1
Ni 8.951120477903247 3.214952064792617 0.728369436882552 -1.4345382670887166 0.9433117817338658 0.19438825450902006
Ni 4.947597877058091 2.082037738540394 7.724409568468818 2.0207839835339456 0.3816697227699298 -1.219506882408048
Ni 2.922612382059036 1.6397951777993771 8.177522694992323 -1.8874691992974786 1.4000330342229952 0.8562076917255061
Ni 3.259296294850225 7.356601635725645 6.221797257794796 -0.5530327200283701 0.11370292354281064 -0.15891088753801663
Ni 1.591288773390888 0.9991156483385487 6.212598944767029 -1.3127649078329457 -3.665402719055958 1.2099133251823422
Ni 3.76450673939625 2.054969762107727 0.35892801221009724 0.4699207818985391 0.15306651294209767 -1.4462861516532641
Ni 4.110041040663036 4.6578237918179575 1.4265128129358262 -0.8113982487202994 -1.0410036745604008 -0.4278181963015342
Ni 3.9739443995268138 0.6211625309747034 5.510911721816331 -1.0107872988780204 -0.4979134104567231 1.2112153318232173
Ni 3.4037080559202466 6.265964295507533 4.090071832546772 1.7276676816243925 -0.15233323432049894 -1.007420953508949
Ni 6.951329519440565 3.6392354430795018 9.618893824347037 -0.2702237135820959 0.37680648114035753 -0.2995288903041164
Ni 7.236830685114273 6.737766600030969 11.032641405437767 -0.8778669218664946 0.3589303721908851 0.25989404952131373
Ni 8.63687170002778 5.3502859383137995 9.8490703718419 -0.9889519481704839 -0.9465637130122602 0.5636601178352293
Ni 1.0162719279799834 5.141725011139629 2.0289354076868085 -1.2095502854159685 0.013769285869950482 -2.0784517705590595
Ni 8.57840745498825 1.2799378286555023 4.866980897402476 -0.19446821581733606 0.40586431773826226 -1.5808486922539033
Ni 9.230429140274426 5.781850814522735 5.74961103652414 -0.995956147402459 0.9974291324035597 0.17274933608300572
Ni 2.8124762652000355 2.786414224475231 5.9038366694449955 2.0076209637894262 1.9578858013478284 0.08441960119766106
Ni 1.1646059154338726 6.752135791747866 3.629204695181559 -1.3937533718618706 1.1342431880425368 1.5224507119309845
Ni 5.343475107557813 7.927770084896379 2.662951766679043 0.6289602245946201 0.7418115987704128 -0.06920664090264855
Ni 4.368649576495357 5.1745055949408 5.867299977083275 0.9012248798661446 -0.12749920599595463 -0.26027225879633886
Ni 8.588872877857204 8.385055537415523 12.481252503258702 -0.9487748617309659 -1.501799097118904 -0.24961272219996367
Ni 4.6377604502684795 6.8009282879631785 0.651768817044017 -0.6230939956218301 -1.131138066754652 0.8527500721942087
Ni 2.5713470158878216 9.286909200202118 10.257948167769749 0.550805116249432 -0.1495628706642134 -1.0561909238238003
Ni 2.1389054067224924 6.506982799604203 13.35645348417092 0.32793520936095133 -0.12414623036332169 1.3422693450499656
Ni 1.9905345041967548 4.969137821481495 5.132370731933304 -0.22012653981538863 -1.03174847451072 1.0801255802625267
P 7.48687492427782 0.6552065331098774 2.444337019687025 -1.2597996684898238 1.003716250963852 0.09702546288712968
Ni 3.39499609896408 8.764699365070014 0.6279013773405859 -0.03849969873709499 1.2541645816912335 3.020221147506469
P 5.854065923825708 5.505513815435333 9.312779282553313 -0.5301843546752869 1.5093859083272263 1.5017147649352138
Ni 1.0784738240441416 2.2529637499653603 12.719019712402343 1.3040707224930574 -0.4604521802864715 -1.555223021265999
P 1.9853756229059738 3.5502793486933863 0.7832584572135884 0.6376225282553084 -0.010463104314852947 -0.38303266455572743
P 8.742605694568887 2.7098339079262126 10.873742324420933 1.0542080890658165 0.6011221193364292 -0.26716641481301084
P 6.63514270029307 3.9919774121246427 0.38391490146732393 -1.1189448671225697 -0.7568630937868965 -1.559106158370489
Ni 2.148687900762256 1.4268782721471232 4.040040835670953 0.24915866538168055 -0.7484558435598077 -0.366558321049788
Ni 1.170770732432516 8.029886402396365 1.4653188593394135 0.2265465844091195 -0.6296608502060704 -2.3106396124143562
Ni 6.706730253374624 8.818706115183879 8.741503779674218 -1.2793683346503708 -1.2539735487263501 -0.859708762900229
Ni 6.667471074464101 6.315633524679239 13.360681182774334 0.3925765994904207 0.06306710366381396 0.18846957503173992
Ni 8.578804292010616 4.45013036883222 7.533403603712042 1.219660634377093 -1.1450410499889894 1.5164839528245881
Ni 2.476318392182683 3.7822444314192927 3.0791904279334164 1.5797492885421374 -1.257794465134337 0.8258565902374744
Ni 3.373308494253283 4.820923808011112 7.971726706699581 0.6879960956118538 -0.18814047382709534 -0.8295528081421392
Ni 0.8053982715545255 4.490017103964162 11.751928811768874 0.09677760854238171 -0.5534561807190339 0.6017389269848218
Ni 5.399779820894227 5.310270000430388 11.646937733048713 -0.9110855747103084 0.21723096343514844 -0.8696334782131087
Ni 0.3234037156938118 2.1407142452430525 8.053512971255985 -0.22502603399953505 -1.0951125405896622 1.117527932170385
Ni 6.223788825921005 1.9333622866719096 0.9314844680823218 0.35945539145641964 0.023221689532101943 0.6040074113040244
Ni 4.350542733753832 3.7058025463897053 9.740931360369885 1.0921837969786417 0.47880342910014956 -0.3190764734187408
Ni 0.48264518400203754 2.3673451000869 2.8787563538266197 -2.1207908976469025 2.0120941690694316 0.5958788686596188
Ni 1.7040920041909184 3.2573213385063484 9.81666632177358 -0.997617851375598 0.44180062662355524 -0.566443079897005
Ni 5.032687117668111 1.1448748095310284 9.697978828520952 -0.4603999868922974 -0.6400763891124396 2.216056697530448
Ni 0.3568173929771784 2.8855773362273647 5.762159392322127 1.3896784304615486 2.6461945431040945 -0.12377393462556747
Ni 5.360714446110906 2.8678027291324732 5.5968979986722625 0.7733004134073134 0.7225643205050265 -0.23707962272995944
Ni 7.453429869183381 3.1539499085635243 3.329074086534423 -0.41051775734987367 -0.8989877630055098 -0.5788921042936352
Ni 1.3740251180285128 5.504452507119699 8.930132413803973 -0.8271177163380852 -0.48122540827808097 -1.0436639950013833
Ni 8.424610036900832 -0.2281775963542853 7.192899903861364 1.2026155059693482 0.7945608654479864 1.5308589905993377
Ni 5.768875166768105 0.8599467503477628 4.186108237713365 2.2000405246078496 0.13312580815411268 -1.6959520956886662
Ni 0.08543531940859696 0.6285990721985163 10.959175798075938 0.9730820710177628 0.42202704354105386 -1.1174469424208044
Ni 3.055681987303709 6.842171651985542 9.171979661263634 0.5518721240613657 0.7192550536261355 -0.6511838118795108
Ni 7.514478169252285 8.722717699610687 5.2303387182343535 -0.46436025709162604 -2.048285274278008 -0.6714541320927726
Ni 7.393932002132101 1.4702811678726033 9.63865446230736 0.9597156770131859 -0.5321409641810254 0.30863008127443625
P 0.3931778158708248 6.634672033127005 11.535853821720009 -0.13910645121757978 0.5054593411247812 -0.45988576626004024
Ni 0.991354254482472 7.367288549025688 7.236068388880609 0.48499335996094545 0.7769500943447587 0.49732591338436927
P 4.179967415511423 2.4995933449829506 3.9334144192679172 -0.6274468732738872 1.3339268866225413 0.9900395248077077
Ni 8.798661231170327 7.663375111551858 9.598916310339606 1.3563232520398705 1.4583178860068173 -0.4225289228781368
P -0.0953811626412888 4.583901360442007 3.8389321386261317 -0.20070082699060918 -0.2734442774019227 0.058591584390963604
P 1.5307480555598973 3.8403764408121908 7.399532941408265 0.19514107351464458 0.38645120331897315 0.46510639122903125
P 2.737224891237551 6.66887384719433 2.0334196660395647 1.2452310266470297 -0.4878611684270437 -0.7380359337780643
Ni 4.005922080515287 1.1211937909404304 2.493057531512233 1.1143233091901583 -0.8397981400192313 -1.515397918849261
Ni 7.415324286268113 1.5650052422349947 12.297755986992637 0.89247798691145 0.44628051677177977 0.08009037769468788
Ni 5.498952161414322 7.725447804864547 5.028905168557267 -1.211695099673113 -1.629742846851445 0.46345034368284693
Ni 1.8580924551735007 1.3668082214821966 1.5084605809315677 0.3260505907437288 -0.925354940145129 -0.7896991664803109
Ni 7.835343973756535 7.907789802258559 1.6609438224611908 0.18083159887050793 -0.9933526483413408 -0.2863879820467842
Ni 3.888532152038122 8.68718694295683 8.190665383447067 -0.15950198415479624 1.8764134557039491 -0.838528272167872
Ni 1.9772266207954914 9.083027258384703 12.39467097086922 -1.8240285143443296 0.5043532525447959 1.0553314040369826
Ni 7.480700878511214 5.068919260687085 1.8179519289226025 1.366785327913459 1.3649955830028877 1.6047337264016168
Ni 8.95276319860049 6.297748172368803 0.0791837519911102 0.5424611151601109 -0.7897382472483625 0.3399731143620919
Ni 2.508342217010966 6.055797562707967 11.227577902469577 0.5557688880126107 0.03135048928682342 -1.3288569282988016
Ni 7.56129570912372 4.194124345565195 11.921660620619551 0.0886817189081247 0.5725304237416655 0.7301056231873942
Ni 4.973198479384794 7.691421337388501 10.13027739178287 0.6774977671836913 -0.8575107268076457 -0.6817292887665356
Ni 6.025536432560434 4.42526806794248 7.493867561762658 -0.2993890222921424 -0.10088623139411658 -0.5587919911096506
Ni 9.026067302522984 0.7376323512860526 0.42393176222753104 -0.6728438133514476 0.11449148088237703 1.936801469873703
Ni 3.1280170705901886 8.388424037721666 3.3166069438945014 -0.8440075501148885 0.9912091196357767 0.5334488843591716
Ni 6.201612096508219 8.890625903912067 11.724779622178142 0.47499588242860125 0.21613824459160194 -0.946773257919905
Ni 7.824574001544833 6.568880146325614 3.8757392338891408 -0.8609302940121559 -0.20176526369938158 0.03643433156763403
Ni 0.24935208156639277 9.189877933849216 2.985206500761581 -0.9024718648993683 1.5467548358939878 -0.16167816587050868
Ni 5.407264351711443 2.82741764053058 11.980012274689948 0.4905207175370778 0.062793281177137 0.48955218297622144
Ni 7.331600903316476 2.3705105674978797 7.169383157340491 -0.16248780625599757 -1.4072372652809184 0.19532079362561844
Ni 5.255045052945534 7.002678384381363 7.6054784357419924 0.5463496515812397 -1.31916412649107 -0.20281941599550876
Ni 3.247132778676255 2.406539677621689 11.165296639000944 -1.096311703104086 -1.1369371899349323 0.8302092107792154
Ni 5.993217287157366 8.76594524874489 0.4993215677094461 -0.21601586008112475 0.5362853253667023 0.005712477003745
Ni 7.619206228085529 3.986633955474621 5.498363366018344 -1.7766065734169403 0.4422950497614705 -1.0343440031520381
Ni 4.001289238998342 7.914877496053407 12.274929552315324 0.6711132038135862 -1.9008091109394938 -2.424621757760482
P 4.257525981464418 0.7365230533770153 11.905547191757828 0.3715164363860118 0.23865056676150512 0.38358416618382324
Ni 3.4959219053969632 4.289005308982941 12.618404915449782 -1.1572959560969425 0.03446203833261162 0.17168284249170432
P 0.6804472134860602 8.599181411670804 4.86811511298501 0.4955567372990885 -0.776112686045128 2.7270112574418452
Ni 7.670619694402061 6.502875997861094 7.752382887038562 -0.15373499976403202 1.0934978878043748 0.12970058452264757
P 6.642027361192753 5.900772718481599 5.871648572546989 -0.4471978863797266 0.8954514677174772 -0.5302206072298611
P 5.784850164110399 0.06257842979700937 6.6284186199559265 0.536944813327572 0.16278605422270676 0.8480223277012363
P 1.4396970308463983 9.350864562179066 8.381184992132242 -1.117198059634792 -1.1583724769905728 -0.18418431739282473
Ni 5.398238616644566 5.5870684379158915 2.987827470862801 1.0466454462272103 0.25462457359225826 0.917382977683246
