# total energy = -340890.8323782859 ev
CRYSTAL
PRIMVEC
9.06487690011515 0.00000000000000 0.00000000000000
0.00000000000000 9.06487690011515 0.00000000000000
0.00000000000000 0.00000000000000 13.26736363511682
PRIMCOORD
 96 1
Ni 6.52240563639033 1.9851718074381524 11.581665790080798 -0.7070525980226725 0.04050901585763991 -0.6344842397366428
Ni 4.3857325393500215 0.6886967795424012 6.304054504731088 -0.2841410949941365 -0.2438593646559542 -0.7093601631099268
Ni 2.7277574678772747 1.3560512126335778 4.568829457798484 -0.2712619250386232 1.51925457359119 1.1403742406409392
Ni 3.393318868294287 4.237331437688027 4.671558083092888 -0.13365622673628594 -0.5456971055989053 0.39840657590863643
Ni 4.923859898647718 4.4401399312121725 2.7190134875056935 1.1839176724495288 -0.14250493537616749 0.11304986333984403
Ni 7.266477936660407 5.885099457638484 2.527127264300559 -0.9064043671845552 0.8171351512040765 -0.25323592077484774
Ni 4.806542260280512 4.371990185790704 11.233516497375943 1.6520903613087097 0.6517057458212518 -0.09017244452103826
Ni 5.845422490930614 8.045703830006364 12.21826037598673 -1.437912068656956 -0.8675709392571253 0.5441485301648629
Ni 2.061489007052857 6.368565608517525 0.4611620209762044 -0.4349041566140381 0.1777403615396939 -0.1753340660910464
Ni 2.692939275251063 1.4841651195292445 0.5509605056921071 1.0964058054797892 -0.36021463821994737 -1.126247828541886
Ni 0.6070376479009779 9.125158450189119 4.695373327994629 0.7293085812073956 -0.5360410705663802 0.7888602155187833
Ni 8.802385374208505 2.30444584088981 1.5417869167819858 -1.6768156319695315 1.2640959818723327 -1.162294180642482
Ni 6.667624966218999 0.6812019392239028 4.820789527489734 0.5118426189433056 0.8500270168360908 -0.028428687654338137
Ni 0.6998075993033874 7.421396684898357 2.5645552350202587 0.7836038522158504 -0.35785102308377725 -0.4712245883116271
Ni 7.372618581664395 3.8008122848853083 3.7731988565130177 0.6764022201266673 -0.7605564834780837 0.6233423641872103
Ni 7.743671192642978 3.8344429786221594 12.677324784420964 -0.18536136842006143 0.14281295353488954 -0.06765420881386412
Ni 8.290401120230776 8.804080506210875 6.742554333162245 -0.15434563676483742 0.7396454443570294 0.43659131450847394
Ni 6.693505190105443 0.6319814699914617 0.2879983947640873 1.178039873512513 0.6266482886319917 0.9329060130195095
Ni 1.5985366728655936 6.419455828096685 9.472074919619525 -0.22859009720170953 0.9176861107459614 -0.3388865661661325
Ni 0.19273832164482793 5.0100850088431175 1.520386555117846 0.28924782009308253 -0.8757614454877175 -0.2704923938624503
Ni 6.461108937994483 1.6578209685634397 7.125582553169333 0.10220109355079819 0.44205876538094835 0.7043645096675483
Ni 3.4009605596204775 4.282175384296169 0.46683754047718623 0.2519172019634242 0.2673163101273138 -0.591306418797588
Ni 6.231513732882091 5.7633762890405205 4.782115136180056 -0.962595312553826 0.03310938095945911 0.32123877117738225
Ni 4.880674824533874 3.214704531531235 9.029237547535246 1.5188347124449517 -0.02115169437695067 0.9835140649843643
P 0.23849872731949112 5.441002067648701 12.534713419710378 0.3949700394232617 0.9938655834220174 -0.1375380782891954
P 4.267209272339419 5.995854125044643 12.504370556867963 -1.4318347521146242 1.1795969335869878 0.4660983228286553
P 2.40595433373759 8.403095671318791 1.3616823142371712 0.3381869689959466 -0.5876896479806073 0.8067242402833977
P 6.214199817777675 7.840257457269974 5.690080412935923 0.9832564404476034 0.06475323311698526 -0.5684750227253693
P 4.686441704668775 0.9767767581996506 12.556166357661223 -0.14755046821987491 -0.33097013953253324 0.411898182637168
P 4.232400144590224 6.379035541473337 8.175429472035834 -1.164443108664685 -0.3512759409694208 -0.24991302704920187
P 4.742517033902241 1.1821596767969136 3.7623853647182224 -0.17730661643638496 -1.1572627888661617 1.2815290897471154
P 0.03185397784131979 5.633549120388448 3.796973309468177 0.2840631905683495 -1.293349222310495 -0.6757653578736168
Ni 1.3089954360330396 1.0124833087736287 2.509906717429428 1.3179330822974464 -0.9310147095340675 0.8433532043603411
Ni 1.7487960743162816 6.360271246046037 4.935287082616633 0.8144753449837263 0.46050488790127786 -1.7925960068666609
Ni 5.990406133956814 5.796943528638247 9.400165969698683 0.5370903377665008 -0.21911686760395166 -0.6416522182399917
Ni 8.773640649184365 2.362832713762872 10.356769750582433 -1.2156070331330098 -0.7925777735796866 -0.4732220783576302
Ni 2.5889288763463094 5.153962736873119 6.864812329504271 -0.0456062278748892 0.8865438808152023 -0.8872607043765686
Ni 0.703374628409978 9.326036124908425 9.343262110705767 -0.3873418334540426 -0.6566959999469917 0.12913956981285502
Ni 1.6787698993520823 1.1271721328056086 11.710199400782399 -0.4660132193140168 -0.439274774877908 -2.8636067693121134
Ni 4.542201381558052 6.582052527168897 1.6279059679162744 -0.7505780321091332 0.6944652482759652 0.028430230316234904
Ni 5.683233711324212 7.940288375163817 7.733665381390488 -0.08745607403113971 1.0165761376456557 1.6728964994207833
Ni 5.376351364756187 3.015657961969567 5.31123110123414 -1.0512981145078732 -1.1040931468217179 -1.1930525448712612
Ni 1.0769436492487638 7.053398937474845 7.029288177582318 -1.0571409464418955 1.3621138905797188 0.8164815767804777
Ni 5.2739091895755505 4.80929798289399 7.069382128633018 -0.9991186042908407 0.3408678582622194 0.3402155693902012
Ni 8.255102489122608 7.380940138766937 9.107036854542395 0.15825062824619843 -0.16054019561132354 -0.0857588888343749
Ni 4.373123295417956 0.46244923351276307 10.438867622271527 0.5932830829079847 -1.13796408853755 0.5752169694348932
Ni 8.167327284957128 7.4338246312900615 4.389003146978123 -1.4404073242749837 0.03951117072074486 0.8791013084942281
Ni 7.45767432272447 6.612673681735766 6.940569319719262 0.7891165545039636 -2.4067507910173322 -0.17131980272533073
Ni 2.5078072919120546 5.0582920248249446 2.572210523661976 -0.45173948300382205 1.0849998776356926 0.5144854558827914
Ni 2.415263962435096 4.984395147374051 11.43888219270687 -0.5312277083381368 0.7221313467326661 0.21771021706441215
Ni 0.8113717602272562 3.382033096406853 3.5978705376689977 0.39631524059724643 0.23953219803551004 1.0932250937589625
Ni 3.6722179395076866 2.4358049737579273 2.4458914624158776 0.9986781743193124 0.26459016944540237 0.932017439766969
Ni 0.9738850624309024 3.442323593453699 8.236804128374034 -0.0879489545071582 -0.3460650861924427 -0.47053090467871217
Ni 3.541511477784866 3.0336064184652454 7.1575969793338725 0.29559973045303933 -1.258906210141277 -0.8447626831133581
Ni 4.070501441048401 7.218434088464905 5.87079508170405 0.15269138899086604 -0.7958163351216424 0.07259432642795885
Ni 0.8731670268590936 7.541542564895185 11.604604461374896 0.5901129127101191 -1.5737107956575414 0.3941665696853599
P 0.14619017815729887 5.48741423798096 8.051989415730658 -0.7078460404582454 -0.014995444967567724 1.282629779010462
P 8.643042965985762 1.6322761451266616 8.107791892165883 -0.9537782284828283 -0.5676440421836417 -0.31970510814167524
P 1.720350490233737 3.122705094675357 10.350679966201726 0.6101965708338717 1.2043702838769257 0.8415554890299699
P 4.046053467730802 6.182064828748795 3.8455855254527087 -0.08814075880299013 0.22594160383526896 -0.15250292712914382
P 6.716375874821907 3.7255556758817123 10.267029281079445 0.30315157465836823 0.8908224535858981 0.9118345370611909
P 6.408641429814188 7.849313269410976 10.208758438632213 -0.33739326945005765 0.0708824859431747 -1.0604396717978253
P 2.2601004625176593 8.48355551973073 5.998294389937895 0.8909055002180076 0.6321021126577113 -1.2989184888681564
P 6.7926930744366105 3.8902916859301766 1.5505571852969195 0.31409830347785905 -0.2264727937483906 -0.44748816392663576
Ni 5.099482825994824 2.7071620672923347 0.49863531608099426 0.959685852216515 0.164014270202853 -0.4657836198017139
Ni 1.6963285661359857 1.1531792649703059 7.156867256733921 -0.7594236554252212 1.0831070314883542 -0.9458710578206098
Ni 6.786900618022097 0.7666909814054392 9.431025530531125 0.41449011173406036 -0.07108817419607756 -0.5307975627792537
Ni 2.812931052338584 1.731663456752225 9.264441192058687 -0.1303320474590594 -0.3736805339168661 -0.7449275186915751
Ni 6.303416337389019 1.8139362805677681 2.4733680111451957 0.8219343723649328 0.6842011473457958 0.12705080560462637
Ni 4.021723337814438 6.932047428834622 10.398853442138586 0.3839891149317258 -0.5047836552139953 -0.33639233898936904
Ni 8.262934542866178 7.20450137248821 0.3784187300434261 0.6366979595585098 -0.08925944578846563 -0.4339785594759752
Ni 7.492909499693511 3.93141903296093 8.25149104211863 0.7290643264070735 -0.13786717949384 -0.10939786840955353
Ni 3.1999015873608094 8.107970470243137 12.45364985048904 0.6731819134171567 0.849177267241286 0.15590218261867989
Ni 0.08265082918719448 4.7000390201958036 10.383808465751782 -0.7297711226661109 0.7620276687069715 -0.10894586847379947
Ni 8.351743143011712 2.117047638296297 5.9557465766784174 1.7853755778588218 1.7191449888653618 -1.2535061221716284
Ni 3.428146125797517 2.6559183175094714 11.62497052057128 0.5634793692829908 -0.4003346461692847 0.5343066043737765
Ni 1.122585305034491 3.2967869929293996 12.804240314574848 0.0468472993708419 0.4372078650465503 0.08432678437353863
Ni 3.1237384906554113 8.434369497030959 8.088872587341575 0.469640788764275 -0.6476567725628588 0.7993814267650814
Ni 5.539464761818427 8.056264411732355 3.559567806317059 -0.318422898995142 -0.9052283445985829 -0.25548512182034067
Ni 2.896998721803695 8.218879240558604 3.7174625536800243 0.5520760125420556 -0.4416641010456909 -0.6907055241232168
Ni 3.029617872577317 4.700809534742335 8.973036216511227 1.0039386513873032 -0.9097344599990526 1.8512662670143603
Ni 7.46330361135266 6.37686903586603 11.322912501552246 0.9121317565866355 -1.4630068068420545 0.975009884168095
Ni 0.7559654189177186 0.15708344086985265 0.21318777770977768 -2.0239464404223275 -1.4426619246371155 1.2006169874820807
Ni 4.500502947275163 0.05304584733404528 1.5886342012111094 0.05409472496187458 0.31080574876951633 -0.4704092914991835
Ni 6.164923146307721 5.652041469505208 0.12613232477952763 0.7257951687374985 -0.3506514200115445 0.14947339627420064
Ni 8.154699911271027 8.838137249167573 11.342163580875413 -0.906354487783226 1.4187743193862405 0.23063695242840923
Ni 9.385320420606272 4.701235583962182 5.926690926372559 -1.4714490240721367 -0.5980879604957958 -0.0295705145682652
Ni 7.951420044141944 9.005257321871778 2.335096003063137 0.6032101122137096 -0.0003026188420833498 0.28889197941556055
P 8.538941918310828 1.5185572629356094 3.7214157465475823 -1.2436485126512582 1.5388579496444141 -0.457415964563309
P 1.9120091850257188 3.1665428399344986 1.671037559255712 -2.292079075803349 0.46318680560881514 -0.43417447753686517
P 4.822151978505541 1.166323336646434 8.39447316029925 -0.555469868714953 -0.37939378225155945 -0.4005447052975618
P 8.598416576426054 1.709137237362447 12.468376649692514 -0.5977097512207706 -0.5913557839782848 0.9572031950039772
P 6.499235810732272 7.746064320175735 1.429810303953797 -1.7570924146434126 -0.37398392408989783 -0.12110178711004306
P 1.8310688981318246 3.138215099253188 5.87302413496278 -0.17194123835941355 -0.5993262037782711 -0.2567364777289385
P 6.969140905592357 4.018595955243222 6.150644152028937 1.6387062266923196 0.1332445931201641 -1.3543039076169965
P 2.3732845169646484 8.345316145205937 10.243718043339905 0.20993005889836105 0.9157966070327326 0.8015118428445228
