# total energy = -340897.00060022174 ev
CRYSTAL
PRIMVEC
9.00984645666774 0.00000000000000 0.00000000000000
0.00000000000000 9.00984645666774 0.00000000000000
0.00000000000000 0.00000000000000 13.18682101857796
PRIMCOORD
 96 1
Ni 6.456347735115186 1.8477663072234358 11.274836957993202 -0.13492043816069021 0.9365526086331614 0.6060758637972787
Ni 4.51932088067105 0.24437586296320368 5.9091986904433496 0.5320298925244579 -0.20866918990806643 -0.7155295251454322
Ni 2.726190281365886 1.5574870793687396 4.70700949371516 -0.4474112879421133 -0.12640263049766617 1.1632102646988483
Ni 3.4908469263717903 4.349088844818837 4.891374374461932 0.2081773378733124 -0.42556848103540906 -0.4973557381810402
Ni 5.223404329051865 4.537484730796914 2.8357464083452752 -0.2620154667396907 -0.9172567365180267 -1.250933990569078
Ni 7.1868660725184625 6.052967906749594 2.5950078203303906 0.016123645034739974 -0.07271748226938445 -0.44651885803483105
Ni 4.81611422739529 4.55791906218851 11.381664002530565 0.7914480308506177 0.12565546791899648 -0.5200729772728979
Ni 5.594303661532665 7.862370288459179 12.469827287533612 0.10337454503360906 -0.5057647881803419 -0.3297367813460644
Ni 1.7558298356538375 6.581719746276589 0.37979475372547533 0.6038490313492891 -0.09507939490435238 0.03945846310593849
Ni 2.8538778230244857 1.486624638277512 0.4925818115853878 -0.35073600930555077 0.413467584006817 0.04144541162898024
Ni 0.4951739443637662 9.191574892312541 4.85154995286405 -0.4035140723385308 -0.8478739750488301 -0.27516588807871967
Ni 8.619764997353254 2.327027061065228 1.2237128185365607 -0.07362045369962805 0.1551287947877651 0.4636868851736853
Ni 6.927121213749357 0.6300873827490235 4.909585075788517 -0.8253724515122043 -0.5758692583069115 -0.8095390840243736
Ni 0.762260926876704 7.246015713429322 2.6023400332433013 0.028684255308569953 0.8968198088199135 -0.4706322061432669
Ni 7.340601079808942 3.8912805349997037 3.8292684659216873 2.1495317172250203 -0.5957544272666128 -0.28901642080856677
Ni 7.5309611122788045 3.850384842677633 12.516271243202661 0.31538668327197944 -0.26207434500208415 -0.47262712508610855
Ni 7.721104908437645 8.672310420931645 7.080320135185428 0.916565366877957 0.2107823795963273 0.07590642152032734
Ni 6.9391763880888435 0.5852093383656279 0.34018656843861617 -0.3476766536539367 0.7307540554046705 -0.10813314276451699
Ni 1.7524961925255789 6.740202942563264 9.084756857621471 0.9602391536168237 -0.8792226645634407 -0.26835606424573777
Ni 0.0820274426170068 4.875380996307953 1.2671069412355667 -0.5616847392764134 -0.16345711214780234 0.22503066198522534
Ni 6.272772116903644 1.8250254551809364 6.9122153240428945 0.604746603462894 0.6721349602098812 0.7279901195062881
Ni 3.4314900589962005 4.304336938283537 0.41027776668719845 0.25516373392517994 -0.4398051934600813 -0.07203228327690175
Ni 5.982808233669188 5.496438711102543 4.904429641739896 -0.3800828378987841 1.1421267045556716 -0.3544720793092153
Ni 5.163209545971065 2.8940166882579783 9.214568020051232 0.3226955582285668 -0.4504814422270048 -0.2293570572747211
P 0.17552802350299895 5.719765771156995 12.36470130197629 -0.5545455571284708 -0.2776621721380121 -0.3510537976562857
P 3.9841990798151947 6.1750152846290325 12.640081848001559 -0.910715078744767 0.600939828122294 -0.6804136552789055
P 2.077823722458454 8.54363179618086 1.3872271129930187 1.6789396202910698 -0.22010854209325964 0.21589527534286043
P 6.3301107787096935 7.637322347762841 5.732996730437665 -0.9767803458049564 -0.22975943491946235 0.29687371206945645
P 4.797770180343575 0.9644589963904016 12.59565519691742 0.5744518091340945 0.41922582664683283 -0.05017250708933295
P 3.936041451381296 6.16711364943043 8.060285978030008 -0.33081227379843026 0.23186285441571036 0.29249126673104464
P 4.666559788784572 1.0025255969765983 3.7716550038037147 0.20356940678765587 0.1870698664707359 -0.23449129317749293
P 0.11994447975474669 5.466201666944607 3.466960021880873 0.214530790895166 -0.9744398705972378 1.1151555752834665
Ni 1.3639826105427633 1.1957777901063824 2.659913852037587 -0.09294049418447864 -0.24107588837354613 -0.7726272985996887
Ni 1.7506581838818904 6.480494123179329 4.723057831931523 0.7655405669562364 0.10164264994416689 -0.5307762226230149
Ni 5.893313430444882 5.522080733651257 9.158128540905183 0.18747044434326424 0.02332813320297918 0.6987440781569773
Ni 8.732847578171564 2.285770974891454 10.214076219504442 -0.08307054336893435 0.927652220819738 -0.9997168999964717
Ni 2.3085839057042943 5.037666347730102 6.773015000791623 -0.3179703848387556 1.2778886647810508 1.9471856413215045
Ni 0.6631039644882232 -0.07405643160195156 9.111051193041767 -0.13046265949965274 0.7290054481446799 0.1279316655476829
Ni 1.4912376795793183 1.0958585947215485 11.426446542543259 0.5958534147383222 0.42778657173265033 -0.2611101813166019
Ni 3.9995698775903548 7.013840984315546 1.5525370698155905 -0.03548816560428082 -0.7555451463064213 -0.17357774552157204
Ni 5.7176754868171145 7.639556789643403 8.131297081585062 -0.9039854733304173 1.0414237928169547 -0.6713338044648244
Ni 5.429396444839373 2.8089006703318717 4.756829438790041 -1.2576394276137115 -0.21285083208958183 0.3408035806831873
Ni 0.7990012780886314 7.353088726770473 6.77803889108437 -0.5742862300905078 -0.16140820003857362 0.7015751198478691
Ni 5.134801500610526 4.571893333788319 7.086030575765672 -0.3622283262158665 -0.3490984737021278 -0.400413064815704
Ni 8.13830584101607 7.099668780098766 9.131530573664827 -0.2900533467135134 -0.2587056856401673 0.0217715873491367
Ni 4.808618035279855 0.4682074744100414 10.23381679273151 -1.925580404346903 -0.9624539018799554 0.40984849919699096
Ni 8.13093578674873 7.156124476968142 4.645954270313417 0.22360987037829877 0.03275919670889197 0.06670315775450447
Ni 7.2181482588463375 5.993466881833324 6.929555674217616 0.8228813096592343 -0.1802415306949928 0.7341895634487807
Ni 2.2035741471641463 5.04019811453832 2.550977602483128 0.9435048715812783 1.1199481115761036 0.10320433800433193
Ni 2.3397399541840738 5.2884554192843725 11.349830413609585 -0.044426605744491234 0.15951561100155107 0.68189435358949
Ni 1.0131482057555632 3.333886394108563 3.7343362204598027 -0.904978690481622 0.08305460252933439 0.5333635237342168
Ni 3.5329949873285305 2.8257490828990166 2.9062700792159024 0.5220455276182364 -0.22110947255394822 -1.194141921280698
Ni 1.1909665321861387 3.400892620986562 8.455482163008037 -0.27359520115749014 0.21695662672783925 -0.9542227722194146
Ni 3.552663481785257 2.836182484905837 7.0634149605866385 0.22675355821360305 -0.6121935466592425 -0.35942608088038097
Ni 3.999840172979132 6.726003424806141 5.780364195351704 0.3423375008292104 0.7018342870465267 0.3078096422556699
Ni 1.0521878697413598 7.518419406239517 11.307223751476549 -0.5322942019294381 -0.3579368979293642 0.5428804620857166
P 0.276741032815449 5.478229811745216 7.978963105393081 -0.15270553005825313 0.33163656947193854 0.03318420006145253
P 8.619981233664276 1.577182603364344 8.01821990667453 -0.3434495029464666 -0.1279010694200636 0.28706546772978303
P 1.9362880470481423 3.259933575738976 10.54274460044261 -1.1099853439364367 0.15077180337065 0.07704053512477055
P 3.9847757099779204 6.047661107283259 3.6110788202232706 -1.1517757976096616 0.8654376949642064 0.37768528420088504
P 6.741446301351641 3.923878158886298 10.329329272294638 0.8052206591546778 0.06239270330460867 0.6793800718080687
P 6.3118928695060745 7.831223249825691 10.25581253048561 0.1711411110556214 -0.9315471849987699 0.03153843692791342
P 2.292924792847771 8.500762947520712 5.7169348774518625 1.2541044178772596 -0.4176461408645388 -0.4358580358868752
P 6.987469164217131 3.9133096091850885 1.5643922255673814 0.02908946116678861 0.1618126345658439 0.06007665357692234
Ni 5.485888181093919 2.7582653341675103 0.48689659857476286 -0.969141598312776 0.11250890323470947 -0.29149085049098833
Ni 1.6396118283257066 1.1213924991147513 7.1187597434081376 -0.6625786839800137 0.6818758416467289 -0.738894682233934
Ni 6.896145362195429 0.7232591042453362 9.186902386025203 0.46638911459619675 0.1764165005219478 -0.9481788800181798
Ni 2.807837508469346 1.8076905109139914 9.139086230765795 0.43070528804134206 -1.8746203683592684 0.8619013996761736
Ni 6.447418977439228 1.8431893053067998 2.6484542285380406 0.3174335384986791 0.3557604591033357 -0.30205448493944753
Ni 4.054638058130671 6.917390579753358 10.397320275372417 0.3587899899582789 0.379786646814604 -0.19136463719134783
Ni 7.901815395528142 7.249151139939143 0.2796304905214829 0.9584270401087495 -0.5444804595829849 0.01867829313579364
Ni 7.7936882301707575 3.799974752670587 8.300312788187778 -0.9335475032582504 -0.3896501698722451 -0.6199989016362741
Ni 3.280070582202917 8.407087575616645 12.560605092869984 -1.1150910405941183 -0.7817459730715054 -0.565235432742149
Ni 0.12760284910344902 4.916691141559483 10.311329401371298 -0.4902193842465751 -0.2624137306193739 -0.2174821602140061
Ni 8.625288033130612 2.1894106687921933 5.882337635691248 0.13158468891923789 1.303498394929355 0.16247263674734597
Ni 3.694983013823024 2.5211712289779786 11.471030865937518 0.4313912583647732 -0.2810573138624901 0.23077810599196386
Ni 0.9581250744467101 3.5015956729988513 12.614961495553185 0.8534720379618979 -0.44116222170860797 -0.82927050101503
Ni 3.2433554585606084 8.373075405862112 7.74334030810313 -0.5620521499181611 -1.0165982491328427 1.2276989313005373
Ni 5.4152329664674195 7.8257182337409175 3.5445384023985986 0.5441125347206048 -0.0473607486721507 1.1264661152002793
Ni 2.9815022957590367 8.378841707489372 3.4161778252219426 -0.004739571567514417 -0.2028546401088184 0.6636436349094184
Ni 3.333814315338222 4.425969863233515 9.271838207025457 0.288597073882961 0.5605807075789571 -0.6645952001894102
Ni 7.062458114910366 6.0942870618474165 11.482925665012996 0.3777297642855753 -0.38828208588012486 -1.1381468939723172
Ni 0.46072119312552756 0.12261049327272436 0.19832293462325415 -0.2453099810595517 -0.5572940664078854 0.3562137445906704
Ni 4.7775791148018785 0.35127138233239086 1.6451087355488163 -0.47282921379458565 0.19415711233482047 -0.2866510059001837
Ni 5.8193245726901255 5.340820645936911 0.2840363053585599 0.1854528996926032 0.9081200643240811 1.2713089546810041
Ni 8.02477276788313 8.75474150466256 11.284450463987397 -0.2528937069440806 -0.3161554431172039 -0.0792480842990506
Ni 0.12728930645246686 4.975255142461324 5.692249700579422 -0.7742627773205826 -1.2665534422738898 0.0011809076819786115
Ni 7.9472250208428 8.69910570380581 2.3999356382495036 -0.006547057089898402 0.7446040739138854 0.7722251780652637
P 8.399258019188382 1.633701369157767 3.6214041040745797 0.2627811412611216 0.2768702723643361 -0.5879135910659552
P 1.9023839954491226 3.1597260652727788 1.469235634932811 -1.3025491436422083 -0.0407445289072137 0.4265758392540009
P 4.652324231642279 0.9771268402777845 8.035613414942375 0.5550026992705474 0.9583208535481882 0.3353340729281838
P 8.456083119755753 1.67238063929186 12.214781063606093 -0.19881260882896085 0.314418148711123 1.5968504669987982
P 6.209180621770536 7.666000688512158 1.4976400763548334 0.04996399062295266 -0.029249383783420593 -0.31691828942515743
P 1.6937249651590078 3.188341337098048 5.896038908948391 0.23901360652787865 -0.5528391159603253 -0.2229418977769967
P 6.912678430142334 3.794415677508058 6.0373484372167585 0.6272440132344617 0.6658426994432661 0.6110992851537992
P 2.556886259681809 8.617314319161668 10.21474835403787 0.5902286123523771 0.280615084118749 -0.5103241254162502
