# total energy = -340894.53749078943 ev
CRYSTAL
PRIMVEC
9.03556474262528 0.00000000000000 0.00000000000000

0.00000000000000 9.03556474262528 0.00000000000000

0.00000000000000 0.00000000000000 13.22446232971798

PRIMCOORD
 96 1
Ni 6.272995099458884 2.0590787277823845 11.426371674969555 -0.34160627909014074 -0.5088272291557495 0.057950351262538904
Ni 4.673447128008861 0.11532181753402733 5.926344751042378 -0.7784354206410335 -0.24311503029076192 -0.11565670483507179
Ni 2.720581464851253 1.429887170560237 4.718315935862006 0.4337052512099305 -0.26349436527806236 1.1622224468642823
Ni 3.6671110946116223 4.471122760243824 5.108874611589792 -1.0913245343021398 -0.006112026435008829 -0.7225918313088523
Ni 5.185619085064655 4.559608046664108 3.075784878939713 -0.2278946137965817 -0.5561414408606808 -1.7651605363635279
Ni 7.123567030681173 5.9361221357493505 2.619131046450527 0.3592687293669103 0.640471053447697 -0.5473960905678831
Ni 5.070262028827774 4.49969321624923 11.514169354905967 -0.22945964429085644 -0.07825306737563298 0.11404719425610681
Ni 5.54840604871837 8.040884679332915 12.497527043373621 0.1285181341787722 -0.5963920608506117 0.33017489732474753
Ni 1.9173016799706128 6.493146636641588 0.32571946247832717 0.3762313253631779 0.143753720181604 -0.42832701761715264
Ni 2.667127063292752 1.7037912829409676 0.47871868181404376 0.4848447501982231 -0.5814449526224761 -0.12501860566594597
Ni 0.6791392560685369 0.09016319080997552 4.4990417520246915 -0.0015110373278877202 -0.9603443117361202 1.3277798931845393
Ni 8.610640291076392 2.558338862690258 1.3349830188818121 -0.06953265678349961 -0.26872116089464043 0.35609315985240614
Ni 6.741624669579179 0.5350274183036353 4.8079785563801725 0.9728311313492213 0.4870494711590257 -0.2728647507493688
Ni 0.7806014207035471 7.420846149287706 2.416585307347055 0.8366421108887526 -0.250219245435711 -0.14642946724155428
Ni 7.652951738745916 3.864764075357432 3.760653586669549 0.099099571807339 -0.5493226181666345 0.2911661201617179
Ni 7.620992945927725 3.888301721750248 12.500079590439253 0.1555823373854159 -0.7670099524129113 0.20332360932543692
Ni 7.876690395167756 8.590102452208495 7.298911201851604 -0.4088550249354701 0.40676266118281557 -0.4746912067039889
Ni 6.709964050400512 0.9322353661928322 0.40786901083694455 0.924003568323557 -0.43317817506186684 -0.5071956070895975
Ni 1.6746064085268435 6.639730604945099 9.325441114432131 0.8494721727738854 -0.13041432276022055 -0.6202475273119704
Ni -0.007067618813228462 5.073532903297716 1.146067429330571 -0.2518418686407985 -0.7791023648010711 0.34823843969467766
Ni 6.323937613993507 1.9623349351037382 6.913391660631791 0.9350328295545253 -0.4118200211010649 0.24991919769678894
Ni 3.513678168163869 4.459340383700165 0.9450938785082316 -0.6601482201616501 1.2903855116964809 -0.7209026165318874
Ni 6.073182618717725 5.563513513120975 4.904410622072042 1.0123854966030759 0.3404965909657297 0.8111293113296288
Ni 5.247286815057347 2.633171410646226 9.027944238713097 0.5463262545424721 -0.0020861931050673746 0.7844960250128167
P 0.3065505116827964 5.628714148963799 12.227721463201634 0.2628801287328311 -0.3632032885346261 -0.4681181814721616
P 4.041147336483784 6.0481992819514545 12.668440173549412 -0.22674070269779661 0.6234881457364553 -0.10909859200157984
P 2.446659281340854 8.51150207371671 1.2187594519773421 0.16324936701237044 0.022005300626497585 1.2200036195388084
P 6.426030461053936 7.571631655239068 5.867601833386481 -0.4446434953889891 0.4512861975164873 -0.041485006617664036
P 4.606520699282725 1.057829717386741 12.734363654578962 0.31497504965585754 0.018142732347297786 -1.498780107786922
P 4.049984118891529 6.074528917878005 8.371732728411075 -0.962990748220032 -0.1612361932370836 -0.03880386024107511
P 4.772494989720201 1.1002607298476474 3.708536448706494 -0.6016772205089509 -0.8763345443823682 0.38986331432431565
P 0.07970542807099493 5.650878389501831 3.420996765434632 0.06727908486263252 -0.8723382787387816 1.0940046522374642
Ni 1.4137315806368764 1.1238525896294673 2.582115951551177 0.5308646685717632 0.8520209073376681 -0.918355111788528
Ni 1.7942282513654162 6.141816769197504 4.832072793566767 1.7596833152990405 1.6967781911343875 -1.7378657052033166
Ni 5.972146932742884 5.7207504123638815 9.461176983595829 -0.03163922417183583 -0.6554140479107745 -0.5250488332209344
Ni 8.454415375094904 2.4881415594941805 10.146799257432827 0.9657513416843045 -0.8395418010340508 0.9110241253447535
Ni 2.3444128296782445 5.279588959339234 7.0733943462704145 -0.07156485672217998 -0.1522087929274927 0.8911736662777298
Ni 0.4203778467932645 9.06691824406848 9.213720873040975 0.11609147837964523 0.33022580516734096 -0.5294611033560173
Ni 1.310726141528203 1.2442695621734403 11.271129828442017 0.39391100203112805 -0.16521214716569613 0.3824683074118252
Ni 4.075084918000642 6.889247727838608 1.6080016459088016 0.3222065344072903 -0.42149379674540305 -0.7025202573699578
Ni 5.622353111320597 7.6376454919169605 8.056779141432571 -0.4073840968168984 1.5907569525065508 0.06140539969067489
Ni 5.258138528423094 2.863334353665107 4.871032342018414 1.2652056699967436 -0.4767758571471595 -0.00608451563118307
Ni 0.6305125568008922 7.322719915189442 6.516287621738187 -0.3660592699261825 -0.09983182198767322 0.9209982058383299
Ni 5.14217608934233 4.618745818503254 7.109986576735529 0.7110537487622658 -0.4348144251137092 0.4802846416313664
Ni 8.185254934252072 7.0372502798210705 9.415208547502374 -0.48171057544461554 0.16214404976333366 -0.32047078266310614
Ni 4.499503469387713 0.38649357510892796 10.345880760978908 0.5523665471992809 0.19609032480179134 0.14275356105186382
Ni 8.106528057852609 7.4239092057664635 4.482682861892564 -0.22685203146468028 -0.896910568761507 -0.11646891632372199
Ni 7.183129474067521 5.950958533206933 7.221614655365379 1.1125618464143614 0.14622249343707078 -0.6680929289300236
Ni 2.0841343490673276 5.2813780011763845 2.5402080982941646 0.08514722339230496 -0.033773239795703125 0.7393677652156105
Ni 2.383166367251674 5.202407164526401 11.299602700347215 0.037760249467909165 -0.004752169973004719 0.2911131554365954
Ni 1.1023027675001527 3.3048301225886165 3.8971168188023895 0.2520763532491078 -0.024194852078648653 -0.8042986615610407
Ni 3.50458838994077 2.8656203515681327 3.035318198273739 -0.3367103844504201 0.11546850008366566 -1.1220304480264287
Ni 1.050122380583259 3.257998790053506 8.076073686579296 0.2506887288729618 0.17385053956698446 -0.34386396477606584
Ni 3.8820581464498884 2.7070371531649458 6.93486829468595 -1.34568531271005 -0.8988255263960326 0.09999174460430522
Ni 4.233866898830179 6.609940347687089 6.03433511127002 -0.4339775310347107 1.418149798428364 -0.22235234382211386
Ni 0.8786969338813739 7.69460569263109 11.435761433945148 0.13559586696116002 -1.651183276113408 0.4226320241149044
P 0.22311700956125421 5.643396941819202 7.911561350531975 0.31203936406630134 -0.2775629275559865 0.5054287449971618
P 8.497894513076565 1.6413013165483723 7.873237002288166 -0.13483816285952907 -1.0387282482626627 0.9842396302964792
P 1.7633989041514868 3.1193570832391653 10.226490228600086 -0.25999817919934576 0.8286284965556567 0.3793469881740241
P 3.8438106005071675 6.235533647656729 3.689862646863871 0.15224273148922168 -0.6537268900163385 0.46371465308782717
P 6.739600703056341 3.8698059205348567 10.281384899193142 0.2639589636193067 0.31645909040055176 0.7412711528859104
P 6.246520894494988 7.91280554780963 10.30169775249667 0.8336717154065192 -0.3975681391677411 0.29797594399469973
P 2.3476837041481864 8.18418873760165 5.6110469090436945 1.2296110607215855 1.0465544291753008 0.48606345309667254
P 6.6885768684382105 3.849999962418522 1.4094234233239804 0.8789907510582925 -0.41799066868815116 1.2230218375398423
Ni 4.920325865970816 2.942314225879924 0.4668224571534754 2.0177104868149445 -1.1772808838593014 -0.04356734306798949
Ni 1.5907111890422792 0.9273832678769236 7.041616264748905 -0.6389178500279642 0.016861294531712895 -1.1375938496823246
Ni 6.955379026859344 0.7858429518638052 9.280187391517055 -0.9874866764788672 -0.5496877148155372 -0.36224246728325354
Ni 2.644393582170171 1.4259657354222401 9.08404154298557 0.23936944720540068 0.31709852375676356 0.16303262301587407
Ni 6.454799699485693 1.8554080608570678 2.5798814563677053 0.3762138418616811 1.002544599253254 0.40291474819163514
Ni 4.178352388489505 6.967893284154565 10.578379397507403 -0.5588207874650569 -0.2637162514808813 -0.30956416305293133
Ni 8.304506318932447 7.240523381893688 0.1582732785293774 -0.34409459272963316 0.5875117276418463 0.5510324017688897
Ni 7.657984548358507 3.7607014751631693 8.337018088318484 -0.5246266580818514 0.31919243017131477 -1.3558959346944648
Ni 2.960656422493135 8.497307201362348 12.325807037258143 1.1517302890837067 0.20619810265975458 0.11517745120580809
Ni 0.20954197695451113 4.78626519052736 10.005562536398134 -0.09107053085527542 0.13168701882505707 0.7925518054377576
Ni 8.815828932893837 2.2694447482497653 5.817018030775771 -0.14664132614204423 0.17880428402783397 0.06786426794214119
Ni 3.4426315218733863 2.7532631028561716 11.594877730673545 0.3625864808862336 -0.4433021508697462 -0.32393637261420344
Ni 1.0870055562360312 3.4208377394935514 12.565685923143125 -0.10696329082613192 0.15156576002685512 0.04244531364840432
Ni 3.055909346974156 8.077343183438485 7.8287232921330006 0.18878376383804904 0.2633853505040238 0.0888418986350728
Ni 5.670377138413807 7.748638370338973 3.3886629966758255 -0.389252163102878 0.17111822823748596 1.0202319892306881
Ni 3.1056591669506783 8.38990144217947 3.3558530536502627 -0.053881580509803975 -0.12471161594848844 1.0648362582036244
Ni 3.518367626312764 4.080135798742901 9.275558471652548 -0.5731464600591097 1.0915109392813331 -0.1897042187697894
Ni 7.289423858775805 6.0067441104926305 11.515094596744976 -0.11328537638941778 0.8810862001347407 -0.7845875562853584
Ni 0.6516015651236681 0.2272887298451555 0.3834314221866535 -0.8632995655752809 -0.061999067410615796 -0.8304812334936794
Ni 4.662685770291454 0.24368828001903642 1.6153547885707875 -0.1642785796078332 0.3489724896472248 -0.3155052111277147
Ni 6.126835802702576 5.601128569525309 0.41861410453764936 -0.9931567302804507 1.1743598535577646 -0.39610466724833715
Ni 8.072111591399546 8.908886215120171 11.354510020731038 -1.9097354668948465 0.6226972744040438 0.3639545648783538
Ni 9.369971088603998 4.737003291051879 5.671337618955671 -2.195784834655289 -0.44353252171299745 1.3784699633402389
Ni 8.24847678139623 8.980465959735866 2.402488019092901 -1.580832237193671 0.9943198973506165 -0.037229830885735886
P 8.505231391721848 1.6936624147619481 3.7065124821836566 -0.9450133378060047 0.44095550501444053 -0.7419375828253157
P 1.7272656803799442 3.2679921247600143 1.6042591149545198 -0.23034976020529363 0.3885237695772857 0.3365802866304591
P 4.47934512424285 0.8659134167540975 7.993803965208384 0.9100828444774067 -0.41131222822671104 0.15524526576097136
P 8.526898676194007 1.7555831405699953 12.414860660706491 -1.015035018410781 0.06427706481151511 0.05911608943586593
P 6.629628843460581 7.868693920289583 1.432474052772238 -0.9104016612694062 -0.3283396438882216 -0.7276471343445727
P 1.966644899529601 3.167245576859864 5.979268764945117 0.08046293054275819 -0.032637840639679276 -0.092411361153886
P 7.175367923875035 3.8995238932741922 6.125068446221028 -1.2579261056161948 0.4435104102258104 -1.0915651895580363
P 2.371049674809154 8.55744792089808 10.157167568079949 0.5763351421997365 -0.05723069948769499 -0.40732778965766625
