# total energy = -340860.85113854083 ev
CRYSTAL
PRIMVEC
9.38440348790876 0.00000000000000 0.00000000000000
0.00000000000000 9.38440348790876 0.00000000000000
0.00000000000000 0.00000000000000 13.73502309459587
PRIMCOORD
 96 1
Ni 7.386107161186067 9.352242862626683 7.528206733069089 -0.06215230515902844 -1.7368534618887184 2.051628222608312
Ni 2.605457554691011 2.2837320593590773 3.202993475757393 -0.6170817279894791 0.15747492642243846 -1.394302045276489
Ni 4.210218657227152 5.813665943313554 8.169701075663163 -2.234481479894539 -0.6654369793644153 2.087242886488128
Ni 0.3108705561361087 9.364592737254249 9.121016798114194 0.5223903125521648 -0.1919202525845017 -1.191237860260026
Ni 7.584333910242346 7.023784737557137 5.306045743186803 -0.015318118414309101 0.6922497286818852 0.6189282942799147
Ni 3.8854995372704524 3.8336507095217454 1.732961434821226 -1.8949613939094654 1.2590237095557477 -1.0275210666929337
Ni 7.814814853139767 6.501749155655764 8.375671834250344 -0.7368131171145569 2.068796763967798 0.19267384292107465
Ni 1.5059996431284688 3.518691368905978 10.464755417498043 -0.4586431521021908 -1.1013976022674257 -0.5421806078052147
Ni 1.631534804901221 7.072424099407191 9.328443077639625 -0.6179301920327035 -0.0010672649222497749 -0.9925046985187487
Ni -0.01368245988373125 7.5291630037564365 6.881699242278933 1.3269296293691017 0.8688464635354393 0.27725130985283863
Ni 6.939052960952055 5.070177214405123 4.209619932302199 -1.5455906403825574 -0.03211153582256405 -0.8453738343347958
Ni 3.8450339906184294 3.2780471173294896 9.184458179151223 -1.3016991369370872 0.22638897578533268 -0.6466751253758798
Ni 8.288089075949324 3.08571377349062 10.97589007662785 1.1893959219552805 0.7549550781309062 2.2780768479869864
Ni 4.711683627286866 7.391615805871767 11.162287785434856 -1.9478664694386132 -0.45104837047406837 -0.7586417829538741
Ni 3.8465636483420567 3.9814269069079704 6.767987490113528 -0.7707380519967758 -1.1605124061517111 0.684103445425667
Ni 7.448644824193739 2.9438966721442914 1.1650652128610008 -0.3952975979660095 0.07157591246577351 -1.0189955457204256
Ni 8.423872006030058 0.44663753273137974 11.050581480235948 -2.0229174849371807 -1.2455791540150678 1.5778165902957988
Ni 8.601171535922603 2.9719654221526866 5.589714668171346 -0.2751679449612487 -0.26048128948335136 -0.2353217594985883
Ni 5.426521773187731 7.657654252541106 8.579403474231038 0.966312356394097 0.12600976593462168 0.0027140564970533905
Ni 6.543716206821776 8.138107543808177 12.146745466270925 2.333867729704361 1.3365779510921434 -0.2732362751561746
Ni 7.732279026886395 1.7099602625475463 9.335035620896361 -0.595063314736859 0.32534687980848487 -3.447624624868088
Ni 6.712072400452873 5.841547005257699 11.132908972738004 1.0326087656284861 0.1981081265627685 -0.033205797328007325
Ni 9.478153400527932 0.8345653005254404 6.609169603907551 -0.6145633324429997 -1.0438755967915572 -0.21494191029065562
Ni 1.9539078240548122 5.83781201277915 5.960422994510908 -0.052195708166948816 1.8622271369012382 0.7613823218134887
P 0.7894094291478423 7.287927534777564 4.829535778149598 -0.2987066515131372 0.4936271243765434 -0.8213054805316823
P 4.953998302635168 4.721030492886452 10.881049420882334 -1.2788877954695266 -0.402494629935081 -0.10570962092468891
P 3.6019216409970705 4.667980461526554 4.868213595989651 -0.621465973100104 0.1793619563035169 -0.9933022547193796
P 4.465061510864056 0.646255050343742 11.534616798209205 0.5036274301223649 -0.29947104048298745 -0.14640067088614786
P 3.688173690922567 0.6136611411063103 4.257417513184098 0.3072105752190903 -0.32817715016842836 0.09144154104144897
P 2.489241105308207 6.834970544922931 11.436260745020311 0.734773975197341 1.6253133503251813 0.7809602439454163
P 7.792996115670855 9.837294511467846 5.553632576259851 -1.5193576748279574 -0.5692748929188454 -2.4249079215423333
P 7.226281390075075 7.135665592655796 3.0119120113070617 -0.714403381960789 -1.0017226175725908 0.30202723124593794
Ni 2.143547844171713 1.6957335072774937 5.311814335841487 -0.6666968199134453 -0.2195902076959444 0.8215093690123723
Ni 5.329777960470731 4.399126693893483 13.487641549921728 0.9865199416902236 -0.28628770902349404 -0.8680213965309824
Ni 9.206418621108645 5.253951982514251 4.177136759022674 0.202495971217819 -0.2638378646604101 0.40019966325331724
Ni 3.9714700550995756 8.400617454869641 2.7683079189573707 -0.4589064330659064 0.5182608637648236 -1.5763716303191562
Ni 1.328165202252812 5.15635418910492 12.05671244029114 0.451991451113628 1.0929049914153823 0.0648301091015077
Ni 4.330855160523013 6.629940103537636 4.138486155951936 0.909651413366943 -1.0164154436980755 -1.9111809410921212
Ni 5.740035915708783 8.847296278975156 4.032863759355651 2.039122119721501 0.5366933594383984 1.0913332760528884
Ni 5.475930656101204 5.877245275077805 1.8448329055166721 -0.6237557975755451 0.5452517905313706 -0.03165799322491322
Ni 1.8359083380616457 4.753416068372568 8.24744147187498 -1.4796120194989035 -1.0683612406377472 -1.7296708280973503
Ni 1.4117896192788266 5.559264156627634 0.6885956007576094 -0.3011309446839136 -1.414572365489751 1.8906607096515828
Ni 3.0816784801092725 8.828968539501268 12.786385450790222 -0.1685008452192969 -1.0190793636834836 -0.5658015896582642
Ni 2.88501892638947 1.1067120552457546 9.731771589545614 -0.03984130036665397 -0.8549391094257276 -1.073275904330545
Ni 1.5165101747263967 8.843889740609042 3.31791487749688 0.19442347862232967 0.3507550354689443 0.6271213716136683
Ni 8.261390448809944 4.429250628205402 9.215458616723183 1.676628969880022 -0.8194062066264405 -2.15832411870567
Ni 1.2615077862348814 3.919349079657708 5.308902355524668 1.4002091547895434 -2.0254191683131118 -0.26318043358206933
Ni 2.6633593225117385 8.766627948961057 5.842782931160778 -0.531184256694711 -0.6265971236790822 0.7006322963186257
Ni 2.7827289313739207 0.39086977820115937 1.3102184695493502 -0.025250032816040387 -0.5552443829677083 -0.21241425877279543
Ni 5.540711191476649 0.3529886961938414 9.691775263054213 -0.883354170233311 0.5762358976177108 -0.6223756293985668
Ni 7.330363806104199 8.104464458291595 0.9649390605945247 -0.40423526677527155 -1.4052397752349155 0.02640060148071582
Ni 2.847518851152577 3.6348421274662948 12.944242374107244 1.0247615016699254 0.7098972665603194 -0.03367322388272911
Ni 4.6139450678293485 2.6884813699114294 4.73653634231436 -0.19581701653574662 0.27027487853500554 0.7658524417697005
Ni 7.8230918967731355 5.321350766385964 1.717249128522645 -1.4471680400375853 1.182308676091196 -0.536190965880683
Ni 6.084790736524034 4.8685063893698795 8.801196336634385 -0.11459432500882845 -0.08864803745671185 1.0602818060637222
Ni 7.158479076865226 0.8234025529042482 2.037687083733832 3.077136886856907 0.13792117266022696 0.9195023380190939
P 6.642393206600538 6.2685279670203125 13.348588155321462 0.4008627507586129 -0.081200322929415 0.6752012578400307
P 5.983279646975116 6.441276061354828 6.668696750364674 2.6495331205590236 0.23754679217436508 1.4249503662899652
P 2.4315645631645766 2.401816004981156 0.950253408007384 -0.39755579787256695 0.7562534852273557 -0.6419160134243396
P 5.453389319584934 0.04028724299098646 1.2823261463213487 -1.6311230150284233 -1.2446558708698499 -1.5128255301363946
P 7.108094216017659 8.379352397190262 9.90716796246668 1.1161102258872522 -1.1645572656450458 -0.11941540054655564
P 5.668301537552924 3.795287269189308 2.6370285639782867 2.707436677744028 0.53041858217328 0.45667754373538766
P 0.6439652559599076 1.6671298462859896 10.797870763008909 1.246137597621699 -0.9264396885688755 -0.6416249645464821
P 8.915107976588216 5.432302565566591 10.904646502760004 0.22458406136610998 -0.029256839982588326 -0.4210145431161395
Ni 2.883686341133304 5.232442930351348 10.083251273702896 2.867977901796616 1.1746352187063382 1.8730756495799676
Ni 2.5992075421515284 1.5775087956072287 11.900998914667834 -1.3973703997891675 0.7556510757566663 1.2396324495133295
Ni 8.359607612831297 0.42251398583349253 -0.3899097537525272 -0.3839562048112613 0.3663634314301626 0.24168755381561602
Ni 4.902937764756306 7.655148616883386 13.699462545471542 0.20272711339201863 0.6631093596725031 1.6766389971823512
Ni 4.227232580251298 1.375631513701312 7.259508746529345 -0.682104155607451 1.4339188883371625 0.7725015716551018
Ni 2.3094359397579387 5.488946823356853 3.3171866478075946 -1.6639832560915537 -1.3574707353807525 1.2893686403961924
Ni 8.44072639419959 8.728011129741885 3.771719278961597 0.6436466229622012 1.1178500913964942 -0.2319019351837619
Ni 5.63784914912857 2.5826065328687293 10.403112088116517 1.2146017317969469 0.582972445010596 2.1066508587010944
Ni 1.8365183242704541 1.5016077424250487 7.582007516685983 2.7695159635732756 0.9157850370685068 1.9199743710140351
Ni 6.480484097976385 1.877931695646933 6.406316344067541 -0.6586806344771882 0.33092797344068814 -0.4114276707586527
Ni 4.446367779664884 2.02760354248207 13.786941136896905 0.7674989762341878 -1.4497699964368063 -0.29512201948567235
Ni 4.0794094608490115 6.744523666761475 6.236029778695648 -2.0524471189651816 1.4286332144581912 0.17302392990063103
Ni 6.227518124981969 4.307825835039696 6.417799099838278 0.8064545315617788 -0.39792912205158565 -0.3609723423215783
Ni 5.137266312970826 8.923338098205521 6.564159190779746 0.7649746671504374 -1.2227832391664748 -1.2080791001870808
Ni 9.350056296678185 7.032240084851542 13.631721230882574 -0.12524846228856493 2.782141622757086 0.13878197799862552
Ni 8.989779672949567 5.149428499534142 6.753950299788367 -0.00013524002628363804 -0.8854938422841331 -0.07144350065296728
Ni 1.0508560873253372 8.46018026205897 11.252746863320487 0.27477893705294615 0.5975580561342547 1.233043226331586
Ni 0.14974786050115768 6.6923933069163954 2.4999393249703834 0.6180582329701356 1.8685692770691817 -0.44152706124719443
Ni 8.617875773640739 5.0571141251334115 12.984527740217588 -2.687214951380514 -1.389845295056716 0.5432419591901935
Ni 6.937842372937651 2.6798758721656255 3.932529473969574 0.9481886502101929 -0.9785513216624502 0.026248392173567694
Ni 0.414632964015689 1.2357288306103205 1.3370437861320976 -0.002660063330666387 0.6507991748465823 1.1896553462642545
Ni 5.147833150988029 1.6669703114313783 2.621754509309726 -2.116258814104504 -0.023482142282340204 0.1104183392542679
Ni 0.6091228437127764 3.180430555113733 13.512927824377636 -0.30502128087725533 -0.856485627977241 -0.5130865186527357
Ni 3.4736462334862868 5.848322544377078 13.579954047441815 0.2758734556687055 0.41702856188519793 -0.9004113828259137
P 2.452369785086547 8.740473617208 8.250820795471778 -0.16686022429208036 1.0213681597176603 -0.46205731999006233
P 0.1505746264241733 2.817066462728223 7.648511966931551 -0.8164751490225745 1.659627293115703 0.2317132162117235
P 7.0622889439377605 2.2325401398352405 12.416392215975447 -0.4649989191168895 -0.8571309748707239 1.7043048385287358
P 9.425037678345547 1.7991120930656852 3.4781057018928365 0.09461042568773383 -0.3767000374694803 0.8474888237952696
P 5.7182453314495065 2.8587613662010747 8.211991888740004 0.4247974071973394 -1.2726302445955888 -0.9715324671424557
P 1.0366387164584971 8.991159180221795 0.02701675840828114 -0.19387789053150484 -0.8546994826110957 -0.6439111894774975
P -0.02802933551490295 3.992134510973359 1.6573916510724451 1.0070360593657044 -0.2776102358541541 0.42694093590290344
P 3.1930807306440965 6.611068068677428 1.9047729657151413 0.7718590529750965 0.344208235489362 -1.831993534827677
