# total energy = -340872.27768679825 ev
CRYSTAL
PRIMVEC
9.24913825626545 0.00000000000000 0.00000000000000

0.00000000000000 9.24913825626545 0.00000000000000

0.00000000000000 0.00000000000000 13.53704875526435

PRIMCOORD
 96 1
Ni 7.698714337342307 5.515973238329054 5.708410805835303 -1.4236254768309546 1.8193375366265636 0.45306360113188426
Ni 3.5533893737362208 8.364384056221104 9.85681203277661 0.6617070800083378 -0.6664147698966523 -0.4419137551626518
Ni 5.020015954621465 3.2987051067530393 12.70418139771753 0.2804117098586913 -0.12988853216373758 0.4806811057388367
Ni 7.125008798686265 4.626326390990615 12.80603475640696 0.29709765515480446 -0.20683342225090828 -0.478414164081531
Ni 5.7493937367984955 4.20202218021732 10.418992220434404 0.014014826221853283 0.07930207746543762 1.7461893945776636
Ni 1.343483556095367 8.741758140226798 10.15767354668528 -0.9336374918688953 -0.5673774187858164 0.16776036750884657
Ni 1.151434452389717 9.056460064402524 12.750045098861106 1.912906151313344 -0.14163615961796897 -0.4540665884751019
Ni 8.91987804193954 5.850079854258508 9.698672119208007 0.7677707418383358 -1.1289346313454298 0.7676205894137167
Ni 8.45557130884266 1.708436047620003 2.779751690963802 -0.0946919296579466 -0.03744091845527746 -0.3462008404393586
Ni 4.161695938059901 0.7732501438856308 11.950371092310444 0.5460532033867435 -0.45342535534667716 -0.10469840605135518
Ni 2.549302940568942 0.9649995755165331 6.583865775658527 -1.5392140474322524 -0.02071563528079658 -0.12315275610180079
Ni 1.76671486684796 6.72158914176422 3.5966855141405993 0.1627516014403455 -0.02204283873265236 0.7388666572094759
Ni 3.645492291030618 2.9132380269015328 10.665082188286238 0.3748817533138189 -0.3525761478380831 -0.06455294418072109
Ni 0.27868485546352206 1.6471882550588965 9.821155680450676 -0.2810406016919418 -0.45065113503564974 0.572857210953465
Ni 7.063178310424259 1.4869839338642536 4.500892354691014 -0.15119243584783637 -0.2636180353401202 0.5014926431675492
Ni 5.134991990460655 0.8081758143009125 5.502377005308089 -1.2402040057460835 -0.25754611811442746 1.620233878919745
Ni 6.3125460088716 6.458451162548956 3.17611610533592 -0.4799691672734766 -0.8268698619933372 0.9852336187786322
Ni 8.47496675145828 7.382319820892544 12.968222092812281 -0.042129067959566155 -1.0773914691608155 0.36154415566464837
Ni 5.7642940982929 8.444916301740518 10.426235220487953 1.0216748923248018 0.8148090741740613 -0.4700938171412936
Ni 7.432043187369214 4.10976202757506 3.7384452041172778 -0.3524373082673737 -0.410894423963002 -2.0692731893835847
Ni 4.423344806039536 2.1864222559808337 3.697523317465608 0.0570869748209791 0.39697318589621955 1.9364921661634005
Ni 5.5575943598218025 3.1466492762328655 8.3192612110401 -0.35716119610560426 -0.6485126928052508 -0.7702899087157637
Ni 4.412578809280078 5.974591751488593 6.042559042886251 0.6634009227709929 -1.269661134664936 -3.3782058679546334
Ni 4.902070945449126 1.1623484353589266 0.7335916894997184 0.23735858742295896 -0.258081164682291 0.08703132778889527
P 2.4929571912058703 1.2725149193811767 2.9090167202683572 0.3440413708941946 -0.3412483815300897 -0.4976033354154721
P 3.4260934859351773 4.510536430997789 0.19342445054253266 -0.021332442929189066 0.014570184504691037 0.415175310726543
P -0.12048944706626248 3.590903877908351 2.074959042795632 -0.4709759626359308 -0.1747288284068797 1.882718057765738
P 4.642799105963633 4.599402149953861 4.0547925499626825 -0.19472738301599365 0.6158931069980167 -1.1332412291405838
P 0.6972841978508777 6.430426274077172 1.6166078297274578 1.0815787677692856 0.7786051134496785 0.5339232528924288
P 2.1739729160854475 1.431711084521884 11.281045189136965 -1.544438271945669 -0.1920621774790047 -0.7214266073561575
P 8.306521448208075 3.8238526703342086 11.137146173515557 0.07047085232705282 0.12410200738894757 0.3137545469851951
P 1.3622500573195417 7.011503375806486 11.499668916458827 0.43512758547875385 1.2361797150780387 -0.16782027421250453
Ni 4.548235917932109 7.360195882534621 12.323641333736953 0.7141051339940798 -0.7575637193983469 -0.2530929674390802
Ni 2.613639945258621 8.070908904006682 5.576628161137342 -1.8276005479663042 -0.10368487718517629 0.6261559223766056
Ni 7.86668793454893 3.323104333085899 9.086689947399611 0.6188244217121988 0.30125795718008114 0.3543962317659574
Ni 7.06371476043461 6.567396760340752 11.028470650556558 -0.6024297824042593 -0.31836479206369683 0.8686626296594071
Ni 8.458651271833125 9.084364714078882 11.212425833502586 -0.6651639282086866 -0.8795579364156723 -1.2793233403450484
Ni 7.400938335906967 1.8154393264088042 11.902422635436988 -1.5525686143622874 1.4058177592255725 -1.3201164631020104
Ni 7.133665991956756 1.0618288023848848 9.315154757669983 0.9129717359894276 -0.8489260704624283 0.011710860679024994
Ni 3.5892112856343124 2.887710405719314 1.8210581778103252 -0.9092629196792728 1.3236476161837203 -1.3445054334693363
Ni 0.5246120384846293 5.267356405945705 12.109174169081498 -2.595073813168879 -0.24903859486404853 -0.6626365338011426
Ni 2.169376094445026 4.250691144949506 3.792986446635186 -0.2943185497477705 0.38479387022120826 0.6151783403191793
Ni 2.6450962639690294 1.2126637466746046 9.06317586358383 -0.0715021218050446 -1.1351741844972385 0.2745953602872303
Ni 9.182905031497492 0.0642565371881267 8.004673051263122 0.7388499450389274 0.29066012705957683 0.21142129873190682
Ni 0.48517741324096675 2.7309467639014047 7.629575180146175 -0.1204024470501733 -1.1331193588507387 0.7120050569319415
Ni 0.8253024433382729 9.364937318630554 3.774927504476388 -0.40110572000735434 -1.1889686046098749 -0.04979532625557231
Ni 5.654617818590453 9.463070673972346 2.971693504667382 -0.9714597049229916 0.25545992500936004 0.4813027984832356
Ni 1.8623972005907339 3.7964012284252133 6.110068501947488 0.9350230593625123 1.4113559154349824 0.35020687627495817
Ni 5.841570647197769 3.4578087805126514 5.508238184128079 -0.6322908316297499 -0.23392410782011328 0.5916033812127166
Ni 4.492195390126651 7.336231365692908 1.7148595740370505 2.8788091880841646 -0.4997296377298555 -1.0346913591891278
Ni 6.86151010308473 8.090563322489368 1.6230517042483465 0.25692236848749944 -0.6517268288671745 -2.6929431121135425
Ni 2.7023021831762843 2.4744681641249806 13.176516382693455 0.19951014911661769 -0.052823828669250956 -0.33576087605295724
Ni 7.505647828444612 1.8010384183723134 6.935557777875573 -1.0497719076713339 0.030778933054069573 0.7150826674160008
Ni 2.4830421151524864 6.07334479908372 9.714646305636922 -1.5868517039148735 0.3969438753201809 -1.7460158451142769
Ni 7.835953048611063 2.6884562234263636 0.5568082882437975 -0.812283222428414 -0.1897679821281893 0.7451386062611167
Ni 8.608542804035675 3.33104009358385 5.48694481837239 1.2376794395520168 -0.15839898089860463 0.26345374184811404
P 7.171383977167295 4.108790868073563 7.185546257440562 0.1481706183023771 -1.1232532646899365 -0.26182443377480713
P 8.454701889860369 0.5068684919353653 13.371111774120651 -1.3364316553222662 1.0446590119248007 -0.17757966759211352
P 3.7721499883021052 2.4730530459942273 6.148568039328281 1.9693084413624729 2.1148215674373447 -0.00566336893336444
P 1.9917371479139765 8.613925802415404 7.821381956433356 0.73127676067736 -1.990812633982836 1.4702845714503905
P 6.458885872040103 6.475016368903069 13.667680763032703 -1.2164428987707439 0.7840625370198239 -0.5606385574000861
P 5.550703751930225 1.794850744977058 10.423378161725928 -0.8095642808353543 0.35935177599901985 0.42950766818881514
P 0.572621539669609 5.722959700081546 5.361537604573306 1.8191310770427123 -0.3754419966926631 0.7705511327969503
P 7.984503455787736 7.782770504481439 9.30248343845997 -0.3909166952894945 0.6525580665192181 0.19092883520550988
Ni 4.325026467935555 5.077952555739372 8.20483179926318 -0.05601276792019386 1.1224197130450477 0.8067435235571074
Ni 7.064787660455313 8.715694069034228 7.422268698215095 -1.669664622747047 -0.9906753586194939 -0.26646938874598625
Ni 4.164461430354641 7.7897351054778925 7.424732668607466 0.2079171422333903 1.5330557411403403 1.0218289014041626
Ni 0.9194420208443819 4.310422078860655 0.4725310667038479 1.9985624531315838 0.10508278597396742 1.1146786356470482
Ni 2.492346748090643 6.139078423627933 7.140969111408017 -0.931063560494132 -0.45070101443697863 -0.2868901184941833
Ni 1.3690944195205714 2.292704101997094 4.483281070816715 -0.5022014963091157 -1.5919460877186453 0.2729359703069364
Ni 1.235684851429149 3.7131682345778265 10.415960352962111 -0.15678509944426547 0.19173847559099882 -1.3660067978762218
Ni 5.877161330643124 4.602158393110492 1.791154789388502 -1.3148796401831033 -1.2943285555046289 -0.6593324091285742
Ni 8.030499419606278 5.588717709560268 1.4726681178983703 -0.03889487729298463 -0.5834015621282146 -0.535629179839942
Ni 3.354209184548146 5.35690656112188 2.3433718054747437 1.049236089772522 0.49671990436925423 -1.9574579697817902
Ni 1.003540734018818 1.5338770640794166 1.2315699098842325 0.5649544111666206 0.7096674099377003 0.07786225969511752
Ni 9.611149375105434 6.650518764530824 7.5989142873131845 -1.6267274570638885 1.698456864388391 -0.8886935801683534
Ni -9.249138109499618e-07 8.60586980312203 1.3753505365378371 0.6658252159417694 -0.9471805206606526 2.1277457316981807
Ni 8.70123766616908 6.301844756078908 3.656316557360165 -0.6649333002551193 0.9563020233459466 -0.7792427470336774
Ni 2.322921036200829 6.836010229316839 0.13142655288074578 -0.5675553391245773 -1.3904160799585215 -0.5322625773605544
Ni 0.4046645909115835 2.394870081554627 12.448507472956631 0.20425357733887403 -0.1959849095721786 -0.5596057452601976
Ni 8.737374048762895 8.134589219890586 5.499953731123401 -0.2046037615894412 -0.09530745175475845 -0.20338737268383683
Ni 2.7636239688422672 4.975490603762334 11.640155925031639 2.122247684698087 0.4311896838769283 2.3320862123239063
Ni 6.563021918014959 5.501711067364206 8.754111289085845 0.9846916302322332 1.6429871134558607 -0.7342484417111742
Ni 5.009906646667782 0.9171519342484697 8.094817001105927 -0.6745132306340705 -0.4633791241252794 0.2289883610813927
Ni 2.835415778848203 3.3075657810619394 8.510648076457109 -0.09322948617980718 1.4342719008012073 -1.5507498159859938
Ni 6.195942124725137 8.054399192481224 4.9380852394198955 0.022203789790548857 -0.7795607924947284 1.1167311473007027
Ni 2.6916749234884696 8.313689530242938 2.1982546783643166 -2.283037020205739 2.4198793579794904 0.482059474143602
Ni 6.421389866144191 8.957392546111672 12.804545645171332 -0.1894702483821124 -0.4193854921531487 0.2609929390124473
P 3.4155772159046762 8.680556593356238 0.09801496637398935 0.7415151505759165 1.165726860473115 0.1978268478769238
P 7.746578627058968 8.597878547795423 3.3993422037810714 1.4342101943253365 0.5344009638597957 1.7503658945528564
P 0.03877516169645526 1.0546607203500225 5.980261473149716 0.5426284939759107 0.2579711214669879 -1.2031394967936182
P 6.0711435042136594 6.844584180344346 6.929872332679663 1.2061906249151162 0.2830789722782093 0.4231295325766132
P 4.548346907589423 6.299708205175613 10.146261960085777 1.3045211797669145 0.1066871543466098 0.5119313220023699
P 3.999826772005548 7.690454857010525 4.200898409937015 1.9149226675227409 -0.3529191329997986 -2.2465052438282926
P 6.2018893205295464 2.3214134266889808 2.3110858390759135 0.4247518986713846 0.08761831064061684 -0.37963469461777194
P 1.1230580966697723 4.728316636924067 8.175280803003329 0.4682397946516903 -0.4691792757468242 1.1220654150294223
