# total energy = -381165.2462067024 ev
CRYSTAL
PRIMVEC
9.25538160018260 0.00000000000000 0.00000000000000

0.00000000000000 9.25538160018260 0.00000000000000

0.00000000000000 0.00000000000000 13.54618652017439

PRIMCOORD
 96 1
Ni 5.266895072738506 4.166171080472895 9.61474466126819 0.3724302064495328 -1.7716556571695683 0.10902840088527675
Ni 2.7215633944377036 8.517079572536177 4.748304024139083 0.4119683737534711 0.007098558717994226 0.04805134698127208
Ni 7.5132871890674675 5.980059226680676 6.7770752845069415 0.002864723142304744 0.5010954077291305 -0.75804168747603
Ni 2.0485028078513032 9.578671812486949 10.354081182569843 -0.2862090332667587 0.49671193394945423 0.8175349577456565
Ni 1.011511371508108 2.649500995307305 6.64245391180832 -0.9829252823604298 -0.8704968546546686 0.6909909165741196
Ni 6.949847339098128 8.952971012228607 6.0345410289515575 -0.09289652832042067 -0.9966937968994318 0.27679185371791687
Ni 1.3736281665218306 6.300989574721591 1.0790201230181424 -0.9918873766497239 0.6071405576163673 -1.3955544296263513
Ni 7.1893303313276515 8.329972783322185 12.483907324122553 -0.16860985999333544 1.7066293728968545 -1.0585082591030675
Ni 1.0853045269494987 2.6491030139095906 2.413808081737415 0.20927622736444604 -0.5367725494157659 -0.1924694402197524
Ni 3.234033859355527 8.086621041691622 0.9572887199148072 -2.120860060321941 -0.14084451695460906 -0.8244543105733091
Ni 8.333887809629939 6.842429383240511 10.613666863074632 1.0202957525890881 -0.3558633032297871 1.7183191505299569
Ni 3.556519111461933 5.306859809374141 10.694714386412043 -1.5604652435015447 0.3402083703013496 -1.3056167268239385
Ni 2.1429262083044662 5.433723321431729 12.814840888318123 1.0856907330551302 -0.19134483969700597 -1.7058143331947266
Ni 3.685742745761782 2.522332055665425 6.915680173335249 0.6612810482145127 -0.48625525739250447 -0.7072348892368078
Ni 3.9458004507150233 2.877868274544841 2.3195540547628144 -2.100392022275576 0.9916207532518986 -0.6658244446108211
Ni 3.882012362504555 5.626309296400304 1.343941530866712 -0.6698135111655562 -0.6185503421152057 0.006794397214014105
Ni 7.6616509519829945 3.9424500026691454 7.782121772147521 -0.2701044143954122 -1.1882214420312052 -0.1805336080141149
Ni 3.5690231316552503 4.9686866858927 3.689453228141871 -0.5814876329349534 0.2050400777959114 0.40513361021982486
Ni 3.166960110768576 4.673847257855456 6.127508557919591 -0.23355823984026228 0.9161840722791383 0.3520611558748775
Ni 0.7240299716379168 5.013982522181445 6.925758358078775 0.1801165750813543 -1.0647233867748436 -1.3978655942580314
Ni 1.5759693134250896 7.166275176404222 10.782764531272964 -0.3987320775688552 1.0550113016934024 0.6308443289912102
Ni 8.252162792378279 2.3707936969495234 11.74130550428337 0.9724192406227835 0.018532511586548728 0.480745640428185
Ni 9.303601878996654 0.34284246336858326 11.589196088538655 -0.017082409403583482 -1.416629762239412 0.6998406536552656
Ni 4.6917749315153054 4.940874264959378 12.630707853129381 -1.5693844003680455 0.655495037660355 0.8501355173894971
P 4.740985794111802 7.924105800703866 2.293992542571916 -0.39093726411478474 2.1814229095066624 -0.3434713573233375
Ni 4.951897424137942 0.32907045593138406 10.646015346403768 1.2137409264585484 -0.20541751573998818 0.7698515356267644
P 2.3466649177903975 2.478989104839885 10.114219645243423 -1.1399831758501078 0.48778737776631476 1.5300465220003714
Ni 8.193455908524681 3.5234866554516073 0.7339110167588534 0.14513954478553714 0.27248705569497583 0.5752822754551898
P 4.162237543402458 2.8874290834713374 4.619547786597016 0.20659790920133453 0.46953177399023655 -0.3633413567743871
P 8.812113363581608 3.694813019477141 5.454114777604872 -0.5255432563588498 2.026637356990929 1.299821717408716
P 1.5275636690053638 8.124780978965529 12.836609545234987 -0.8545354462294057 0.13514875212141242 -1.7064038871496097
Ni 8.139561822969029 3.2625589446521985 3.4546293948800137 1.0418809349590314 1.8308236828892919 -2.2810793822587363
Ni 7.269056186209394 1.4815459129719266 9.771554885196611 -0.8847950164448956 0.8421093046509109 0.549135441856493
Ni 8.304270589334886 0.8675596488784102 2.8260325857996946 1.1323084329136694 -0.16707953939173806 -1.045565068678838
Ni 6.305904182214301 1.8222365001784475 3.634780765015339 -1.5957469495219743 -2.0496096495163862 2.7801585308887864
Ni 8.046693326581355 6.906171194544269 0.4096959338795895 0.2874323641508985 -1.56813355868008 -0.4339775310347107
Ni 4.913654188431956 0.6403280049315626 5.503435779239341 -0.7140408564150477 2.051110659541945 -0.4524529641310789
Ni 6.912955389068104 8.354471777735 9.922283398045073 -1.6768382576773508 -0.009587129467802845 -0.2944980127484283
Ni 0.9023404464242777 5.025024192122695 2.841908341415977 -0.3477021075752334 -0.03892830163408134 0.3727757627144096
Ni 8.594130622210024 8.665832061468077 4.62502049358466 2.187939884689574 -0.8118713317019759 -0.3222646413387353
Ni 5.243673320950916 4.305732975731986 7.212477114526369 0.514712484291933 0.5199094551118402 0.9178925703298126
Ni 6.29099376287201 4.977562596599873 0.8732396764081206 0.04994882111430107 -0.936987896398367 -0.2434562156802646
Ni 6.646372640268609 5.940325874578594 12.145307527561236 0.9426602641927959 0.4775723849065258 -1.2633498477349274
Ni 2.0419222317169963 1.3705183583908502 8.163974742335359 -1.7491204521815296 -0.45345080926797393 1.008050616673148
Ni 5.0174718009474555 6.996124245809147 7.243809356984131 -0.8081144357627049 -1.1195902140160525 1.4260693103857567
Ni 5.813888110062749 6.404353673551323 2.9027985697282013 0.7032116270100276 -2.83191226642231 0.37891555706356034
Ni 6.298435089471143 2.152505527993647 1.6013484946035466 1.093646240456781 -0.3238780085724422 -2.445105479536131
Ni 1.9072934547133003 6.395070526065092 4.959312835669317 0.1308249279350779 -2.1078142828815762 -1.13801653904204
Ni 7.708214775515621 4.502687490694082 10.30872888845491 0.6616032074406218 -0.2769648889606714 -0.2225310354918232
Ni 6.450676857169052 3.579278094182412 12.10661910801269 -0.4435014113647459 -0.7132386722287265 0.5919291399832515
Ni 5.556727339469616 -0.043909380163683134 7.966187243052464 0.30358943352673523 1.120669306012844 0.7984879684165345
Ni 1.2007931753375174 4.99258408051827 10.587496346791417 -1.3163924772832039 -1.6775273133245752 0.23346388035424306
Ni 2.281627353098732 1.0432388187491826 0.8116414114232176 1.2792032698274163 1.349993710277417 0.6477264494585296
Ni 6.523757348247093 3.5322607569640163 5.277120418045373 0.2657947312764648 -0.8484923253591193 1.6077223767162958
Ni 8.486749687877776 6.21258217214086 4.446332399239537 -0.1524517621762342 -1.0234103869586697 0.973060216640892
Ni 3.2764975489535577 9.065886664603493 7.081526426068065 0.3606689521485466 -0.8833143181343109 -0.7635168516579882
P 5.073633454931948 6.734419082976993 10.671021535714136 1.0036406605309103 1.1481225171277902 0.3160340870479912
Ni 2.3357158016625705 7.270361194978645 2.816252424335388 -0.2365512610303152 0.1272922321914711 1.6716713687644307
P 6.153949331338 1.114384935126703 12.175352346474298 0.7185994223200075 1.2470122869171685 0.42594669031043414
Ni 8.95718221073931 4.877132453655619 12.544703147545087 -0.23457973912624117 0.2747128597017011 -0.3858174263897162
P 3.0560251100009217 6.139427638012082 8.306033739480577 -0.12923521485045486 0.216848126174433 -0.23810909243573833
P 1.1236218057062224 0.14736880942123956 6.444909829054725 0.13095579708598737 0.7492055772416387 -0.21524890000811317
P 1.3136718061870347 0.37034575456507596 2.73412202138094 0.8865557078897441 0.602389158974311 1.9731612394496596
Ni 4.143726780718051 2.992635003188168 11.321238915609843 -0.5906842118325569 -0.45354851118810274 0.3484608401181289
Ni 8.972518377623341 9.094152599222584 9.211148949231246 0.3429957032384996 0.14663695526667003 0.011754312322450725
Ni 4.171492924744663 0.745811586088659 2.8326427791542965 -0.23940235732586512 -1.8342095686423896 0.5618927415221613
Ni 0.2658756376649509 3.3278278938774197 9.074521935395769 -1.0601545364572387 -1.4071634746201895 0.6989423102107123
Ni 3.701828598534532 8.357303924425715 9.329840885101802 0.4501446277128764 -2.383704193610514 -0.48215229096772444
Ni 3.4325617891457973 0.8635215259988067 12.343650349724664 -0.8658678405230894 0.7295412660434919 -0.32610561235138036
Ni 5.024052377081763 -0.10236729425917639 0.1995071491362761 0.1757701251872005 4.7056340342267085 -1.0157423288904506
Ni 8.14486515647811 1.763529616324849 5.06850875028277 0.41055246724255107 -2.51647313264584 1.9114413938423598
Ni 0.59537924544315 8.743410667878429 1.0105821312213508 -1.7564840916354525 -1.731152554849199 -0.539380162241942
Ni 5.704424714928504 4.004349993085804 3.084154990514281 0.9692482990939694 1.1305868222368722 0.4367517513457381
Ni 2.3027944102283517 4.026035351570588 8.622919485874949 2.0564662674269036 1.1289695983484236 -1.1272006793734588
Ni 1.5264067463375885 7.915313188428772 8.537984702373814 1.061367325818417 -0.4991351986789662 -0.26609272213285784
Ni 9.168908314323563 6.011268372566586 8.713313093291717 -0.3309331156470107 0.13272805849506175 0.31671003006909326
Ni 6.300748934806693 5.997033596062277 9.00088519589906 1.3545679599116607 1.2584513819920455 -0.13096171062325834
Ni 0.7419243259249334 7.286946838343875 6.518709463263056 -2.1948890623138975 0.8469910582232445 -0.02480574618977018
Ni 3.4400771587956673 7.717858882874197 12.256183293888302 2.354683895118764 -1.0827866720344579 -1.8571924026908082
Ni 8.929767771203702 7.188367771668062 2.390915821525608 -0.7568479242782449 0.31484906560095455 2.3452379192145156
Ni 1.5294517667991736 3.6549963689429807 4.658641591848349 0.6900072125046117 1.0125886137528175 -0.9529454481688878
Ni 6.253592766868166 8.36896570491689 3.8848833817969064 1.4853257820542292 2.098055917943232 -1.4991932840649407
Ni 4.70918430381999 2.6321008783839623 13.691130212878502 -0.728985650650338 -0.07722436900080247 -1.4196706059482647
Ni 1.7998107111862878 3.0467327071333488 12.816710475349248 -0.5250717160390699 -1.330729462731166 -1.9263291095874695
Ni 7.836235210240984 1.130461532518111 7.538140664585687 0.8000074903848544 1.2887502900859031 -0.16929865853024392
Ni 6.853137859453441 -0.4223711786277376 1.4647622044459745 1.1379476334773175 -0.3026334973713691 0.7513701889931254
Ni 5.560531301201262 5.550202295623363 5.202561842566982 -0.8150949808455962 1.7819863496716148 -0.4821049826695568
Ni 9.2638962930386 1.5294980437058845 0.3613661835868699 -0.8380415623394406 0.7304498939006904 -0.7417779173189999
P 7.50872428606576 7.850858712761666 7.7873362539957185 0.1487347183359632 0.2336322876113073 1.5128224448126009
Ni 2.4830614726304545 1.493827804013031 5.102170572224365 -0.09091780732749503 0.12655895356987237 -0.6968275778605547
P 5.879175570050654 2.1838072276929803 7.502027092126543 0.21194786065933818 0.25889389039157346 0.5328981540620241
Ni 5.547814407237075 7.144497264106016 0.27495239014725015 -0.06666176299360778 -2.4845359176176114 0.2008242399423509
P 2.174403760249301 3.9798602540543335 1.0068299996252215 0.7671089398846208 0.987354778886693 2.1756831788094075
P 7.590180897258497 5.204226885670444 2.6038210606928582 1.7715813522882067 -0.00700857010734922 -0.6913565274436545
P 5.047200085818615 7.790809798613448 5.382332816529142 -1.9227642750543468 -0.8052206591546778 -0.0606752063928697
Ni 4.095654330026645 1.77693140850836 9.167340452724194 1.6618214725535445 0.05657223996808967 -0.9783281499080506
