# total energy = -340852.47720944876 ev
CRYSTAL
PRIMVEC
9.49910691011173 0.00000000000000 0.00000000000000
0.00000000000000 9.49910691011173 0.00000000000000
0.00000000000000 0.00000000000000 13.90290314738534
PRIMCOORD
 96 1
Ni 4.582701495351754 2.4678678961774865 0.03964832106179836 1.0741500794053824 0.4219419400264153 -0.22328282605618321
Ni 4.090229812482526 9.51715490831495 0.21551193102893126 1.620309469352687 -0.48332471400927085 -1.7356676691107336
Ni 6.397980767713254 9.4762042597375 3.8604882197581603 -1.2270551270689514 -0.5914771400474975 -0.04350640792306701
Ni 5.217612281774414 3.4391325484036437 2.5340956674328736 -0.2789364108647454 -0.8080308749099633 0.5284396040700383
Ni 4.919805790577107 1.1929453030848718 6.271891526449664 -1.1000030359127442 0.4179531305819963 -0.46295669187588007
Ni 4.347674599711942 -0.3412810523999072 2.374851694383185 0.39687162732134873 0.6251639907769815 0.9395937094523302
Ni 7.734258090372499 6.323868737975084 8.95782091386907 1.3555701759239298 -1.1016811949461156 0.43874512762668316
Ni 8.844874636505216 0.4767677598285797 8.216226611067734 1.9032033222032834 -0.36764229814258614 -0.5256522711328883
Ni 6.04213473515473 4.464304630617512 0.598990864703624 -0.9358501832494979 -0.5579970060121809 -0.1514325768831005
Ni 2.5484013219811543 7.661988887315847 0.5482722848034682 -3.1457208065738924 1.6178849190715943 -0.41885970155666574
Ni 1.2826453667631013 4.3581521142980995 11.745102919039994 0.6400100546508785 0.1669962356493124 0.5921993629255028
Ni 6.07906726163794 0.669390643580262 12.372207339654038 -1.7243746126954174 -0.28304940459185446 -0.5646651620609758
Ni 3.410777715185439 7.254952169258859 9.976431013239676 0.8615627853898322 0.704042093331123 1.024498992037158
Ni 3.8060640383710957 9.319563991808453 8.035682791275942 0.7574487910870376 -0.12933111699837083 0.5067724035092499
Ni 1.5252715476875252 5.979877590460552 9.895988778859424 -0.3053822637610999 -1.3123388760391206 -0.724128836778669
Ni 9.267594379568319 4.35225316909592 5.16623541378648 -0.6535039753722552 0.17012038310059088 0.5264326009423385
Ni 8.075788969276138 5.203639095957336 0.9631125189370907 1.273965932687877 1.1565125409636987 -4.374215494302847
Ni 5.3881402435610894 6.119609448631341 9.187704993192522 -0.5925292354610956 -0.6128496921860025 0.37727853568076963
Ni 6.743995224934814 2.4510544774852843 5.700690298121203 0.9127315949541636 -0.6593452646443806 0.36458705625603016
Ni 2.991116684449391 7.35940434549584 3.0172639252924167 -0.3075723294338832 0.9236374432333899 0.04943537181299228
Ni 3.0371303568477117 5.940845761417468 13.045858332546986 0.23438664927882857 -0.5168745249402582 1.0371616751064914
Ni 7.725442919442351 8.25529358680526 12.197531118012625 1.0494093821255928 0.7430228454696945 -0.38777660699861605
Ni 6.789609934855693 1.092872214993148 8.196497916558224 -3.0273909257820315 -1.2908151430347319 -1.5455150499496157
Ni 8.3318278887279 3.1698613734500523 12.199129817654377 -0.13427329149499456 0.6076252105622696 -0.26810486746688017
P 7.965057883572747 4.7427329443390605 7.1001433290834015 0.1269037385038008 0.6049193815953324 0.6456073462329979
P 3.459745609738152 5.107470140680581 11.208798558649129 -0.2557520023284821 -0.12062150503951483 -1.4246030102528755
P 9.354967162128135 6.978290689365983 13.307746801846578 -0.27171701029817075 -0.6074580888567861 0.37734024215664047
P 6.979877040169146 4.43437294570275 10.840079336818471 1.3714811907272317 0.8111629927810418 -0.7268472641510966
P 8.892275178467976 6.618189057048076 4.570898855394093 1.2120154591270094 0.5018726522147873 0.1739281868824553
P 5.525468827760619 0.9865392156482259 10.039299900399264 0.11565053418748468 0.32928812384442 0.48112436392384234
P 1.1467416485544355 1.9870706153267421 8.830191867424686 1.5936252751932811 -1.9036902891420313 1.3675923971957866
P 3.7705848751985673 4.53115934290888 0.9640025852260508 0.708461048334425 0.5248403167545542 -0.3155347788140695
Ni 8.184696226511221 0.9768786242301638 13.095949971411159 1.7777944230774545 0.11861270213960216 -0.009583529923377044
Ni 1.9924376105589985 5.433393987430949 6.154856833602689 1.0712588739005164 -0.13680814210170633 -0.6546987670113047
Ni 6.39935813817109 1.5587274011530259 2.059853720050766 0.41343158856255896 -0.9101082983987036 -1.2005920477814163
Ni 3.398229395359224 2.9508879679739803 11.223827095210108 0.30955722107439587 0.7879988959597526 1.2338338405536815
Ni 7.9311080765637465 0.8606618044619442 10.594164565187134 -0.1519426837502996 -1.055948468795691 0.5741345350039919
Ni 3.8112790478976604 8.989954491695048 4.851723793712275 0.34875985941578647 2.230442791048791 -1.5624686470848188
Ni 3.0984660882011297 2.604788018792969 1.9303210526425867 -0.8069890639090102 -0.358550363143647 0.47227874060775443
Ni 3.5786934226555287 3.3753460475459387 4.3542223338952954 0.0826969620795995 -4.136872076388539 3.8461893236211435
Ni 0.371075000268886 2.2661828647239055 1.967886219625741 -1.1843876701074116 0.026649741377044425 -0.4160140045777545
Ni 1.5013337990409998 0.9510600524756972 3.5304892562739187 1.9034010400363868 0.9849114595525231 1.6308725895805136
Ni 9.306236745240566 4.0761046409597546 9.922139819345093 -0.5165806478489232 0.2607240016217768 0.6975922239407212
Ni 1.3586192213960016 3.221033060735303 6.529803669724084 0.877157811614612 -0.03963972587880915 -0.9570229606723712
Ni 1.4750307728496395 3.7430279669352458 3.3782527741673025 -0.7578079741986691 -0.5484949800590166 -0.29604247441741277
Ni 1.4283901594153383 7.2768666081983575 11.696192019126917 -0.07553412578257314 0.7579892369715397 1.2605031223147518
Ni 1.3007316657404757 2.6541358776099133 13.79457126583868 0.27620358531461464 0.3603403651645342 -1.3520277099883102
Ni 0.5632970217218051 7.364201394331752 2.0020735042998856 0.03668655678775617 -1.6815135516658333 0.9313350689879638
Ni 0.6590746138064023 5.1536737952110165 7.9440069134237135 -1.5652780915091558 0.17303858518865037 -0.36953540140024105
Ni 3.544629626367259 5.089108367611639 3.2877443365169228 0.5260957864282101 2.928321950102312 -2.396568451167692
Ni 2.8453053980509138 1.2787222357349208 9.941395458345635 -0.38404722186317086 -1.992290246969627 -0.2037984920793264
Ni 1.2861410379940221 8.328123237151653 4.6492275385545625 -0.28188880862485 -0.7661455475300869 0.6028905240907617
Ni 9.149472988925643 2.8778303390690496 7.909695190453034 -3.3285532379245133 0.9835390046850288 -1.1975548036169892
Ni 6.788479541169607 6.451574727182975 13.271210388108829 -0.6284475466242596 -0.37155191760963757 0.8242429658934515
Ni 8.138369083594911 1.4557380873333328 3.82208903121502 1.4476663198302422 0.7451943991997166 0.20278059233777335
Ni 5.434239407918862 4.269430458600264 12.25856477777598 -0.8101427790466436 0.5899442483427388 -0.46183183424281754
P 5.352851062520676 7.360962198979186 11.990502839093303 -0.546914265835458 1.160232155907131 -1.0776789184942472
P 8.698312920684883 8.379237929797268 9.882127682500293 0.49205180946962346 -0.45421674089972097 -0.11351189057792709
P 5.687780062333309 7.996452430904797 7.867875373621158 0.16391759672398865 -0.8245864652757992 1.4159571616524194
P 7.190225256847183 3.6582009449457735 4.060690440670582 0.5844014641476387 0.45682332528463265 -1.9100303724274459
P 5.878018670326945 8.800665794361988 5.880440942511415 1.0909319268494115 0.4627258068119966 -0.7259988001078722
P 7.052146243225798 2.4994049301086236 13.981870850248491 -1.0875504119716883 0.7917583630021847 0.19421290527342036
P 6.187328579623832 8.44464877788456 0.7903731651325935 -1.1705183683244873 1.0324897235521187 -0.8353143932162647
P 8.801368728250816 1.7452708566770194 6.031509984416182 0.811079689038616 -1.587148409219686 -0.4211533826868489
Ni 4.45843418273515 7.020561713761633 1.1057729516744361 2.8619136978804067 -1.6720814597186557 0.3843390420719768
Ni 7.23052996617544 7.25589258081283 2.0895925731014318 1.1074430371305573 0.30096176609590103 0.1858457642556477
Ni 3.398086908760138 9.050748773971938 11.681622289414996 1.0605813395820123 -0.43262204544808075 0.16961824665319175
Ni 8.718204049917352 5.895658511293849 11.570190169644098 -0.43937761900435945 -0.5618408052383034 -0.5964026023735729
Ni 6.120359878053196 5.413873323356104 2.9020777585909228 -0.049547214800508214 0.018057371722343094 -0.2714277611925261
Ni 6.609601864676465 8.031105171802624 10.083552438432877 -1.8412438497813517 1.3465065230597648 -0.28553360446628895
Ni 8.598496308471514 4.9231399769957305 2.8686969480676074 1.1639887947360856 -0.28295478799551915 4.422528065365306
Ni 2.0501731805088323 0.596032842906589 1.094262884200232 -0.8729478872983224 -0.16606498208429465 0.2023396481456128
Ni 1.2158096526849456 0.10203655342713513 12.495414551973438 -0.37022291438556887 0.5849650499605926 0.07247322746906228
Ni 1.2161136240963302 8.830464491784271 9.094972814685732 1.1852119657809201 -0.2494322307580414 1.2461203712305184
Ni 1.3675673798186314 5.917420964527654 3.7976478299183887 -0.9928104026846255 0.8732361079627025 0.7699212125224354
Ni 7.841284524499642 6.876450767445587 6.6772022568363845 0.21926676291825464 -0.18376651312911577 -0.2505167220714718
Ni 8.158991644036025 8.8832510271925 5.392393943499151 0.6175609816187428 0.6592295650021228 0.14714243414817885
Ni 1.868094305089548 1.0201280566062074 6.317784560194092 0.028324043755673798 -1.3170072280490672 -0.3045142593338498
Ni 7.277807019752327 2.7600224189443643 9.470198924541338 0.7258381061602919 1.3282432059742029 3.2856420403832836
Ni 4.261109241213614 2.2097581714856673 8.369936404608906 2.660644399980837 -1.3763518885559716 0.666828203284987
Ni 2.618020274294798 3.633560262410422 8.693804644689786 -1.514613989495385 1.6913115115928612 1.124628033550276
Ni 6.2790994485421185 3.500344791371187 7.762921644555392 -1.2859884110700497 1.6930729743686583 -2.1245169403482382
Ni 3.4914061320551637 7.246488465273123 6.05438003348022 -0.6736274855950076 -1.5292903605606374 1.5624277665445543
Ni 6.767296533438753 6.853177956261465 4.539979263392331 0.25176473554595996 1.7421959571475543 0.8751729199740993
Ni 0.6690828725262352 1.966058591514792 10.970377632219076 0.0979114650365088 0.3994465871373766 0.5062031612693412
Ni 5.653079825902453 4.6485398032363054 5.262359723262187 -0.5153737720250157 -2.280616326579388 -2.2149279832426436
Ni 9.396383266929266 8.82479352514063 0.4140033628416547 -0.7843738976126555 0.9116597020462234 -1.6878986292565705
Ni 5.423562412093983 5.989034729228509 6.780528788940582 -0.10897106528478008 1.834344551558357 2.5637292374193263
P 0.7894517517918344 4.506509161266922 1.2567859488502298 -0.3590982652273171 -0.7626817573512026 0.6259726027212058
P 4.705838414282273 6.827606361278749 4.2597100228105855 -0.901847343941492 -0.8825581566945767 -0.624663396991479
P 2.0719926283822723 8.489142593225958 7.155003519463671 -1.325847966269149 0.617783124931878 -1.3483890847944584
P 2.9939949137509374 1.4343460992571522 12.887963232635316 -0.8238884107675102 -0.25045321582338803 -0.6818845833974774
P 3.5727944774533493 3.3584566360008905 6.765986606637818 0.6094686915289117 0.645203683036676 -1.9837482709368868
P 4.6510095709538035 1.5125807412622243 3.570946901218528 -0.5435877725653864 -0.6134819264533629 0.02123628367095698
P 2.985521710658596 6.345555198356044 8.106143364434857 -0.3365730875416074 -1.503616609943617 -0.6958652139472855
P 9.700012710475907 -0.057071582398090674 2.368846359187021 -1.014183211933447 0.450283981504218 0.9747373472329988
