# total energy = -340894.32096871955 ev
CRYSTAL
PRIMVEC
9.05607315056625 0.00000000000000 0.00000000000000

0.00000000000000 9.05607315056625 0.00000000000000

0.00000000000000 0.00000000000000 13.25447845775929

PRIMCOORD
 96 1
Ni 6.3343971125828515 1.9778735325612649 11.221400097610541 0.01460617994894904 0.09203238054791246 0.4157607509163679
Ni 4.474569492838426 0.20476324636259455 5.930928227152115 0.7906137078747804 0.39185566216399614 -0.2767939106004459
Ni 2.866853892035924 1.8094486851069058 4.732710139640893 -0.5937877904585451 -0.9275437202663315 0.2534056135834926
Ni 3.5618984461425276 4.195986572234544 4.78301119204978 -0.5228551680037253 1.0556656474479498 0.22610615443759124
Ni 5.102662498540357 4.729235324393649 2.727533452300073 0.34928025069563073 -0.1683913162246261 0.06768531916211569
Ni 7.291669319280509 6.370621404970067 2.8103068660121706 0.28338981865040874 -1.0437357287795832 -1.0395175769331775
Ni 5.099031013228539 4.4135768405314515 11.81461816581668 0.7677640569701165 -0.7540068552850241 -1.0124263771433404
Ni 5.621647935571996 7.845629310612004 12.421818810884288 -0.3701308688923948 0.35165389313412987 -0.28835796128896146
Ni 1.8798415412883627 6.334243159340207 0.3515467959375214 -0.29224598348945796 0.7816392722903119 1.1078819244401887
Ni 2.6886575417101133 1.4343099131449004 0.29044275393145635 -0.2237890762686404 0.9848708361225748 0.500784304246615
Ni 0.5784213503732724 9.055493508125718 4.7257387745709725 -0.07135068382884485 0.23010756228750046 -0.5408893997976169
Ni 8.834525324563701 2.395503399493474 1.2493803724716162 -1.1912283471783291 -0.8712008227002287 0.8524183998864028
Ni 7.117004837462452 0.5381716334945273 4.77026024112948 -1.3597549034292387 -0.10894689691506398 0.2130290095386589
Ni 0.7286824320173719 7.4179924829078265 2.4134679316956036 0.3394164705276735 -0.7768675619332814 0.2251201363752381
Ni 7.557836363668673 3.9678550348529567 3.9430875805405075 -0.1478363748914099 -0.3171221779058474 -0.4524645340953046
Ni 7.5675806983208345 3.593105674034114 12.575292081655821 0.2049899412842663 1.1771477007155469 0.3151264876320573
Ni 8.13848460241645 8.98796237104285 6.919553464518216 -0.8062092483201921 0.5151747686403321 0.2556435017750759
Ni 6.950436484992937 0.6692881766119834 0.4945059658436679 -0.26545226033538155 0.022922413124128262 -0.7742170116843118
Ni 1.7050412183738533 6.729069834214663 9.413052630992206 1.3161646775431137 -0.8364616194468304 -1.631368555380326
Ni -0.20339306250304812 4.866860467245777 1.43609577075959 0.365534507770964 0.022378624805516296 -0.14385913541121675
Ni 6.432284206686205 1.8604343766419118 6.983850677898215 0.02633375279852239 -0.16948686328165005 0.4316982480822307
Ni 3.4115314084431954 4.1458159272782495 0.4216571026383579 -0.48405902107213417 0.07247091347621712 0.5674584085353969
Ni 5.962672480178342 5.572781365141643 5.11234525189546 -0.1854179326896097 0.8856679059681521 -0.784268739493359
Ni 5.309231525878455 3.034581421861829 9.026630897558894 0.6120287389466039 -1.6940890743379986 -0.0730427268192871
P 0.09292979969016302 5.424687401789607 12.53526423856795 0.26045506423110626 0.11591895735752294 -0.1255852768026934
P 4.057365261341767 6.018059423238395 12.673667298099092 -0.6304424655671014 1.5182870674715983 0.31674422574113836
P 2.4138510035875984 8.527334269047016 1.543153044480767 0.037838668114328386 -0.4693775078005593 -1.489052338976197
P 6.405967258266893 7.842151778542832 5.95338185478833 -0.6346881282173328 -0.35007729267562937 -0.411168246449679
P 4.57426780156114 1.1918063877586853 12.398397994641332 0.8852341608648433 -1.443737159979165 0.5361454573547283
P 3.8449822350755207 6.3522466326566525 8.256745144165683 -0.08291704851020558 -1.1446075619959966 0.05488045408796355
P 4.6250180351956285 0.9480078439196271 3.6825054164311424 0.5963285546025279 -0.18375905692994804 -0.04760397503120834
P 0.13229111579811154 5.526332766228135 3.557369503986816 0.8846021837077991 0.4692283838172047 0.6616651710268089
Ni 1.6033777417891328 1.1312755951796478 2.669518436827328 -0.6846328355665757 0.13891027604637365 0.021179205180776428
Ni 1.8564587605524148 6.582805197628184 4.766191347487086 -0.892031900512967 -1.1579035077739541 -0.3206420181336478
Ni 5.840170979397874 5.459906470063078 9.121347460471055 1.4584158450372624 1.7723058891590573 1.2845521928441554
Ni 8.660549104301001 2.5093563504664926 10.280782914945215 0.3361205733852211 0.09239722008649894 0.011412612712315829
Ni 2.30923524717332 5.228152503442769 7.116634444072792 -0.7407610460187114 -0.003065012078568915 -0.18775815078701213
Ni 0.7602211121843012 8.993278285950673 8.806460554036706 -0.5638406092771515 -0.7372977700604593 1.0335986403455812
Ni 1.2397401826600682 1.0265964462536914 11.496762678621199 1.1615017666481737 -0.5410459799801391 -1.6218269344384777
Ni 4.003409177831008 6.784166982935618 1.6703428743034492 0.5423664985637756 0.9221860554988441 -0.6702698819766844
Ni 5.612591862475193 7.860200532224762 8.0832570462429 -0.3590959512344719 0.4115328288779493 -0.7226643364180007
Ni 5.410179572688528 2.6175764239732993 4.807505152954706 0.05507662925916966 0.7615224469357788 0.6684888788168615
Ni 0.7128352097052748 7.451735411266518 6.727124589713469 0.8112897481668931 -0.8219665111544489 1.2700023200544384
Ni 4.848386078128298 4.737603135935095 7.235089691393607 0.49985510756412627 -0.19973177820912055 -1.9335346261969735
Ni 8.275195081885801 7.229173358839465 9.423430890761145 -0.32596420167750956 0.10681596661499024 0.033003451509214125
Ni 4.769688802917072 0.36590248301057493 10.238143300376223 -0.6450782132024051 -0.3410938582300964 0.19645465011974553
Ni 8.195483526487733 7.071398453346948 4.915887330169945 -0.1523283492244925 0.862461900165334 -0.7560287708110593
Ni 7.434003620142976 6.305843314108629 7.144283540844644 -1.2481849670690308 -0.381496173306543 0.26230754405881274
Ni 2.260450181400837 5.309847338849038 2.6671593297856107 -0.16370779470602773 -0.8374885180494479 -0.6283092212741824
Ni 2.1902475027544135 5.177040026884408 11.645981406251856 1.2845524499544716 0.40143250721915386 -1.2831195741626868
Ni 1.0611091408256113 3.4432186082089125 3.7481275333052033 -0.4264704240243881 -0.4409598758898148 0.29691073595497897
Ni 3.768874996769981 2.693439148305226 2.5541513104325237 -0.43209779751349453 0.027903411278487424 -0.040819862229839375
Ni 1.0598412905920587 3.3133726321469377 8.230633768605667 0.9946202021998549 0.3881111075198993 0.14836190837757676
Ni 3.8349571621573593 2.7257602731877193 6.892435053629838 -0.6110468346493089 -0.8439275888065724 0.26958685132904536
Ni 3.9865648818709536 6.837932888911343 5.959703899417209 0.74793236695617 0.2673034546115074 0.6167623969768475
Ni 0.893786417467133 7.368374258410438 11.442034112075284 -0.6511938391818398 0.696252422083375 1.031207257295269
P 0.14537804703030288 5.718149450491539 8.132232289550416 1.5300825174446293 -0.5763066029546461 -0.29858066745823414
P 8.627068802062118 1.6740875605289776 8.229202003449062 -0.34303478400655113 -0.5729322871657746 -1.0064429058663957
P 1.9446468003690913 3.5046731202438233 10.296741526956403 -2.358611255197628 -0.40838991237359346 -1.2534618991972541
P 3.8695694735333435 6.311385630843873 3.8438121904314135 1.1717476127458981 -2.6849611223493306 -0.18280234944363355
P 6.9571198669383785 3.9715951930419364 10.214218966469087 -0.4493910373763034 -0.08262342852918673 1.70710914074675
P 6.247848221996697 7.593988207471114 10.125320930521621 0.3341274542145923 -0.06129947024042992 1.3747842869585354
P 2.3955758480782485 8.430542959788374 5.7575071441702494 -0.11885130051296951 1.139867990428482 0.7456163172284835
P 6.900256783963547 3.8901358155361856 1.619578150952005 -0.3017598365171642 0.3446718053893419 0.023535364117778824
Ni 5.3886895112298125 2.6958571198220724 0.5371310906957046 -0.16088086678019387 0.5433052083279611 -0.608289583619146
Ni 1.4482472096408816 1.1398879206947086 6.829767933407264 0.43772877054702675 0.37020028867774957 -0.2841953452708396
Ni 7.057098913927095 0.48480147791313283 9.222784535228357 -0.14228819137967108 0.7037147918986912 -0.4909912294155931
Ni 2.58856076577114 1.3793576615934944 8.985912981701043 1.0947405019622243 1.5246844863575097 1.2144325532089342
Ni 6.32530481519366 2.0009302946657277 2.690247788145912 1.3336528070255482 -0.20643618681248962 -0.29474586709317624
Ni 4.010192176580515 6.969363677765258 10.405653484447804 0.4237219147449735 -0.12402281741157994 0.7307527698530899
Ni 8.187061378507705 7.211939651736247 0.06737990066215015 -0.12136943894913291 0.1002946205567047 1.054156924112907
Ni 7.818406754883012 3.769092342524304 8.157229768119524 -1.056154157048594 0.8059714212777732 -0.3638962008365927
Ni 3.1740721157719 8.346330536061195 12.656131118154441 0.0332217381676073 -0.876226043828962 -0.712015855565219
Ni 0.091762471867985 5.057318740544661 10.316663076554754 -0.1665897442395131 -1.0974676710854003 -0.3637815296355993
Ni 8.625819063974758 2.4628534151144046 5.8045335205473325 0.12967153105692505 0.1895070151573188 0.43804733022871006
Ni 3.4356839553923715 2.6967989514241406 11.388022786518636 0.9738968536095743 -0.29971683794520637 0.40865782132299944
Ni 1.0439478823071677 3.230835581942667 12.49479808154219 -0.11508797681579536 0.34360839712183405 0.20797447783388698
Ni 3.1943577195087407 8.32444200738622 8.013419327342278 -0.9987861606520864 0.5929167007075015 -0.5086433952797176
Ni 5.696496379717081 7.754787841377964 3.6991921367193137 -1.1548649780579465 1.0179534776091566 0.27404874375514093
Ni 3.15494568939145 8.276662165727483 3.6157684969588657 -0.057785029329268225 1.8560580319760487 -0.019437539899321364
Ni 3.675452546703352 4.506809113063047 9.41814214407261 -1.938503025945842 0.3625561418689304 0.6872288784285261
Ni 7.109506408938299 5.978131196954586 11.498141012946533 -0.018675722032632354 -0.4832149279042839 -0.8863482198646283
Ni 0.5614493637825521 0.04002150383670553 0.24421240637958205 0.21304366482667825 -0.5742255520559014 1.3189435258398319
Ni 4.689470107425582 0.4960119907996664 1.4603787251613602 -0.1726701461056381 -1.5362109989398705 0.22634783813475212
Ni 6.094918315610968 5.775945308995341 0.5284915969613536 -0.06730093923950345 -1.0782090799661044 0.04407590727329183
Ni 7.760529391721338 8.761632992207526 11.401727341936029 0.3813956431729367 -0.2550583186955672 0.3370392285447486
Ni 0.02885898813758503 5.077504727477437 5.837033955677142 0.4296223393898085 -1.5766588225422717 0.17483655762933759
Ni 8.194070779084631 9.0187077392065 2.4175902561692695 -0.7814829492181058 0.3060026709539182 0.42274592398494937
P 8.45220508663593 1.7396716418960314 3.654590976717554 0.9989016031840281 0.6580800247787117 -0.4710155576246146
P 1.7841550729475322 3.037099010182741 1.5756389898936223 0.8576197415816843 1.4533263463294972 -0.21772975744843792
P 4.632951155228429 1.0013752826790927 8.070122117823296 0.667587707158831 0.6906952397105717 0.15707563410149078
P 8.399725143039952 1.544839285291392 12.36148453509145 -0.20247231706873517 0.6632916508866382 0.09020818285498013
P 6.398188091476738 7.748502926648782 1.3726733740407433 -0.11611204720493551 0.9798538425239577 0.46418439363539415
P 1.779590812106743 3.2865032632687208 6.073241699046458 0.18505566425418452 0.25903555817576035 -0.8112532385020029
P 6.750532727454089 3.945115235306882 6.199875485980997 0.3685853787821458 -0.3633776093289613 -0.4009684230985417
P 2.494902857803994 8.642101883402812 10.339752440522362 -0.589444682998501 -0.019027963165728523 0.18300366682116223
