# total energy = -340886.7780205959 ev
CRYSTAL
PRIMVEC
9.11497275081259 0.00000000000000 0.00000000000000
0.00000000000000 9.11497275081259 0.00000000000000
0.00000000000000 0.00000000000000 13.34068397638364
PRIMCOORD
 96 1
Ni 6.703269371748833 2.4232428204118537 11.86286981810019 -0.19315952430824151 0.4080633822721101 -0.9785587778616178
Ni 4.760841357928312 0.8225515376958034 5.806065296660353 -1.177012203578947 -0.8238716985969617 0.6516617799571939
Ni 2.7504247632098795 1.8481245069201635 4.61714381430912 -0.8318580592365481 -0.17344507659844968 1.4873160730113804
Ni 3.4819013173132793 5.080239114094508 4.855768328957027 1.9253207229276135 -0.4509473261198298 0.00525687752356514
Ni 3.525808140504757 3.0167460337119745 2.7546377035626093 -0.16505685253475444 1.1296594253265964 -1.258863786939116
Ni 5.338010540263282 4.769573501714367 2.603674615254623 -0.4141388990422287 0.2711020024219912 1.1665025622968748
Ni 5.283056370235999 3.1277481704829553 0.6715155296067224 0.6077851331789016 0.21198411321391233 -0.36270269474912376
Ni 5.79893647656111 8.162521801065093 12.38074154594644 -0.3169542848694154 -0.21764568237506385 -0.590218327939732
Ni 2.289307412486678 5.530783096559018 11.479284424625629 0.19577716443674667 0.06083281501665653 1.0016750521641071
Ni 0.8514049835776016 0.37910720741809834 0.2569027692764873 0.09303073990543978 -0.5087238708086658 0.5614564253156911
Ni 8.172283936759108 0.12044251393091714 7.536645850948103 1.1955557709090894 -0.3376627210613604 -1.4205321826176116
Ni 8.946072193842545 2.5433052399838165 1.6902914637358188 0.1828835963035302 1.2417988610370292 -1.5013887490543627
Ni 0.3777308465499411 0.22040003835788433 5.091205337673845 0.5391096821893747 1.0214288377522667 -0.8522037127724356
Ni 1.9227396729250286 6.66279889324143 0.6264975912508185 0.322216047488987 0.18666954570852368 -1.082397407015839
Ni 7.939870364465917 4.251068283269858 3.685924484334621 -0.9571330038876742 -0.5178142631457082 0.42183652479680256
Ni 8.036288545018015 4.25790451274746 12.815100982997045 -1.1627554365496169 -1.1276038283491483 0.3345493722433593
Ni 8.810897149638764 7.72637947536673 9.309569099122854 -1.1780185333562745 -0.457673846210386 0.19503103029934152
Ni 7.105868598143763 0.9769427672124914 0.40219907909617375 -0.08152813858247895 0.6500173023752354 -0.46714913269067293
Ni 2.1129326919645495 7.122977401783041 9.363412153985712 -1.8314577169288653 -0.5074450040962422 -1.9125330842446415
Ni 8.983434466680798 5.5419033631759165 1.5603529713118809 1.0798782401384113 -1.5163096320302532 -0.33604369740069867
Ni 6.714389638365732 1.9619249402906425 7.2120006050349 -0.4781292858512604 1.3610939339556365 -0.8379418035367828
Ni 3.5930037187832653 4.78624478666708 0.5219898724835595 0.33316354763942624 0.21208592889909927 -1.4485245540654796
Ni 6.202893833878924 5.798070554160614 5.221156591059474 -0.09820534212784376 -0.044058166661478965 -0.8151790559189702
Ni 5.035639552982633 2.69677403426966 10.057767982025734 1.3751810081763218 1.4106547756028998 0.19049097633714293
P 0.24317470898819904 5.840382257140652 12.600715915082185 1.0188885878289162 1.023536628123889 -0.5194888226346538
P 3.9539019453648234 6.697153225109539 12.510493181431325 0.4122969607374835 -0.8834289893353044 0.5345948250381567
P 2.6719539637796466 8.600933754950018 1.3992512989399788 -1.8028930179172948 1.7531167178251164 0.9488098287339595
P 6.299749533117587 8.271473068992792 5.86860676991051 1.9449516097846635 -0.6190288244135209 -0.005370777393610105
P 4.813380060206841 1.5895327332140765 12.534332480865618 -0.20091474277362817 -1.0543327875691388 0.038163655553914926
P 4.376289777354251 6.0882183631353115 7.986120647122317 -1.5426618967715367e-05 1.0308879262826374 -0.6970695186680318
P 4.7605132189133865 1.6468294512090171 3.712765344258213 1.4777104316008163 -0.935526481361492 0.861644032249729
P 9.311035698220117 5.880661321222681 3.7993730797613194 0.7113625382519362 0.7125002514008051 -0.44855440040762107
Ni 0.847883869648005 7.76691375868259 2.665042080029159 0.3450806107919863 -1.0854274520914144 -0.1653720697823281
Ni 2.048353110832804 6.902823467686351 4.631805247795417 -0.7641498572562968 0.06654014981407895 0.21785085640733445
Ni 6.366963341341369 6.1705721409088214 8.878558503019011 0.03417741721265727 0.3831586486106305 1.049644123844218
Ni 8.702091721273252 2.8982969642967262 10.354384687080769 0.38414929465867387 0.5727607945849168 1.010762616287672
Ni 2.378980513287541 5.730710906374644 6.929284233250988 0.4106689382157573 0.6967761557973291 0.6323270841843239
Ni 0.5645823166208102 0.8007439656622535 9.60862770534729 0.20339122933857876 -0.8184361294036873 -1.2569907382861192
Ni 1.7100964762810633 1.3051273570005653 11.480164930982344 0.39413597355774055 1.322998669745812 1.0229023369739996
Ni 4.277018610366834 7.206115067203316 1.4632329378667503 1.2923076684198582 0.2144001788545727 -0.4606920642114195
Ni 5.910713386006219 8.561292738952565 8.087522894712217 -0.7035677247978657 -0.5752429375768222 -0.19927437895672778
Ni 6.8876652681913475 1.0643462398267904 5.0024227696995975 1.0992412180460553 0.22132261700601885 -1.148927786637905
Ni 0.9698786634189694 7.836069056078011 6.712738916821208 -0.05300432011117323 -0.16148481891277996 1.2643381797901256
Ni 5.322314557382708 4.077674158799964 8.03474720314513 -0.2380597272550416 -0.021688797827343294 -0.6001600125334761
Ni 1.141586517951055 7.660405303421553 11.603993657247834 -0.7382102545723996 0.9241712042496728 0.11517796542644033
Ni 4.71112829716719 0.4645819518224501 10.391325848183202 0.049835692575204496 -0.610447253392097 0.07061971920009127
Ni 8.217138717104813 7.449767400757684 4.7737900880561535 -0.5146376651899396 0.29931677429331033 -0.8654924594615417
Ni 7.718804933105546 6.829338558288449 6.925522484043779 -1.0132380744113583 -0.17987566271514185 0.6718616519438365
Ni 2.909526610585267 5.393466033785589 2.629742525498614 -1.385500902045091 0.8461793609552265 0.3420343677664948
Ni 3.151164535186901 4.95001350003251 9.331688403220582 0.9976980697942299 -0.38875671152369823 -0.15216688394596375
Ni 1.187498635122629 3.6113521587011483 3.718114921698753 0.005138606778145989 0.08147234564387903 -1.385098267290034
Ni 1.2687039263439026 0.9950906777323653 2.7175370304390323 1.03985876232268 0.30520537186360336 -0.010953413687710167
Ni 1.2812643586374164 3.8073331853650387 8.200317946600858 -0.9855115550303671 -0.3087501517920683 -1.2547140264368004
Ni 5.196436785268466 3.377954169363184 5.179880348970977 0.8728342445385936 -0.4137200663372552 -0.6386787374339645
Ni 4.391384172040795 7.399990535188105 5.72732925152639 -1.582675203939681 -0.2792716827169771 0.4771154998747654
Ni 8.558175418310778 7.6529766007225595 0.3393522542626842 -0.10506581669310294 -0.6236292993000098 -0.6923448594988527
P 0.34442564803232856 6.121779692384019 7.857382596594646 0.8850937786322368 -0.3106309137545489 1.208935791760421
P 8.882075970959555 2.1068894651063492 8.082947178448542 -0.3557733146191421 -0.1005563588585236 -0.19989735725270735
P 1.732127365144215 3.618452722385218 10.370593842920794 0.28149697250307004 -0.8751477231631185 0.8214309503659529
P 4.623269075921051 6.693662190589643 3.620221027076757 -0.15013339845570273 -1.0598907412728908 0.15489251040724294
P 6.649226698985231 4.320150660884184 10.35686669412977 0.739964518259345 -1.351117282358899 -0.5958058493298385
P 6.649554838000156 8.069694919731894 10.161025126547223 -0.5697806289106703 -0.6812544060126461 -0.22464371095945185
P 2.5467142397499805 8.931789031720674 5.664588160375487 -0.04195963226123741 0.2610021949838279 0.06417036403032175
P 7.11285978215619 4.233804525095754 1.562127656484266 0.5598993652412163 -0.573171142649458 -0.13566940051157278
Ni 2.6252123840981234 1.953457130711053 0.5147434692373015 0.945657656258223 -0.5057475617891612 0.4026257561963066
Ni 1.6352716659055517 1.4164758627317446 7.046509161841113 -0.6219051175200515 -0.19438079830985236 0.05721707264094017
Ni 7.176691935531719 1.1680017086525085 9.42392554582418 -1.1854423366241713 0.5713438596327322 0.1717535478286397
Ni 3.009754849699547 2.3572139586308563 8.98088136284523 -0.9353051093793053 -1.1868608142382526 1.905503945312002
Ni 6.704226443875697 2.206087712312671 2.590601010001657 -0.6509608972354273 0.1507838875555081 0.5981491527510344
Ni 4.125409270498899 7.254570261740559 10.27760927256098 1.8006247907084085 -0.4229194734483362 0.46779833623889755
Ni 7.46608320177756 6.075420941553241 11.236137972052603 0.22037567971171726 1.3398370814593892 0.5903779934460478
Ni 7.682399732394158 3.9874997345040772 8.433193648006734 0.9606253333116489 0.6643979965769397 -0.6403970056766519
Ni 3.3811170648681546 -0.20175900781835954 12.707161477032031 0.09579441869350598 -0.11727392872352062 -0.5919851900321675
Ni 0.43700824809885885 5.431612194270607 9.849226523068328 -0.6066075679310328 -0.722243189720182 1.143836745268243
Ni 8.998392136777792 2.596162966304634 5.60466177277483 -0.3932288883624389 -0.23663070811799894 1.1620504400627922
Ni 3.512463820564478 3.155421227408288 11.851730410040753 -0.5567885875263765 0.44485509717916283 -0.3752113687390957
Ni 1.1847914882494985 3.5374297306166804 12.674957367208943 -0.22187129042063725 -0.020424072182306758 -0.4597626104186146
Ni 3.230446567181809 8.645633580760899 7.750176845926894 0.7062858950599771 0.14959732344657461 0.5565047377373705
Ni 5.909765428851992 8.445678426027362 3.3440692585858707 -0.892976009593791 0.4741769860717317 0.388238377126383
Ni 3.2333451284803125 8.751002664442334 3.55435805779775 1.1435315553229985 -0.2007126540651511 -0.5038169204253516
Ni 3.654110495340389 2.6703041537323853 6.869624914348588 -0.453479091402748 1.3516163334825047 -0.978198823419038
Ni 4.901139016753976 5.077085333562174 11.27027627906922 -0.1715730563867174 0.1161524135245677 0.511013695284107
Ni 8.020729286726993 9.047293964974237 2.3776296743427667 1.0383551811939602 0.7289344856974285 0.8483473151408227
Ni 4.719331772540313 0.9729959840607559 1.6697198819918193 -0.5064857255067664 -1.124010197460619 -0.8573644310377687
Ni 6.108298647854188 5.692127227203058 0.29806689720155105 -0.4017772921530822 0.9003095671407269 -0.5107208466340366
Ni 7.917511336587841 9.301556126677841 11.341768655448718 1.2420649702142221 -1.080945247950345 1.5164906376928076
Ni 0.07344115752924507 4.861625610373436 6.10785839467583 -1.4814511295901711 1.6401573573165495 -0.34979832798262983
Ni 7.225976592578909 6.561950835987847 2.6344513203627864 -0.8083275802147756 -0.09937185163211919 0.06853481164660453
P 8.56461058899236 1.7145172380099125 3.7243322445343154 0.039813532452512075 0.38002550229828747 -0.8964971353731721
P 1.8612591824897957 3.7798880027556265 1.4052279864979302 -0.3266532573247342 0.19852284550268393 1.0604340153708707
P 4.8606867681918455 1.334167659821418 8.193968456662061 -0.39568352055051853 0.8945366692126917 0.5435000979475866
P 8.802228810661164 1.8125943435819074 12.473899300786353 -0.2682028264973252 1.342443665844301 0.3623424831962276
P 6.620186396164378 8.13937888554025 1.0445038558937352 -1.4959701491419528 -1.3194050388572827 1.1604167611141112
P 1.9033156662360027 3.994572953270236 5.658397270960571 1.3698739941411116 -2.299901914281878 1.19139829709729
P 7.077721562641317 4.053938770053731 6.237276422162206 -0.654855347193827 -0.15712937015756162 -0.33162937038308693
P 2.549548996240026 8.969579708272859 10.20267508251383 0.5469559177066708 0.053547079988520686 -0.21260194930356932
