# total energy = -340890.13321062154 ev
CRYSTAL
PRIMVEC
9.08203930277325 0.00000000000000 0.00000000000000
0.00000000000000 9.08203930277325 0.00000000000000
0.00000000000000 0.00000000000000 13.29248254620945
PRIMCOORD
 96 1
Ni 6.392992771140759 2.012697973892932 11.483428568397798 -0.4343811942310325 -0.36349870828785785 0.1108086327141511
Ni 4.697811972978812 0.45169522424932185 6.03270009854254 -0.5526884493150739 -0.4509817789021911 0.4393570501790691
Ni 2.6122487978362106 1.4232282135651497 4.985690821680236 0.8270925195271046 0.2902592920767324 -1.3514877783244403
Ni 3.222688986892085 4.027312258076738 4.478223702335053 0.28953784052967557 0.03967494999211877 1.2280437162344657
Ni 5.24982740326127 4.729244910972718 2.211816236173656 -0.591442173044504 -0.2442820540156696 1.5329662667503277
Ni 7.405603824179915 6.134863050348274 2.824639552340077 0.004588133591314679 1.817944770044095 -1.9849248077434911
Ni 5.112597789540404 4.443396806257263 12.019315205099389 0.29627361659161233 0.06048957274462485 -1.6611095340881845
Ni 5.885243200373555 7.851386640849337 12.544713902825146 -1.057957785916236 1.0723585347225983 -0.699207390946641
Ni 2.0856176673783606 6.569220661586799 0.27854705332761887 -0.5778410373213017 0.744109393665654 0.3001091882876186
Ni 2.595601419811701 1.4834875442758013 0.40884888747560066 0.6864035543137534 -0.5312742453053559 -0.408444933981245
Ni 0.5139035605923027 0.14666766895440128 4.900725619480181 0.03874549619931391 -0.15773615050362513 -1.1045626302589688
Ni 8.561602113580753 2.1680825841609854 1.5493713819207569 -0.32969718635738055 1.6631579319767806 -1.2358938084065036
Ni 6.876229917855506 0.700409594906504 4.888430354684993 0.09921475722896461 -0.11771590135694564 -0.5761626211776142
Ni 1.0511733918782549 7.467161886509499 2.674673286714371 -0.8909893181810654 0.44802012517070583 -0.02246424254078712
Ni 7.686956319445215 4.173315121754873 3.764458060443909 0.37375303902601437 -2.6256876813999943 0.5051394958915172
Ni 7.592030844752264 3.943403297046487 12.317133437603335 0.9354218374628277 0.14984337801910969 0.6872864711393388
Ni 8.310610875672754 -0.40331065991458254 7.062827680766568 -1.369706358214996 0.09288213014271746 -0.6314539375507512
Ni 6.743532241741966 0.6006433932702558 0.49438989096684594 0.3844804527458475 1.3153714922178572 -0.3056589144612542
Ni 1.9977489372162578 6.297013779889792 9.309629748705646 -0.7184744667063692 1.626348476457915 -0.4124563691334832
Ni 0.33167970780486444 4.897344376251308 1.328478930434488 -1.0824490861893807 -0.7658889514345907 -0.031162798756049555
Ni 6.371050564208289 2.0237417336735124 6.9028257617218305 -0.042122125981030684 -0.28712126066838295 1.4880030717760762
Ni 3.4350815578038105 4.565295937651139 0.424219330775481 0.18145946226249393 -0.485646420163912 0.25095278116762587
Ni 6.18417852371057 5.736179689453598 4.89062366717431 -1.0618905453117389 0.6475901809909815 -0.25915434314181174
Ni 5.047352419257764 2.7731916161517276 9.426151404633995 0.25787444798812365 0.9690382399656925 0.4064142767044614
P 0.2577982263582814 5.548081573651292 12.459070272289887 0.5087603804735561 -0.1261673745584085 0.33693638441829715
P 4.295768257545637 6.338337058674037 12.584365178175506 -1.4463697125060058 0.061823718175016106 0.6549389080465688
P 2.3686685039914974 8.47979110362724 1.2859350255692314 0.8087767519370522 0.9441201365677739 0.2897733535792493
P 6.343114211342281 7.899557777260685 5.9851928592035275 0.7423093643424377 -0.2628117373887409 -1.4406109556453577
P 4.658068969031591 1.0792278112550753 12.692180791237352 0.5736215999233154 -0.5636349210242487 -0.24265788814868536
P 3.951395491624539 6.345748002737321 8.166090200807275 0.21657584634965285 -2.165228559134987 -0.8994976127623928
P 4.601878391924311 1.3346238382202944 4.038854621814517 0.616385473253403 -1.6764214818549064 -0.18391486578152197
P 9.467026938881082 5.624388867793099 3.5377540120138957 -0.15947215935812534 -0.08711565997258545 0.7452604765509616
Ni 1.3518706308381585 1.0810078909565504 2.582968303154803 0.8105762670396364 0.16434080030433632 0.7977233223363681
Ni 2.2182245230989666 6.321271906842038 4.815268170750435 -0.9698831044644908 0.7176571130113963 -1.3028029115242272
Ni 6.089153146585394 5.925912572328688 9.105549968359025 0.24148495088650668 -0.9519072367123608 0.7414734987047037
Ni 8.659851614655029 1.940114315861353 10.233430264107989 0.02805819168879684 1.9609801240024356 -0.8925427787111143
Ni 2.555004704170915 5.060294325250632 6.7794190118052775 0.20849872576847317 -0.2638422355357843 1.229460136966018
Ni 0.5978334103129272 -0.13077500839515954 8.977742970404895 1.5541516425786912 0.514068937170663 0.9528027519434366
Ni 1.1958411957802848 0.7875363224583491 11.544853124749771 1.608890171772152 0.9407039117973734 -0.017072896321886726
Ni 4.315548939126314 7.029961596972189 1.5787218083047225 -0.05659795099970253 0.1353564972568443 -0.04100780987092937
Ni 5.4391788404860435 7.948410066619026 7.9233826909386424 0.7888859265503961 0.7510868534247516 0.8537435464557297
Ni 5.365632486289381 3.183954089306414 5.1151071569971265 -2.9880288790446414 -1.3461234286887334 -2.261816677374382
Ni 0.9153424122085484 7.029888940657844 6.693349433627166 -0.40938930017238523 0.4346527027248644 1.0788947931792192
Ni 5.138617832115538 4.370004846728586 7.372834918205973 -0.2827195320562615 0.5657427113958708 -0.1569056841825298
Ni 8.374157904607559 7.134532197394561 9.124292572848484 -1.2707759649956696 0.18487363015036548 0.7672896884368592
Ni 4.539157828565192 0.44592540468632613 10.471166265667502 0.9811347661189103 -0.7658223598627133 0.23204720251237457
Ni 8.214114208182073 7.407056950466832 4.819016328366755 -0.45937848760631855 -0.8173526665315214 0.010025759667118219
Ni 7.300234004299737 6.190890150748276 7.063837603535976 0.6634145496177477 -0.3164902007488033 -0.4450384168345626
Ni 2.39720427145086 5.211819068819058 2.547583769864408 0.5107259888403591 0.4799809943480185 -0.12608304237471837
Ni 2.346217702858607 5.285574309919465 11.56330328757399 0.011480232725457647 -0.6711340297491926 -0.5058236664427352
Ni 1.0128744321786594 3.4030128770593775 3.81680330211443 -0.47257056081656024 -0.5844120056705999 -1.05120735456628
Ni 3.8365440227222183 2.683815267466947 2.6650762957932037 -1.8953532300312457 0.9821727204651215 -1.1633609313440996
Ni 0.9639040763095059 3.065542461001143 8.300530720261186 -0.5825677533730096 1.330115740406567 0.5161831553001884
Ni 3.199675099323014 2.7358190244600427 7.4072758276138 1.3606941274140565 0.455388392610319 -0.860164362380409
Ni 4.210124627010377 7.0561814444117745 5.869003605913313 0.35944382149219384 -0.18790367522594092 0.6109892419384961
Ni 0.7034030350575561 7.505696979230718 11.359729376816 1.266308416142619 -1.0949510753111336 0.12626481936822126
P 0.2667058904970918 5.536029707509162 8.201009733685856 -0.2004077212302226 -1.3493023406373472 -1.532115488714258
P 8.372659368124175 1.4926422398833878 8.106700021256987 -0.19849559180917425 0.6197644170279649 -0.3547448733546278
P 1.5977395985847682 3.0903727564288626 10.447133373289729 0.8553409728498366 0.46093657612205774 0.4962637906684422
P 4.154206511081895 5.962295221737409 3.8360772059025456 0.44012735268619047 0.5857466653216234 -0.564327576215899
P 6.481351931424697 4.082385744350948 10.377055449899157 1.1391018016864187 0.30966546451748606 -0.38585959248156126
P 6.3010916155324574 7.856708715875175 10.22255724666612 -0.18155125064535185 0.17015894964801015 -0.42818714960517873
P 2.366007466478578 8.410858425391543 5.8267466934897225 0.3024969717935049 0.5376801488316998 -0.4408696301688536
P 7.064073736557601 3.807118215412119 1.443151483162732 -0.256387579029952 0.9748736157005469 -0.4631839773953378
Ni 5.149307392363682 2.8182294490069077 0.4629197166118379 0.5584901435985157 0.07434833300458808 0.47031955999885455
Ni 1.3193660122076503 1.1592314953892318 6.934860838920878 0.8408587200732616 -1.9144920077432253 1.5438021810235671
Ni 6.550057558678062 0.8259061220644321 9.182406725878073 0.9168312189448339 -0.6065641162876069 -0.09722240938928417
Ni 2.806840571733184 1.5327848535595114 9.353840207781213 -1.7834932732344444 -0.24898588724924217 0.39029268855225036
Ni 6.115454732378619 2.1641682252255987 2.7220079673068116 2.3349889877929977 -0.01433235746227209 0.043046951788145216
Ni 4.222058426641696 6.730554007591926 10.39643652175093 -0.22678595411343522 1.0943941743663992 0.6739360179743619
Ni 8.283092296614235 7.029898022697136 0.4218607251710264 0.9643752872723842 0.8072438602322937 0.30271474423126576
Ni 7.614545220160208 3.826308564438736 8.078545699447941 0.27353503734351603 0.3259636874568773 0.6449972234528246
Ni 3.3220464967601377 8.48379628295556 12.206327109002222 -0.6073868692992185 -1.0168098509230166 1.833213266167391
Ni 9.171679021064897 4.963052930537904 10.337710239272978 -0.13927974357065045 -1.464835118300045 -0.3144086356294263
Ni 8.584897544367914 2.1501546385961285 5.972272750104964 -0.4470220229234947 1.9855873810281544 -1.0216376113289631
Ni 3.5984220344927427 2.8053874454462657 11.554383816784098 -1.0788816805530967 -0.7096879787629906 -0.18137564429943603
Ni 1.1425114610503757 3.209910557606496 12.752994126344891 -0.6902856629769789 0.5294379634275657 -0.8307799956810208
Ni 3.058957982513544 8.309066928992904 8.018384454761657 -0.8321683913881152 1.0730149373596747 -0.01747630240789248
Ni 5.460330910000001 7.957537516108732 3.6958414371756176 1.1073299085914605 -0.20396869910860357 0.056409746248296394
Ni 3.1806391449643816 8.570220968870037 3.5301514369215234 -0.6542020298805443 -0.2976347586051971 0.4922189311751071
Ni 3.458776598319875 4.502193928641702 9.355474974853996 0.04629168397768802 -0.8030089962153396 0.12798540160375377
Ni 7.492355463508948 6.434034506706913 11.500270302063184 -0.10084715062606503 -1.0244437133191906 -0.9005023998778233
Ni 0.3147489701544053 0.18204856942907877 0.5387456626711038 0.4492768803959424 -0.849723369552743 -0.6224172812697797
Ni 4.5770390144572985 0.5140288927345494 1.7591937357124945 -0.1357149090375276 -0.8651561591680456 -0.7208753628383778
Ni 6.208972490981117 5.75586046860205 0.2903755013031355 0.7999159591123126 -0.26595876765815485 1.2500562159498148
Ni 7.980714880385082 8.894086490066998 11.127628780637945 -0.8857000447576682 -0.2552526940945604 -0.019362977907644074
Ni 9.334247524413904 4.928341376359138 5.67473333620732 -0.8955111173108191 -0.6401110990051169 0.586177582211455
Ni 8.013337565526403 8.94047754677687 2.605352805400853 0.574036833083863 -0.09678146519712365 0.8932968832683196
P 8.453716568816347 1.7755386818285397 3.614013171347449 -0.2091895811879107 -0.2887112308633221 1.4958217964895464
P 1.956689037571517 3.2732396175982625 1.5424599500186005 -0.4927989720482932 -0.6136907000300592 0.5435759454908444
P 4.619633778742597 1.1958775239374575 8.174451126180632 0.22546389286790203 -1.7048617394734704 -1.3963208754787308
P 8.413573955140224 1.5409132787269617 12.356984517818146 -0.8400367383925983 0.7321900165202486 2.027291188524844
P 6.596012677501859 7.80493200986441 1.5596867621500194 -2.177221212720489 -0.7535836517046763 -0.008034697379018421
P 1.6503427701712177 3.0649067182506164 5.928154927830188 -0.1414608103823693 1.6311245576903197 0.19300602944951276
P 6.899507184564081 4.02515981476424 5.929975876708483 3.547553377444942 1.1579960674877607 2.3369275995766077
P 2.4679170293880306 8.551330327140096 10.242762059481793 -0.733463998136666 -0.7312307379307729 -0.7198867736728634
