# total energy = -381172.8160671568 ev
CRYSTAL
PRIMVEC
9.19839123267298 0.00000000000000 0.00000000000000
0.00000000000000 9.19839123267298 0.00000000000000
0.00000000000000 0.00000000000000 13.46277535664715
PRIMCOORD
 96 1
Ni 3.678712542054022 5.437270145890769 7.55306106465633 -0.6115690257013661 -0.018026261374091537 -0.9837254096642221
Ni 1.1520984819650095 1.700046638217749 11.607281365185035 0.036283150701750415 0.066884163417059 1.9618041625656277
Ni 3.12900749310623 2.1145997271215338 10.42798324081547 1.3081724033662567 0.6797644517306809 -0.1560759891923828
Ni 2.8611227498705656 1.0894850339271986 7.981446694056554 1.1709292306096608 -0.5435731172773671 -0.033352864428832875
Ni 6.006448188741314 0.5047083594940878 11.20144651134078 -2.6572834539284043 -0.28891897599875405 -2.7625726994862227
Ni 4.0280122446818805 5.980904256730002 -0.076603281021608 0.3187627988330639 0.762268581073184 1.706338838239629
Ni 0.7851489065451792 -0.036111043676632607 1.923049671888129 -0.21087905307519167 0.2344480986443833 0.9583211106585044
Ni 1.3794919076948058 6.416521661192269 7.135997734828567 0.3603002559552182 -1.0940671300442835 -0.7092904862142558
Ni 2.554577168952674 8.53116738026917 3.5994205713216085 0.434414104351497 -1.5467044422720266 -1.4009491182793616
Ni 6.060047213527023 2.1590739479622587 4.745453634212704 -1.3929907826642332 -0.06534947194008746 0.7255475715030666
Ni 7.666215072447887 0.5376404392156936 1.3417702257411908 0.5219951339962752 1.0362571610143507 -0.1622936879673205
Ni 2.5700764579116444 6.388549353937533 5.018653207810679 -0.3996687304505117 0.6539878569872092 -0.34830271727370976
Ni 1.856244517038091 4.179546539227921 3.733820102975797 -0.2617069343603364 0.7711273170153945 0.9563665580352948
Ni 7.479119798011413 6.37409868156095 3.44589114575171 0.23349344804059788 -0.42437806027173364 -1.4502273956891991
Ni 2.5003342567918145 0.09962593403965368 13.031858266887848 0.20873938102436954 -0.7588747249002866 0.38161135872816865
Ni 4.997329497623921 0.16917404910783126 3.437639269119608 -0.7593709478104148 0.5298714514205585 0.29522743471528506
Ni 4.5261051213158545 3.9305828864305963 1.1905118829273573 -1.3134670761062928 -0.7072279472582723 -0.19041435746293656
Ni 4.261982520029281 3.177059888074575 8.467614776502748 1.4865722528668204 -1.119027142423731 -0.02435914557065482
Ni 5.959435211964283 6.138150752132731 7.753184940209412 0.21348075236409683 -0.6406823981275547 -0.5295914582862944
Ni 3.9701635632201806 4.670243909438742 5.048069662463965 0.9971164862591474 -1.3570634726400048 0.23055210602408682
Ni 4.8964967346754165 6.765398237830743 3.7608265791678077 -0.6646733617255134 0.1092510584190441 -0.23359346395357192
Ni 3.8781152637469356 7.900774044823996 1.4860617071558997 1.0856876477313366 0.2938387818978746 -0.10804084016102683
Ni -0.06511633024893013 8.775964161910167 13.102713473327581 -0.0023744137694475236 0.7587988773570287 0.8284480051137345
Ni 6.415491441392029 5.753823576296707 5.339619106414611 -0.6595936332097608 -0.3641072884061342 0.34309417648957685
P 4.943353338804196 0.9717732233586858 9.126159787828591 -0.21027818626639913 0.8966534584453782 0.04259649451428793
Ni 6.745124983904588 8.395343937676792 7.1879235722779935 -1.0140425725905244 1.2044224772710999 0.02808544538230647
P 4.474548139348478 7.006110933835073 6.093534876069473 0.4289080869316033 0.13745400321582135 -0.3912679079813261
Ni 6.296436665726774 7.244533230462084 13.368252626839485 -0.2089599816756079 0.39733905387607055 0.26065509605705434
P 8.412646111286183 1.684556547649852 12.75829535684247 -0.2899451032704233 0.01741870969707968 2.039377944486049
P 4.8295048524865845 9.199402896591023 12.98082099401613 -1.179431097433085 -1.3047795756346239 0.6643321763360107
P 2.024713049550579 4.382573427003822 10.275799539859635 1.1004072133296985 1.3408958617412068 2.391938151484532
Ni 7.897260259433891 8.575908354451029 9.128097888827794 -0.6575200385101837 0.21195891640293174 0.6193332430278172
Ni 5.843921816862354 7.294784040897013 9.58872663845821 0.48438477984266903 0.9599907850514435 1.4336368383203695
Ni 0.9479953824334997 4.219053628888917 12.064935355142259 -0.7273218897946699 -1.304954153539275 1.310014598781318
Ni 8.149535333017704 0.9686365720025973 10.818955334363041 0.6027719962350263 1.0260223706602198 -1.3126371240058297
Ni 9.321925465691015 2.6144402980594865 1.1594774312842298 -1.0577991488511846 -0.15936828679040943 -1.3462059611002106
Ni 8.34572781622594 6.758508642916636 1.2347791399689272 0.28803785894538136 1.818085409387017 1.1933883309441253
Ni 8.170774418006584 5.1517980789224325 -0.25303578052559567 -1.504186366404158 -2.6144007956322652 -0.9855925447799476
Ni 0.7961814567988227 6.597325236134418 3.116672450676569 1.269561118751962 0.2501377414654982 -0.7808473725166358
Ni 2.2283286343551896 8.53116738026917 6.026557711306359 2.2759875695581253 0.6641095188022432 1.4411483162060663
Ni 4.246952349015063 8.222064646632825 8.196447127492926 -0.142935852265999 -0.32675070213454693 -0.46472175419610284
Ni 4.179307381060008 2.394727528876124 6.139752192018641 -1.2937055772086494 0.9806395716500464 0.019654541006133893
Ni 6.145527861773736 1.684492158912337 13.060345684042705 2.2769838720331235 0.7640148743403293 0.6822828472771605
Ni 1.6984553165620209 4.7489913354196 0.971626968940616 -0.024971068123040865 0.05503780560143425 0.28657490124660967
Ni 3.9656563515941294 2.1220320271089808 13.006871757375595 -0.888688952182663 -0.36728568613411583 -0.4371618422999632
Ni 1.994110002448802 3.646554966860811 8.453828227961676 -0.4682079129724904 -1.0672901190607555 -1.570791050907585
Ni 4.950960408222041 0.24425039721122616 6.097600564923992 -1.0205544055671134 -1.6527868731551019 -0.9417236113111395
Ni 7.711535545267381 2.3272205367871717 3.3879477208619524 1.49489311402769 0.1352197145686639 -2.0248116166360997
Ni 6.3657741376393675 1.6258708126004568 7.289608106239912 -0.2746542385496238 0.1053866903676314 -0.10039797890378839
Ni 4.485448232770662 5.09325031973914 9.774796292289983 -0.11891454965073714 1.0212866557474476 0.597228697819294
Ni 0.08094492160833443 3.396312737704259 4.998176669441798 -0.4449348013771628 0.5157612372714214 0.10938912665880515
Ni 6.916831350074974 3.6853169868448474 0.9649756123553154 0.20126724101704044 -0.9689253685369121 0.1092816545466634
Ni 7.3584553039082845 7.926833086735428 11.470782760687856 1.0815412296631308 -1.1861974696226412 -0.6705179934317486
Ni 0.9706970116030778 0.7686709087759807 4.685301675626181 0.692937241667213 -0.18713517249103254 0.45433038365944983
Ni 0.5230536306512217 8.472334470962597 10.87252400445821 0.32294186991141804 -0.6431614557956665 0.10581786436777905
Ni 5.931094969066604 4.067169795482081 6.703209755460531 -0.684757276959582 -1.6127270290197389 0.6116137628963724
P 3.2358927973811475 0.998623326902445 4.6776412555401095 0.552406399298281 0.891264169109007 0.17978773098702583
Ni 6.795430984685958 5.314306054019245 10.742230634579263 -0.0983639791928951 0.7053212171538628 -0.5988772891663106
P 5.872777169660153 4.9814806698041565 12.704524322143683 -0.2921459675764839 -0.4815861340516093 0.28175613970172764
Ni 3.301633698383973 1.1120946791860407 1.7623988519490705 -0.7995428920436101 -0.09134152512847495 -0.3077790461280506
P 0.12330167282392306 6.708929315030079 12.772094783131044 2.216822114941563 2.009764749605307 0.25312947710397055
P 8.914593113779985 5.591260410853452 4.741023689071671 -0.09275691741876282 -2.1210372093297534 0.5138665913518699
P 2.0130494896692883 4.143608425303471 6.427155921112426 0.5298904775839519 0.529720784775307 -2.325213653573789
Ni 6.577990218097768 8.018789402297937 4.729553295402925 0.7532728053324769 2.1796645320546593 0.7908160536935736
Ni -0.14546427627658967 3.6216641206157227 9.858884304128157 0.5195559284271634 0.6561660955854506 -1.508023737872377
Ni 5.99374521066871 4.22557528816008 3.3422151601223624 -0.3509378409037117 -0.5703092477206306 0.4999610370143712
Ni 6.693972731144449 2.895515534094655 9.225528166918185 0.5441894107051273 0.02428458357897753 0.016032627982830453
Ni 2.702303329594255 8.899967671973004 10.683977223910325 1.307745343131167 -0.003000477389220639 -1.1130521557872186
Ni 8.912569467743799 4.64889444375698 2.388323609010702 -0.9363528339175293 -0.843137231694793 0.47041083416108015
Ni 5.306395437695973 3.3139503440314875 11.007312628054809 -0.5123254721169951 -0.4647945164155673 1.5741527682909664
Ni 7.665681565765619 3.2656771876773765 11.523570487380876 -0.4857019559921957 0.06447375420335347 1.9084655990434876
Ni 4.717026926438934 7.360672116157015 11.638663516010743 -0.46545014772169513 0.6722648009195261 -0.7856702478265759
Ni 8.059142743937702 6.710217089780379 6.733837638218207 1.0683926080963149 -1.8272069120723111 0.22381941528594357
Ni 2.2691143003754117 6.805310056698976 12.01399190585949 -0.5355165655214777 -0.18795149774474082 -0.07027853381058864
Ni 3.23700580270105 5.488284422784804 2.7223613411692886 1.0954460126696812 1.2195860723854157 -1.5921276076018323
Ni 2.49504518192451 6.496612052269868 9.634298227354014 1.5236169643249438 -0.2902230395221583 0.33727885535938046
Ni 3.2490832901806512 4.257355729319274 12.253265973499913 0.18874751128347494 -0.6835799688220292 -1.2182169599520312
Ni 3.8462428386770053 2.758312332841241 3.369072622378981 0.14797058647642902 0.15652490380434333 0.8516972054496623
Ni 1.1553915059693485 2.184838641359337 3.0797041169518793 0.7601237668160393 0.20839485320075724 -0.8523379243574547
Ni 5.627446881336889 1.8916675210624203 1.8085223443092873 0.043357798160344685 -0.3429746201925771 1.5916439830971942
Ni 5.922135736160945 5.689223275787004 1.5852286414809822 0.24267845697397558 1.313669421925086 0.3605172570620307
Ni 1.094967275007048 1.6119260517329204 9.334495986932158 -1.3780986960437491 -1.2056146978069882 -0.41452559295768615
Ni 0.12059366649186319 8.758367639786421 7.160756124242196 -0.11358825234181728 0.99665008814569 0.8382598489978337
Ni 0.35452254907943315 7.024719278976911 9.08295770447334 -1.8779473758499723 -0.08379096647472666 -1.4962000057645715
Ni 1.0131935783629846 2.0721583507080683 6.729422410502892 0.10358408994125387 -0.2692284395483621 0.5723198503927563
Ni 8.112189865258996 1.069487731733251 5.44631216431609 -1.7558184330269957 0.3541979997122222 1.4208337730184304
Ni 9.155186230700359 5.9006758897862985 10.919684155492417 -0.8712859262148672 -0.2035521803964752 -1.0550871492366602
Ni 0.31689653039298304 7.584818509837841 5.148097566193535 -0.2199571041170599 0.5341130003057317 -0.4092874844871983
P 8.44865781233922 -0.2792254395902725 3.7880749730450525 -0.795497518329643 0.18369400801996752 -2.089917605106814
Ni 8.159478793768235 3.401638606135858 7.205021541605551 0.3049282069428168 0.10898314946963811 0.4107221600511959
P 2.0638797987418527 2.7811979298322904 0.2675002504887891 0.7385871782958441 -0.688416213868408 -0.5163155671129945
Ni 1.6917680862515332 7.1791602651022 0.9313490541076548 0.07684513128451281 -0.0731766812939901 -0.2735756607734643
P 2.002738093275813 8.217014729933435 8.312227275935989 0.3900702881287992 0.9609238383886742 0.16613697297281066
P 8.030397771832787 5.277843631803602 8.434563117697184 -0.1627659996180487 -0.12375156602806431 0.6310523312369584
P 8.39325590290309 1.3832724464260442 8.299356887145844 -0.43826484555615497 0.43106112871886404 -0.4264830224298784
Ni 6.4428750516180555 8.015220426561392 2.145252445535108 -0.6770964179802146 0.27938121171164787 0.49178312918926914
