# total energy = -340887.63330799685 ev
CRYSTAL
PRIMVEC
9.12557705566148 0.00000000000000 0.00000000000000

0.00000000000000 9.12557705566148 0.00000000000000

0.00000000000000 0.00000000000000 13.35620444842665

PRIMCOORD
 96 1
Ni 6.53134871523247 2.0213882699966246 11.495685318645613 -0.0767523144603904 -0.6513069677209363 -0.03046680113028947
Ni 4.784238782104124 0.6726052022240108 5.807851996204925 0.26847227810862795 -0.8668140064864426 0.23415936375937094
Ni 3.006667673554354 1.9687519429053204 4.614768607558372 -0.2287055397336513 -0.00023474171862540217 0.4728083878589793
Ni 3.647410924315243 4.699599057109006 4.775777547277658 -0.4460223780143867 0.4401276097965065 -0.10982492864464312
Ni 3.98569605699115 2.4882619056273794 2.379888380441716 0.2646163946976475 2.0904397961588708 1.1699902637351591
Ni 4.750382892106077 4.882585123481201 2.2966257049885663 0.5359657372437543 -0.33735547423358675 0.18686546376941365
Ni 5.450880419876996 4.353885704902529 11.867201239307475 -0.44878811368498195 0.35601422698535456 -1.0035894955780007
Ni 5.7506373672235895 7.905532826080438 12.325065192944948 -1.0550719797280088 1.3669205679397427 0.8646460523008463
Ni 2.018075685611371 6.47835649064523 0.14235534814381123 -0.09893527831533284 0.12933137410868695 0.49927018159493375
Ni 3.004970316266042 1.9188532888596808 0.49704188003629274 -0.44015152105590644 -1.3247354499312605 -2.4412192571078473
Ni 7.784482049577986 8.799264442991156 7.025203031285927 1.0090001250706107 0.08919028311342705 -0.6415524594373337
Ni 9.252331080894944 2.217360032182087 1.1230473242346894 -0.8101175822356629 0.9610071421310997 0.18993818915746644
Ni 7.302779351616549 0.845338683040194 4.997758115954612 -0.7828775155727872 0.8811422501836567 -1.0029433773535696
Ni 1.147313145553775 7.720639514153096 2.3652500426665495 -0.06165145426320995 -0.5606141319200539 -1.1546366640972243
Ni 7.85896500757369 3.9510553673866786 3.5500255061771937 -0.03649115294749845 0.8056361494255416 1.2382965043107255
Ni 7.866593989794273 3.769757532725976 12.76306824119381 -0.09767878020041242 -0.06611746045436355 0.24031767005128288
Ni 8.06270263563202 7.318730859895952 9.05543946056614 -0.354529414909712 0.25259777297021657 -0.02127202200489885
Ni 7.4231092075503105 0.8028746364288964 0.4773735243185592 -1.1354575200656123 -0.20261578462513494 -1.8505152477809488
Ni 2.0041135530784833 6.495302686797891 9.006008036053625 -0.12222150253678304 0.4265426720232202 1.1859249326875447
Ni 0.24397959671423042 4.869398664977918 1.5938221439555158 -0.49761619093127846 -0.4830272373735101 -1.3332023497516912
Ni 6.441954564714714 2.194582592442161 7.014798961154722 0.41924973790623277 0.220395220095743 -0.428937397507642
Ni 3.520036123077306 4.061803367660615 -0.1771529976695671 0.49250509495695827 1.2295308423029534 1.1473650701364757
Ni 6.080161946153371 5.842769190787009 4.589899585611558 -0.443763406776881 -0.2952523744159496 0.1110109785329443
Ni 5.462862302240187 3.048782210573488 9.156439519682147 -0.39227680886181476 -0.43457968339508385 0.3779603922391426
P 0.2422502999070525 5.381489533746227 12.714705421726789 0.2911972305099695 0.6789676668609984 -0.6770606796462727
P 4.154391470064978 6.195253720993094 12.733791565643477 -0.11122386587469876 -0.4562689954430594 -1.2367489573179473
P 2.770926647592209 8.982715913781115 1.0244545922835022 -0.21182933280360294 -1.6943392426755919 2.0002192720087164
P 6.140126111430236 7.8206558360880285 5.711660203514786 1.275354328394971 0.0038630824998320567 -0.6210407126372273
P 4.685810310535676 1.042296007522096 12.43292951094412 1.0349271293490176 1.59951284432231 2.1199496326925296
P 4.02132230889206 6.33022100214434 8.188328063793778 0.4520462156109634 -0.23918818443253 0.39772420512963114
P 5.223005641132726 1.3382019614511214 3.620185678433794 0.11247110801823856 -1.8253667735397792 0.9609760317828482
P 0.1354983897221043 5.944063093476585 3.5080469402526604 1.2119272702885773 0.5741142232890177 0.4405220170214478
Ni 0.962511089394622 9.081135259772742 4.273651808395567 -0.6412801796125537 0.722349119170427 1.8052625465907364
Ni 2.0297929262468135 6.930966849708074 4.524855211719623 -0.5831133414638344 -0.8938087899077316 0.3850458383310143
Ni 5.840524298889563 5.843800380967542 9.582128514571611 -0.29284042254034726 -0.5125545574086657 -1.3152262248892446
Ni 8.697788028765203 2.483653489333845 10.316652580627093 0.34304841085330595 0.1049233775779677 -0.13286098452850023
Ni 2.262641144357373 5.455479710593711 6.821427075804958 -0.06602747184371854 -0.17383151340359093 0.16225820674369476
Ni 0.6674738903787543 -0.14709243507049222 8.8217991423877 0.08442757161746105 0.30981330294925996 -0.20834857334385407
Ni 1.7213758064991027 1.3511602805339318 11.093489208718676 -0.6267043386809078 -0.24031201362432802 0.9015622086009054
Ni 4.340854381205167 7.097572505690379 1.3140419968231347 -0.05716796457055961 1.3199801946344623 0.39737402087906404
Ni 5.768121972408564 7.920471395332945 7.820672262126303 -1.3137419270342343 0.04398231911822103 1.3227682989025606
Ni 5.391682803052917 3.190730557991177 4.6070757463000565 1.1155214432633176 0.2211341551442966 0.3805816319120736
Ni 0.6777264759347668 7.507767183699066 6.515329677684607 0.51471068451972 1.7633373671118597 0.2758976240384216
Ni 5.131968886787572 4.686987509945312 7.303920048718909 1.142979025253638 0.8209925772769538 -0.660533885635843
Ni 0.9260361588495559 7.09853981683318 11.215765550187903 0.724488534110933 0.027842733243881083 0.4593327219700477
Ni 4.383534703987072 0.5517177735466164 10.501502089785703 0.44371995513345514 -1.2635591355322562 -2.128709895383663
Ni 8.039760935509353 7.727647957149997 4.504058934707076 0.8126259504798133 -1.4657699714094885 0.751325708908435
Ni 7.216725162214504 6.096660989041907 6.876789212692062 0.16733150750154407 0.5069536662821205 0.6174365402257367
Ni 2.3797952995581633 5.3040863911684815 2.5115677162651187 0.30458316489857223 1.4213217683984425 -0.3538827824646486
Ni 2.658198397148576 5.392668365349357 11.31473516846171 -0.15387126823158015 -1.0461705634733207 -0.31388670168768523
Ni 1.139191382184971 3.7582410547805485 3.782329839909348 0.15532008486296478 -0.7861890964445234 0.5010226455096661
Ni 1.7110365279633108 1.2475941092164549 2.480821822846946 0.15158992839657118 -0.0911288948970366 0.3167789356338157
Ni 0.8752048708530268 3.7460766608809806 8.32112893300822 0.43437862312787123 -0.20288832156023123 -1.0926535375262085
Ni 3.9022609081361237 2.88423893495225 6.852987883233057 -0.5262662505678034 -1.306333550385305 -0.23020474998699708
Ni 4.00036998451591 6.957531403827836 5.99087182721135 1.0979903763580896 0.7689467644243079 0.11907061561262719
Ni 0.8074675392418391 9.145196809041286 0.07647872164599341 0.7237485706211148 -1.1320603214586054 0.5123144163734016
P 0.19469691910386525 6.084250204568229 8.050332003696345 -0.10374966898484067 -2.7280217009842307 -1.3797413738534947
P 8.413918710660282 1.65413855649759 7.873722890405183 2.3607020762883857 1.591217437082737 -0.9945014172338033
P 1.821939663043168 3.399870527526285 10.27630384272241 -0.7937712796671555 0.1344902926018071 -0.36975214539673734
P 3.8701936311945766 6.55547674034159 3.496841644476757 1.585122894149225 0.08803534357337743 0.21958455126898957
P 7.013434687420299 4.014103977628325 10.484766694457557 0.5279215267830392 0.3089167592769196 0.06708239547079416
P 6.543467481247943 7.957265721066673 10.402493231531574 -1.622536816021309 0.22696413156251236 -1.0357221144464872
P 2.734351335702135 8.839782004066986 5.768236954676482 -1.413568349705269 0.3897509571161675 0.5543190429399614
P 6.709835872232957 4.344933514043207 1.645698310497807 0.6412945777902568 -0.6025567949004267 -0.9804390256034664
Ni 5.5903466103999495 2.788520759699011 0.39016677456428966 -0.6268061543660947 -0.280881193295942 -0.29939853537383926
Ni 1.3029772349302418 1.2201717508757184 6.753685181405361 0.42246515951973695 -0.38851579915748574 0.10452202837449097
Ni 7.314788610710196 0.5768039842217194 9.239300669755265 -1.8702320094835854 -0.05230806537509701 1.2515870507720446
Ni 2.9362729739735083 1.6118871358261722 8.785537750340195 -0.4339824161307171 0.7266094371086776 0.2777048524504895
Ni 6.790989626883263 2.2671491793059 2.3494901715003427 0.16631617886315228 -1.3379262375899217 0.6141969502425164
Ni 3.9596607863268836 7.194385750161884 10.354971790247253 0.7768734754705524 0.12638437566522107 0.012265704741230489
Ni 8.378803491061229 7.245917882458104 0.08323894895342022 0.45475641545327483 0.10865173427214835 0.36106078827032656
Ni 7.646311690963312 4.040093620408498 8.436913339128497 -0.0795069943873921 0.07849732217595513 -0.9401177002766004
Ni 3.127535938520429 8.475269963613616 12.293637618938405 -0.04809994083102039 -0.0929057842918013 0.294969295957892
Ni 0.19066523926528373 5.007943172242165 10.404749986678885 -0.012852944703268185 -0.8821701772275388 -0.33969800632383435
Ni 9.078251577497976 2.9941473821588493 5.835205000161838 -1.2783008126178048 -0.5576517068576202 0.3078713487315407
Ni 3.721191212895893 2.7843686222464203 10.942337717079146 0.8938969787461638 0.572041399920389 1.1829486236680402
Ni 1.3799240986670438 3.3579202508898907 12.528693314081453 -1.2449600323738301 0.6198096684436035 -0.1789814330356466
Ni 3.2700318205472505 8.466253893716562 8.082319888119567 -0.03228945616132503 0.205717049258278 -0.5632957925172751
Ni 5.9100520686726155 8.045053770064305 3.4344007976512474 -1.2854204543817218 0.7010696409663603 -0.33588094657058926
Ni 3.391538875890647 8.860597444790853 3.676442121849148 1.0502141374150753 -0.4598142895921565 -0.9831409979156617
Ni 3.2727238657088202 4.23247903090414 8.88569551871582 0.4809467006953975 0.36344060135641276 0.2610469321788343
Ni 7.444335299231026 6.253684789364387 11.239219195170108 0.7892103997693505 -1.4426940634266316 1.7155927527377293
Ni 8.186646219986057 9.135797464917838 2.5176845904068146 0.5973197148712035 -0.39966564512671815 0.2616660538200719
Ni 4.945077073536896 0.49285141516106273 1.5409987425394251 0.47735589802034556 -0.9360972662632975 -0.6780734371815033
Ni 6.299048031731043 5.902423086452032 0.025785229859429284 0.08104091453341528 -0.5145309644087461 1.9341365214470303
Ni 8.410304982240005 8.565704429888724 11.35278699868108 -0.688984170556736 2.497661656366292 0.3742191800291555
Ni 0.06739238480743391 5.480730181651555 5.613318424926118 -0.20368973441560403 -1.245221770675649 -0.32422973548490613
Ni 7.513881320167716 6.224273055277135 2.3498770959574635 -1.1202023936787546 1.0712213357943616 0.18611187343284077
P 8.836788814870394 1.751335075195488 3.678659637016136 0.1686952206182901 0.9981436419720809 0.015575228730437693
P 1.952636174243177 3.384001149438251 1.7338486448951487 0.38521630247060756 -0.33541583400871267 -0.8521124386102099
P 5.077324932796115 0.96611569223808 8.344035043381293 -0.534815168579079 0.5051243263828655 -0.7290908087696346
P 8.963935476687858 1.5394939349219916 12.414498583443025 -1.266641888222638 1.149236833237892 -1.6139403326015493
P 6.623745180523637 8.004882980907592 1.2595331013685964 -0.3567701313147727 -0.2829416753693965 -0.28505255106481225
P 2.096665153175571 3.539309341318782 5.85331653247427 -1.0153319808259094 -0.5042807474356475 0.32134598617920784
P 7.042554403049348 4.144298582103296 5.909973588711973 -0.229704670422127 0.0477906371207177 -0.36217638993200857
P 2.210935626101595 8.634520404679902 10.22792733489016 0.9318469756273757 -1.0516629540464597 -0.8291200914800947
