# total energy = -340892.125816587 ev
CRYSTAL
PRIMVEC
9.05806884747159 0.00000000000000 0.00000000000000
0.00000000000000 9.05806884747159 0.00000000000000
0.00000000000000 0.00000000000000 13.25739936190826
PRIMCOORD
 96 1
Ni 6.522760506526288 1.9142507003905085 11.253675617206396 0.6059835611937886 0.017879194273265984 0.7355388783878235
Ni 4.442520698599943 0.5060253804554732 6.003732268560983 0.9190184564041398 -1.1198429534568068 0.02797205973289376
Ni 2.7276562047621686 1.5582595453964594 4.644637007035967 -0.3772127154398407 0.028722050525040854 0.7735125294181194
Ni 3.414611071141998 4.518970797786981 4.5870467125310785 -0.19627210179529422 -0.06396004779172856 0.5674244699736679
Ni 4.924274078370393 4.681381968216316 2.2318827463754025 0.9910134586852029 -0.5136729872838249 0.3711423408760447
Ni 7.258909743603369 6.4088824677846485 2.881615291358396 0.19850253378770974 -1.1454686244447112 -0.9166810665202149
Ni 5.254331982893769 4.127915859149208 12.030042678974286 0.5352990501940329 -0.12249763901630516 -1.1421447022778006
Ni 5.8553620103057975 8.025566555806273 12.419040530227537 -1.0810972001471768 -0.54240737910404 -0.9311059836962932
Ni 1.980899969326317 6.5024976070142735 0.30419349537424367 0.5078008447737642 0.13652172120953907 -0.26869622119397596
Ni 2.910284984360398 1.5993650608124284 0.4949011663782692 -0.35757668637646806 0.03334695089156193 -0.594315380827241
Ni 0.5578647071909492 -0.11634455082797038 4.410299336890448 0.5343084041459896 -0.31579343179209485 1.0737127347576476
Ni 8.57126084199394 2.1593529792888564 1.4134246513252438 -0.06172241671046145 1.9388372693568094 0.07180191243365053
Ni 7.094804714341336 0.5827608088041687 5.104337612934291 -0.2725559612596984 -0.25112324530721913 -0.7791969813974065
Ni 0.8132768797971983 7.444111014690831 2.287272836011509 -0.006519803396388771 -0.1622121839971077 0.3024990286760339
Ni 7.69515538660656 4.0968738579745665 3.902501292405247 -0.03652843394333709 -0.4301596999505173 -1.181390278041985
Ni 7.674421467526095 3.7272231354954397 12.584055895386289 0.1657119696202501 0.5829071389902993 0.6164361239856804
Ni 7.708343934523186 8.432083617585311 7.270384504936325 1.3780197631766977 0.844954230298874 -0.0931533815262331
Ni 6.9652562168800785 0.7614737853362186 0.36631825903233595 -0.6674915479005988 -0.5761600500744529 0.18264088416510482
Ni 1.886859100871361 6.468393978644701 9.222151913953951 -0.5511887248410959 0.27667075475902025 0.380368487460003
Ni 0.24393107062525743 4.869101382381265 1.676848685629471 -1.365529858239803 -0.26223478183934834 0.16564666359995342
Ni 6.298265333747669 1.972240455721719 6.994285515206455 -0.25126722708425114 0.2691957865382138 -0.8920766377079733
Ni 3.3270829540277393 4.28406790415932 0.2060230534335805 0.07536700407708956 -0.3475079892865564 1.2977491511504036
Ni 5.751719589109341 5.598275906617823 4.923585665154965 0.9582390924676594 0.7005649334158 -0.5876217708571493
Ni 5.227628796590049 2.948102420865834 9.381426275218775 0.5017250708933295 -0.6165142855217834 -0.5949715263540011
P 0.1742183628807929 5.457223662004012 12.85906701107441 -0.5741630742490821 1.043955300989557 -1.1558566525472547
P 4.223550947681998 5.9716404372328125 12.403834750428333 -0.3838937270044421 0.9766798156713503 0.7546804843132809
P 2.466022950624917 8.576161257119555 1.3338132861884102 0.7711059768591559 -0.45086916458372667 -0.10938552711437935
P 6.17867165370425 7.656640478817072 6.0620653246930445 -1.352309245784471 0.11835122094809941 -1.422724819393556
P 4.878503657613035 0.9396749809910091 12.547969455794908 -0.008109002260379583 1.5989199479333172 -0.22437914444415552
P 4.002669944284378 6.04742023934167 8.346712226610439 -0.917950934371574 0.42236565782739516 -0.22362324011473744
P 4.651408819139313 0.91902258452816 3.624228366205604 -0.23510218728861446 1.3408596091866327 1.5241229574270847
P 0.2730455147967002 5.828269327051244 3.7110907152759953 -1.6785290151162124 -1.2016377154371112 -1.055770034236298
Ni 1.5665748523933434 1.2122594400947448 2.5457384835509274 -0.5996295939513028 -0.6576511647714093 0.044485998227516935
Ni 1.5354332124638368 6.613748805854937 5.047118699242987 2.382722289313219 -0.013006182451680828 -0.24195597698565427
Ni 5.984747462531822 5.575005728322621 9.139333086717338 -0.5877312998518199 0.07629774342147505 1.67181355076925
Ni 8.931346244006063 2.206663271712304 9.966289461750588 -0.5249513884111217 0.4580322579910692 0.25756154473339515
Ni 2.202614315037351 5.244558326848411 7.129498022978335 0.23060841318331898 -0.3397751394186729 -0.7099175782752936
Ni 0.7441828381397569 9.069119467777965 9.11895605554066 -0.5593452925099593 -0.6487533480611472 0.5568901461012474
Ni 1.5190562243915424 1.1716249442472269 11.620255654421966 -0.5790098608184221 -0.29320551918924986 -0.8512038107530114
Ni 4.279357708474811 6.90825379102889 1.3760782343882585 -0.25328888549997025 0.765571934414804 -0.3461399052944361
Ni 5.5234743759203635 8.132795972177854 8.146432894491372 -0.9979027296058685 -1.220772379384033 0.030665804514972993
Ni 5.111169208290554 2.8333366913990368 4.8237575966561 -0.583544258353666 -0.7515918180856282 -0.3135002648825439
Ni 0.8398831447666398 7.448585700591115 7.008921542489206 -0.10159019943967665 0.4198945705790833 1.4426814650211413
Ni 5.095996943345259 4.442665627697927 7.083401511750511 -0.9733396955545237 0.05266236339072221 0.532088256566219
Ni 8.105132630599986 7.193166281529966 9.251397700120442 0.9722593180061514 -0.6357283965563889 -0.09395145194749625
Ni 4.767687246066327 0.5734971220223462 10.266184903562717 -0.9362936985448198 -1.0916304955783331 0.7157681235187996
Ni 8.062523475792425 7.105810267719565 5.19058944817942 0.3947664080528879 -0.05305162840934089 -0.778250301213421
Ni 7.027430799915603 5.891866026860745 7.179477728225293 0.8562696553116931 0.884897860571347 -1.030240779616942
Ni 2.467300138300909 5.4219153105074405 2.4602285041261083 0.015273895439934983 -0.013974717012537222 0.6199513362277904
Ni 2.436765388969214 5.148769251149012 11.195316292675324 1.388491609242299 1.547093193070013 1.5991760298081812
Ni 1.1560903565569698 3.4462237306399555 3.72532909334615 -0.3366666756966783 0.7374240112256784 -0.23785892409814524
Ni 3.5826835344613683 2.692365969402844 2.61529992154937 0.27773262036463137 0.5125676700347881 0.0615169855678747
Ni 0.8665582510576242 3.351114010087361 7.88836489616455 0.16731222422783443 -0.6039197366862245 0.010157143038659926
Ni 3.509657385214224 2.7481093237152883 7.18018063435052 -0.2692279253277299 -0.5133140612825094 -0.9541286698437116
Ni 4.019481719650626 6.644029929265158 6.213106807385463 -0.12047855170374734 1.3094618116016417 -0.07677365461662906
Ni 0.744667444811144 7.193003236294734 11.52759976465963 0.9359396576395106 0.881780655098604 -1.2515446275698832
P 0.03338170030023584 5.466580646892663 8.054969952366823 0.5054323445415876 0.44196414878461304 0.670063165282517
P 8.520834573963818 1.4290552545429158 7.606446097343724 0.1967546978586676 0.7063393740057319 0.36928754705549305
P 1.7030527723520044 3.3769566798717943 10.489983510864146 -0.6735542091549109 -1.8048444852167111 -0.9736477137132457
P 4.229864421512966 6.278446279598233 3.5730548075139965 -1.144844617707467 -0.061382516872539455 -0.43349904873639533
P 6.850834694020995 3.9617274741036415 10.440348012224902 0.8953668784234708 0.4229153596832781 -0.12169931148472588
P 6.30833790605762 7.913744698642295 10.240624845519353 0.6540122824672414 -0.08029066663095205 -0.47193395567382596
P 2.52951095361093 8.523416123521674 5.721203861721757 -1.0685373612042952 -0.5663358648951795 0.38941517104330353
P 7.014477761783202 4.016311395632207 1.621300079792444 -0.8481220865038942 -0.013060946949016217 0.1818736669817771
Ni 5.275899244287648 2.5613319486872412 0.6461527962627666 0.0026821748178534454 1.479004982042524 -0.5400118822886699
Ni 1.5762035793407156 0.9345934044929135 7.000370725708096 -0.11913926406703351 0.4469963118918818 -0.4749781418167884
Ni 6.907203055068499 0.8752748304945539 8.983120352647445 0.5266079501779383 0.01709937868444797 1.287386834079473
Ni 2.487291295754202 1.7432705970428157 9.196206887994064 0.2594718743822305 -0.6144538034483289 0.7051805778109402
Ni 6.306173027656471 1.9716697973984034 2.6854582862701384 1.4965938987688807 0.566678592946579 0.6481648225475288
Ni 4.2359695597655795 6.992267377517015 10.40644819039937 -0.12484325643034629 0.30183311295726084 0.10452871324271032
Ni 8.30735401263205 7.433984093969135 0.037898959123052876 -0.6642283037682947 -0.6413637404652955 0.9069391566421026
Ni 7.482109612568748 3.7099675147666122 8.178834511766485 0.4153277771440073 -0.09249723599947296 0.5779204844089854
Ni 3.3053888796731234 8.479348619665638 12.443912175055472 0.2987053659615565 -0.7327600300911058 1.185210166008707
Ni 0.13058292889812498 5.032771624349344 10.723552150983481 -0.6155120695095141 -1.5337921050857328 -1.4341526016145236
Ni 9.062688239054884 2.262986342416688 5.525339432250056 -0.6632523130082707 -0.284597980025897 0.3441043629216461
Ni 3.4937151844358842 2.574049477035416 11.53961166946199 0.69789381434154 0.13519708886084458 -0.4305049991050779
Ni 1.156117530762842 3.448995499638917 12.773490907748634 -0.6247860386122723 -0.12105036504681732 -0.5992344153954132
Ni 3.060232252363031 8.425217601568276 8.29003679703658 0.30939575579586714 -0.22606733077985583 -0.17466120839373792
Ni 5.548483703391383 7.9956386970723905 3.721935035032716 0.5443431626741722 0.18702718615825853 0.24320861844583275
Ni 3.042288218418775 8.343350777344051 3.514178267264491 0.21216589020741522 -0.6578853922694025 -0.22636635007751335
Ni 3.300108025665298 4.0892560222617345 9.155493586949518 -0.6024341532796335 1.10003851713637 -0.1240590699661541
Ni 7.224516257037827 6.159948625858324 11.31066898498896 -0.6401902889824845 -0.4735347245020426 0.3407979242562324
Ni 0.6296689229807083 0.20756926574770695 0.40631144362127075 -0.06757990393250297 -0.5944357084551892 0.13228300053784317
Ni 4.778647509101436 0.37334097963656704 1.5715051591454174 -0.3417893416352243 -1.6449349812108511 -0.5954140132080583
Ni 6.247866239923418 5.796683841759159 0.2800039231137005 0.3471315797837441 -0.47417004409319624 0.7287120852739772
Ni 8.08488784722522 8.856662468200716 11.199453112615931 0.1558042235882349 0.6921160313174983 0.020261835572829623
Ni -0.15591019457784966 4.80701738003198 5.922583749178647 0.5292713559427143 -0.13482762133656778 -0.30753941931341877
Ni 7.9351217405950685 8.74875369668233 2.6206432762307013 -0.7790645695846002 0.14027064672901005 -0.49828724885637415
P 8.543298584151477 1.540886169775519 3.452412203123911 -0.5548654023617346 0.6553636542888133 2.0359156969690613
P 1.5657777423544266 3.1596717297179246 1.5958061456500365 2.422283339435293 -0.030530821599005484 -0.03154974978182308
P 4.541081543298303 1.0660803286397191 8.161851538903242 0.06071197316807609 0.9877419870227828 -0.026157889342290432
P 8.505562670263657 1.6656701231405227 12.49040542968903 0.8333341295614423 -0.040004565417395624 -2.0201862020489467
P 6.47372918106427 7.797094890901694 1.2251400136781534 -0.07070430849409759 -0.2855261482671212 1.838900803470472
P 1.9234808723184222 3.3818118046542893 5.786417426780653 -0.29613066325584486 0.07345487465604124 0.8519329756095521
P 6.664120725473317 3.8546882771731648 5.807880520385355 2.217048886240388 -0.2971853297726043 0.8310990695833362
P 2.477010387865898 8.465236148749359 10.544417974260414 -1.646214362143907 0.03351227282483261 -2.23874976825259
