# total energy = -340889.9416630237 ev
CRYSTAL
PRIMVEC
9.10287355885928 0.00000000000000 0.00000000000000

0.00000000000000 9.10287355885928 0.00000000000000

0.00000000000000 0.00000000000000 13.32297558595603

PRIMCOORD
 96 1
Ni 6.532968480119225 1.9614871880527736 11.337825602575604 0.6169763127598664 -0.3147541918943031 -0.21335785363298737
Ni 4.7726365913127395 0.35733967239671083 5.993700597944413 -0.016550705269829557 0.8147679365234807 -0.3215845845525752
Ni 2.707731657095739 1.645007584066182 4.591576795669316 1.5932542650071075 1.1696704185018953 -0.18540507717380325
Ni 3.502439824807691 4.811742535993798 4.945408220607908 1.3256196523084265 -0.6817035777349227 -1.1122319738787685
Ni 4.018973280343548 2.8170935796744754 2.5581841890353916 -1.2943673791623642 -1.0735584685679704 -0.17680370865803743
Ni 5.166445105929126 4.761622114342516 2.415309127271881 -0.5274250467625949 1.0494985994052894 0.7246332872189133
Ni 5.517952567255736 4.368851327308447 11.83193503945985 -0.4443210790525638 0.0730355277304355 -1.4496288428732518
Ni 5.963665666735112 8.069706486430164 12.242961639356551 -0.9294105982717412 -0.4532674896125742 -0.7155063852169806
Ni 1.736482360160215 6.628894561368993 0.41448478155040913 1.3787880088012898 0.5224677027573196 -1.3817764020056524
Ni 3.1572679634573424 1.7580106560565618 0.3804418551262409 -1.1010664441802522 0.02510296571521483 0.16140254361161882
Ni 8.113928246034584 8.75842989764268 7.080802166284929 0.10833780257615536 -0.8126259504798133 -1.2872935030347186
Ni 8.487400941186937 2.4315777828431084 1.0879353915557826 0.9276169967064284 0.15935388861270622 1.4013895482508898
Ni 7.161494588683731 0.913573490255079 5.139990334878825 -0.7210512262946097 -0.7543303000627137 -1.8845486832165739
Ni 0.75663357860174 7.528303980412776 2.3236331776728547 0.05556950973518817 1.764175803852755 0.08049789754575169
Ni 7.666167000011157 3.8992704934357425 3.793597055211002 -0.00883893844786865 -0.1700314229312104 -0.8165669374054324
Ni 7.7374789112382105 3.902401881929757 12.820472513801862 -0.9419624667948229 1.0339115436003097 -1.533857153995713
Ni 8.506198375024551 7.0421104023494445 9.192759853773902 0.005273075473481241 1.2208235443369426 0.5410673201363778
Ni 7.149797396198824 0.7237394348169456 0.21302362575354275 -1.4410310739019117 -0.6495740441902297 -1.024316957933339
Ni 2.0182436045067784 6.7008982909842585 9.327202013500044 -0.10415590328432385 0.5195435871319891 -0.9157058470911391
Ni 9.342188074191018 5.153937757700128 1.1912994307661877 -0.8280273726365481 -1.9676999592247726 -0.796871515859034
Ni 6.434857709222469 2.2354927841525347 6.96851549044129 0.42766161611901193 0.7210278292558421 -0.3188525303333928
Ni 3.7648028456637195 4.198973501508183 0.1108811921707445 -0.6034895911273414 1.173001025537025 0.6726011012130223
Ni 6.033930747506318 5.662415170162723 4.621793784349199 0.43266832530498384 0.8101630907616176 0.20785929241226136
Ni 5.369275333904771 3.104352959632622 9.259175329329647 0.014327472366265647 -0.16531293440961853 -0.055214954609246844
P 0.24486911850778362 5.681704159170908 12.252941119606515 0.009448032786777277 0.2417852557357449 0.08913680416767229
P 4.204153036546248 6.3538785463075005 12.283663317767262 0.9143315924514317 -0.38259300591514755 1.0811884743094025
P 2.450976006333643 8.889465762094227 1.3375197985516456 0.9924152241287361 -0.6086521091648873 -0.1497176510745228
P 6.720778966771837 7.876670950371842 5.531193607091181 -0.6532067558468105 -0.28923342191537926 1.2508637994527747
P 4.995911873234767 0.9387702441836573 12.459806651417615 -0.9385123034626933 0.41800918063091236 0.12012476790875441
P 3.9347261858316287 6.450523754566069 8.004643697880844 -0.8047038674192593 -0.3062556675049887 1.887882375575497
P 4.888261290879504 1.1357382216065546 3.8895231364607707 -0.1656929434568566 0.8279404693496968 -0.7408937149418338
P 0.2839104327867865 5.679574086765097 3.211396380323493 1.2080587884721066 -1.2509190781707422 2.4294849993900547
Ni 0.6728926038580391 0.3329630873731053 4.44990058234959 -0.42966553392291806 -0.8957456019191284 0.5126129214504268
Ni 1.900607169890081 6.55974003116834 4.455363216754409 0.3263251845613541 0.7844929396890231 -0.07294708178168728
Ni 6.465589010256748 5.640222364498751 9.114687238376778 -0.5962766183186698 -0.07787125855618202 0.7055942683095912
Ni 8.828221628990372 2.327122309096563 10.255853503468742 -0.08878816257900192 0.6368409128942774 -0.8334899384130161
Ni 2.38498017324759 5.409100405594631 6.850007910827856 -0.40213390416155265 0.7333894361449886 0.6489883468900888
Ni 0.7913310016326512 0.023768513071860946 8.853769753837174 -0.11709549416412736 -0.3529864959026243 0.3257520856667035
Ni 1.6294689789519898 1.3350001231587878 11.435216336176207 -0.06092640317172733 -0.7596884790508336 0.6171184947646856
Ni 3.868721249872047 7.194328653503233 1.3750773444454034 1.0086005756393468 -0.3861786663838769 0.3867962453632177
Ni 5.601107316944162 7.807889637985882 7.621594779775867 1.703287453007815 0.6736344275735431 1.9547061180682657
Ni 5.2598861027054475 3.213004858076087 4.624871465889392 0.6032293954874192 -0.5503158353178393 0.6670526605909674
Ni 1.071553860352795 7.488660966193499 6.521023689474325 -0.7721655284719218 0.2268376332869771 0.4799534835441928
Ni 5.243218741273646 5.088078467717013 7.11505536908762 0.5039570455476418 -1.9444304471738705 -0.5355394483396132
Ni 1.0666656172676627 7.740237081917532 11.718396718505959 0.6217750197000904 -0.8829119404895697 -0.006772028616510918
Ni 4.712685066250017 0.49332203832397814 10.133601911972784 0.06431383158672149 0.048625217206871095 0.20460196181722826
Ni 8.354653736511915 7.303344666887863 4.246938362707773 0.04503390031118695 1.0759457378532244 1.4395951127863338
Ni 7.6729668465374035 6.396143188103162 6.997053909242405 -0.6154470205995336 -1.1077258584782987 -1.1918862924773022
Ni 2.6769184301996996 5.2048774379690315 2.4814578886332233 -0.27299587701059436 1.0394633266564743 0.4154468192203748
Ni 2.4786396389886103 5.5816635790859825 11.375636208353471 -0.7752868477097229 -1.1903176624386018 0.2858272244473078
Ni 1.3014378284569568 3.4385103440127462 3.6808315682197317 -0.7838306235146759 0.717856373506396 -0.6476930251174329
Ni 1.344467111629063 1.388297447671731 2.3179975886709823 0.8238621855152649 1.0796023607692053 0.6355255365169635
Ni 1.2478674177381404 3.607532499701274 7.992719843845063 -0.1945576902073488 -0.9437668669934134 0.384003513109429
Ni 3.5510309637060837 2.9188363971093456 7.118212245627515 1.1279133891697672 0.41523444609925264 0.06678466172471724
Ni 4.378263698537547 6.98032919970737 5.920023760174497 -1.3249737911943116 0.454658713533146 -2.2040766423504365
Ni 0.6141299140782178 0.25794448604499826 0.4194176287158342 -0.8280980779734837 -0.9362451046950714 -0.9599990125815596
P 0.435090956358257 5.730668515883996 7.887734582859124 0.6030190792488259 -0.641816768842314 -0.3431412276774284
P 8.783317153871268 1.5117688242205884 7.741541523694253 0.12405701308362506 2.4865215805890726 0.21165089824420968
P 1.9023185101135538 3.410755682622488 10.393785704905945 0.30347476232574183 -0.26854041234240206 -0.015696327689334256
P 4.080171899079759 6.534752643330931 3.6118317868690726 0.0367883724729431 -0.5599428168846421 -0.2999742053716511
P 7.113922971620598 3.8352317781584486 10.347048821345432 0.3096245839772216 1.1284016416600953 -0.25392831885618206
P 6.538302764007284 7.82644129423821 9.812944089036332 -0.0373172483932196 -0.46140785933152145 0.9464058472781571
P 2.6797130123731367 8.707745097832591 5.6953985221081025 -0.9442589761384835 -0.13415964873526573 0.06436165410552142
P 6.894889628763138 4.091268301911746 1.4910670692406849 1.2710454166069725 0.10465521151824556 0.22299794782591273
Ni 5.649498192624915 2.675389147446809 0.39666590661717493 -0.7537733991179792 0.2924611848240576 -0.4389531298724311
Ni 1.6887468913735586 1.337394178896944 6.655332947246943 -0.8998524249986501 -0.1463875582600253 1.3930771717304524
Ni 7.034646046055573 0.6044781372753018 8.847468744780322 -0.9447163753908762 0.9017049048263568 1.2299812995768107
Ni 2.643492678600805 1.6621665006685555 9.206415984642273 0.6829991566178947 0.2525162690000038 -0.4995260063594816
Ni 6.492105680847047 1.9355166898742207 2.5177355705087883 -0.7067803181978924 0.9759853607074869 1.0555509762469564
Ni 4.385008927822619 7.193673246609137 10.161726150028326 -0.10477939580093566 -0.6441927252736583 0.05077234545686095
Ni 8.141573672942492 7.313257696161065 13.286683463894091 0.8799027213496007 0.4972814332996791 1.0209848082363127
Ni 7.923823835252636 3.838936647684797 8.172259459609124 -0.12018955970841881 -0.2186083033986493 -0.3623201145987244
Ni 3.2666662975301946 8.429160756347686 12.528220207712998 0.7477593317134155 0.323871580814539 -0.1975856784003952
Ni 0.2936359428652884 4.983277084776361 10.085092698936155 -0.3475234159055241 -1.0649069635405595 0.5011504293367821
Ni 8.762571705098425 2.575658065061872 5.654497490767103 0.5937865049069644 0.32773466331437107 0.678910845481134
Ni 3.7718939841428964 2.62440395281026 11.534272895632636 0.22794526452885902 0.39645947948459465 -1.0525116752
Ni 0.868615308182154 3.424091392342635 12.53017823580911 1.7221015003905247 0.3622589223434858 -0.21029155600283783
Ni 3.1220125342790963 8.51060416581264 7.8804067696681885 0.43703431558316347 0.6754987344757915 0.2860115725439719
Ni 5.726362856704725 8.102658888605545 3.5506531944546253 -0.25531979988706993 0.22065078774997482 -0.13567685671074053
Ni 3.0794930120246207 8.675393485310131 3.56866596059403 0.8022425503629603 -0.9640554420391204 -1.300244920989064
Ni 3.4921353719727377 4.535515838752935 9.234180659193415 -0.15560393465197073 0.45082211339587525 -0.20193444228739416
Ni 7.275544491129959 6.100190563924715 11.468724013636864 0.49578505125981065 -0.49658440723265446 -1.3859852978806777
Ni 7.723351251521031 9.100843588313708 2.2762436180803043 2.7106634122114412 -0.7096175305363713 1.9997829558022464
Ni 4.904564537370141 0.37719577042576 1.3550000465895968 -0.4095991021903462 -0.15966910586027985 0.5754229147981123
Ni 5.9846204815991255 5.817619163834061 0.29084591212861594 -0.1423378136706839 1.0716594517730447 0.47621355688578637
Ni 8.416880979956916 -0.3376665421255968 10.944718009220958 -2.0377900311736385 1.2177099384086254 -0.18938694463968675
Ni 9.185618649490316 5.056200204618067 5.390822745835529 0.28490214152987703 0.16985941612972036 0.7143830702458148
Ni 7.492602510431604 6.093873169695511 2.4368656420761687 -2.266454433256709 0.25280423255406786 -1.140655519326784
P 8.528136300229708 1.817780123648703 3.393841633318047 0.42643622835234296 0.2628176509260119 0.8799299750431103
P 1.9499902587855065 3.7519222796200276 1.255065970124961 -0.047954930612723864 -3.08287276089942 -0.8533383405975111
P 4.85431667548945 1.3457779254172548 8.065050366620024 -0.8811155107107793 -1.0449670300835228 0.3078422952658182
P 8.622824390679517 1.4675561674896977 12.29560082611334 0.9996927316267556 1.0366559391146664 -0.9518907816521285
P 6.415687057570163 7.906419141064976 1.25746093615047 -0.8882233254001543 -2.2991344399882343 -0.6552016747896522
P 1.9669307064231816 3.5219836942746916 5.747891152601072 -1.0015560100877396 -1.0220263621269494 0.21303672284814276
P 7.009540320862286 4.20730263078732 6.011752506439993 0.41804131942042844 -0.12551174325228062 -0.34697757070438306
P 2.4297207966431693 8.710530577132499 10.330089257673345 0.8152549034622282 0.11390758335444899 -0.8392013869754966
