# total energy = -340888.03619906603 ev
CRYSTAL
PRIMVEC
9.13321229966365 0.00000000000000 0.00000000000000
0.00000000000000 9.13321229966365 0.00000000000000
0.00000000000000 0.00000000000000 13.36737939980509
PRIMCOORD
 96 1
Ni 6.405541925552457 2.397897494144147 11.768266455267648 1.1747925702198092 -0.9517997646002189 0.010273356901550049
Ni 4.785949385410762 0.4525004376306897 5.9501818791453704 -0.1856390475614803 -0.3940123034956827 0.30052005057279213
Ni 3.0049090511446397 1.6211269198109206 4.787660949398934 -0.18125197423737816 -0.8840851348620646 -0.10506993045816099
Ni 3.4926134556505124 4.078372027589764 4.629297441073897 -1.2323410580582388 0.1918904277878308 0.797965006033529
Ni 4.975618805594164 4.71639084040586 2.6531178057678293 1.093188584094072 0.29032022722165485 0.041221211433316106
Ni 7.311647919504172 6.452696700744199 3.061169639016251 -0.2537840799688339 -0.6130718354991377 -1.0854333656286856
Ni 5.1917836747086605 4.390919686283663 11.645927989605076 -0.22895519385061214 1.7502365680638436 0.4520012213056409
Ni 5.787524847710197 7.802320618013011 12.568638163548767 -1.0708261572384719 1.1029217522214358 0.4706604882780411
Ni 1.8828847848109826 6.8607868934843514 0.340157359527645 -0.5777834446104889 -1.1596379739665579 -0.7215389645643057
Ni 2.9670610193037374 1.7674409811263776 0.21456016371043107 0.04665986595038416 -0.9270215292142745 0.45835878809255254
Ni 0.6057365605610644 9.135860948391901 4.6610043009529685 0.10152257942653484 -0.06170570453991309 0.15923844608076448
Ni 8.835807524147414 2.5678300425109004 1.4880432298576094 -0.8107534160474488 0.27485452748588796 -0.6838188243057126
Ni 6.997191419436058 0.2940684302132761 4.766393351197987 -0.14301812756716012 0.616145589328455 -0.05386769655273303
Ni 0.7938168018013392 7.361460459480108 2.468821454390413 -2.072036868171651 -0.46569260274980445 -0.5473762930735412
Ni 7.742781206919661 3.997643563921392 4.004345515119475 0.2550768306383285 -0.014974619031961308 -0.08688168958490844
Ni 7.705143238962045 4.347993588394608 12.985259689914063 -0.02581798950436844 -1.1771250750077273 -1.265038291180944
Ni 8.141710787706042 8.844931603251917 6.875070324226626 -0.5079895637458026 0.4700627067930421 0.8035327299292936
Ni 6.840803424935149 0.8858549222816297 0.48195048074627594 0.4735889747787456 -0.1756461980148265 -1.066460938291241
Ni 2.100629699656289 6.06030649997666 9.425499770631522 0.3286605175627501 0.8445852769952292 0.9068406833910254
Ni 9.154584033641383 5.125586151836348 1.2215845004780803 1.3685527042265269 -0.3366808167640653 1.4842094090615987
Ni 6.567062785375419 1.7588100954869825 7.093226233626189 0.4058193234329398 0.9055602740167049 -0.13862308382325803
Ni 3.0775363554879926 4.401733409666777 0.4165685537338564 0.9922982389348973 -0.10394198750130486 -1.5772519760415804
Ni 6.008238056558469 5.6456860604299814 5.1841903219884555 0.25085533635781315 -0.2569503935119575 -1.4535410334434644
Ni 5.8552384838271 2.8804690333279668 9.343035996622953 -0.44434061943658965 -0.24643329603071754 -0.2787821446750683
P 0.06980879502238217 6.1059999611977105 12.503031559513355 0.7280865358748363 -0.7761031729634311 -0.21657918878376248
P 4.081139390921761 6.212246620079278 12.507963494164438 -1.0877404164953073 -0.28572952252717887 0.5109540456907652
P 2.487832235827874 8.677519821484607 1.3022234586657475 0.056326699616186866 0.40622324373957774 -0.29032254121449996
P 6.25561111215954 7.657011210052404 5.99580410131035 1.8450704226162933 1.0686291495871532 0.13364131433795048
P 4.783501684509854 0.8743927408240204 12.644471225415327 0.3360105301699181 1.4295518696177185 1.045557098259038
P 4.053246560506192 6.033737985347031 8.490504512800472 -1.8019604788006967 0.3714963817813538 -2.1520963926284034
P 4.9649238139711676 1.2376872671138657 3.7574638263410494 -0.04100318188523906 -0.648718895278786 1.1945029041645427
P 0.10788150388627812 5.613043959609667 3.5963731408182094 0.6400329374690138 0.25477395468592895 0.6522657320897799
Ni 1.4280416782210286 1.138610179901002 2.273363404240611 0.7111655917497817 -1.0499863376749852 0.4194019472133809
Ni 1.8074170514370986 6.344678198673169 4.9595114723522205 -0.15516453312170694 -0.7830672629860901 -0.6736966482700463
Ni 5.722660773836141 5.331485290306739 9.432276614170602 0.6890931853307746 1.1524651103672021 -0.813298808177122
Ni 8.699065069339985 2.4388782178097186 10.300741900201007 0.4354307185414694 0.08219559696314876 0.7077141428660715
Ni 2.2583054770938698 5.583205754970615 7.158284844922593 1.7008017104714839 -1.4769195602684049 -0.3437156121236597
Ni 0.5937400861829213 -0.017489188265478666 9.146308429961113 -0.07867858494882579 -0.1655906135510374 0.5992863516792711
Ni 1.396605161426534 0.9090578481725109 11.460027846144826 -1.6649628463960036 1.9102422313279361 -0.6366290539937874
Ni 4.093487493974101 6.9366473549878584 1.3170238292251546 0.5700148564086635 1.0785523222381361 0.7366436814162282
Ni 5.632132373351821 7.659906438356836 8.242259235423147 -0.3142453705786846 0.4923168902055522 -0.18958003448709929
Ni 5.504157802368538 3.0196226561870367 4.933926604689112 0.40700743020377006 -0.7086042587805087 0.40004462573269167
Ni 0.9964060641281143 7.53840731490618 6.994842357228173 -0.6092262365008023 0.7118893572896836 0.6335139054035733
Ni 4.946081996961567 4.629881053340942 7.055650371512328 -0.17318796628232108 -0.8134451039469992 0.22021678553634974
Ni 8.016594912177926 7.4174105181329475 9.081757625269525 0.32375253873817145 0.5073987242393391 1.222939562238681
Ni 4.9550051453951 0.741378463284317 10.48844676641506 -0.5795294807673179 -1.1913329910769934 0.146294998546219
Ni 8.48215127681551 7.102926618427884 5.161439490107257 -0.7550039290909707 -0.27798793090854707 -0.22342243695784103
Ni 7.337220913991268 6.050652694557781 7.336191600963162 -1.384888208161757 0.4174929031161262 -1.0166283310398299
Ni 2.5257989994288947 5.254346179078877 2.41630091696254 -1.2818293945963537 0.8295741482983777 1.7431197545134045
Ni 2.0413734181447603 5.242272072396041 11.687220155810651 0.870965823871287 0.31277212846726776 0.3854309895845749
Ni 1.240911291061703 2.8981417991610137 3.8236987953838595 -0.16531730528499272 1.5849310898533928 0.09655032302292405
Ni 3.8005214424874656 2.6713915369713224 2.46609427719261 -1.1070889962252481 0.11967533907616164 0.47256001929359903
Ni 1.237276272559609 3.3785213673887964 8.15527817460268 0.09821948319523086 -0.3554074466392911 -0.10020077529131777
Ni 3.4773518578691056 2.521889984557296 7.094682980990721 0.09019095646379952 0.42003855235611537 -0.9054731136195373
Ni 4.2171877215931115 7.061763230515976 6.054915164746042 -1.3319941883762028 -0.16173035926468277 0.022452672576561333
Ni 0.862506778314911 7.599271041785468 11.152084239779835 1.059856802711162 -0.9894432859846057 -0.6639501104062436
P 0.2662742384907294 5.927345195068394 8.303441711412292 -0.0035146980214778175 -0.24489757611248147 0.19910725725124417
P 8.651179637162898 1.7687744301246333 8.153673469198614 -0.14054266944347407 -0.7304861464552646 -0.6294497626365287
P 1.7881003073870245 3.3641091583528544 10.455429290568523 -1.1370202365670417 -0.3254687500983298 0.5882596615514643
P 3.885606448430961 6.0462413530087575 4.014838662750269 0.4663119815013582 1.253405334927706 -0.3638280666028186
P 7.067608486398741 4.2617851973361445 10.501640604927937 2.174228705751068 -1.6157465325723528 1.6001160251239477
P 6.332951154058371 8.042752432253298 10.361349897135423 0.48177536724428 -0.3511697544088597 0.31270476556444204
P 2.453628355701383 8.528356197926302 5.705812737075303 0.7566988002948902 0.7866403250493291 -0.3315031292178678
P 7.018280006675596 4.187532181200397 1.792659606975581 -0.1650627660720254 0.22672399052724826 -0.8067100992160107
Ni 5.173243253705515 3.12188723449847 0.47005721166731285 0.6710856930097604 -0.4604812337521941 0.15767495824838654
Ni 1.3678903419024517 0.9219886501706647 7.142604946017076 -0.07620389815608812 0.6638341536536697 -1.3849946518326341
Ni 7.045204716585581 0.6999703052823184 9.310540027199707 0.5813133121406182 -0.2758289755840153 -0.14936258172794922
Ni 2.6347399559439237 1.545704852498621 9.163512662002306 -0.20065069047896408 -0.8329582342792623 1.0199856775478369
Ni 6.6182909732604625 2.171613025782614 2.563462540380997 0.18309211276991047 -0.1531801557018265 0.8583429929009541
Ni 4.2436466376749395 7.046191103515798 10.432504014332071 0.10594050598857238 0.9353552458909504 0.6682142849992362
Ni 7.928660343991583 7.019659121735436 0.6263885802518578 -0.7574971278264696 0.7346163665735542 0.030833183330772704
Ni 8.058662488109197 4.032559834608595 8.39603787116514 -1.4651935300807284 -1.101598148314006 -0.19890336877055423
Ni 2.816344749651573 8.649974053137077 12.326287461400716 2.524660296442323 -1.1819296954852223 1.316288604715488
Ni 0.06592261318157526 4.983966561651737 10.28859107453471 -0.14859073655893118 0.13512406953106407 1.1426923472511548
Ni 8.936208927146216 2.324155937898142 5.776058099646429 -0.7032352811591115 0.3044093583248693 0.421887432639396
Ni 3.7778345430924842 2.7248938947232544 11.277791034144853 -0.9241593771751311 -1.593378706400114 1.7371856484171564
Ni 1.146218145760913 3.0733990103084725 12.648548291393555 -0.9064987266705743 0.2523013247757203 0.04152897248172203
Ni 3.2128722955986317 8.619615255395967 7.827736521248258 0.4621197977968815 -0.2385793472039375 0.9484781564261536
Ni 5.372794809615716 7.747247347742586 3.7077499250581343 -0.6105848074112259 0.5099160913445541 -0.020237667203113534
Ni 2.633826634712242 7.924386000627311 3.4245354043621674 2.5693211296848073 1.2276706491657632 0.6747348597265734
Ni 3.4883847783478243 3.7784008022561273 9.300167437971496 1.0845566194506868 2.1659145294584183 -1.6526917423381344
Ni 7.223256690701987 6.25802228021118 11.483327584086263 0.27008615956296717 -0.1979479468358204 -0.5389489882417944
Ni 0.17181216346155495 -0.1794265225700878 0.4242952513538861 1.113836599361727 0.5089712109327815 -0.05684040602781179
Ni 4.832108640459971 0.6577620778813663 1.6646667695676651 -1.3313400997319718 -1.0812226699814473 -0.2292202745865407
Ni 5.827327386986898 5.583470618127803 0.36336576534591636 0.08091698736104128 0.06795862742816038 0.6280888777332602
Ni 8.149958078428131 8.730145390854124 11.620115704955277 -1.4846482963712302 0.7348045713249604 -0.24867169844293302
Ni 0.043475003949294995 4.954256221985122 6.425645952504242 -0.11266471208628338 -0.8025590531621145 -2.1758803824218784
Ni 8.088582891659101 8.899502546844918 2.6461665178734974 -0.1348466474999613 -0.057496551554571944 -0.6208586785334081
P 8.665518780500305 1.6171905053023714 3.618015200724146 -1.1892341995664357 0.09516989773562963 -0.006370936523350319
P 1.7318762523646802 3.321256126162335 1.7024691353469832 0.2837690563666984 -0.3969179071782519 -1.069772776273293
P 4.713285548218142 1.24924991390696 8.40735940115307 0.40214933078052034 -0.32369468891704256 -1.970647986109503
P 8.577693810861764 1.5412295784633794 12.596736491241465 -0.0805053537449194 0.8686834555950136 -0.20840230939992493
P 6.2761151738108 8.131015796083046 1.6038450554650339 -0.13850995528416146 -1.109615362191528 0.23733981836988155
P 1.6799630735558753 3.605162031030685 5.8626519122646625 1.2187764319999268 -0.3730359583543318 0.7113962197033491
P 7.008781465866103 3.923920274100021 6.263873929342567 0.41499044840924665 0.23650960915910235 0.3061574513642276
P 2.665391016479172 8.680762111857078 10.16823177598119 -0.9218096459960319 -0.40376629755865306 -0.8763563987592391
