# total energy = -340866.05057208065 ev
CRYSTAL
PRIMVEC
9.33248500698745 0.00000000000000 0.00000000000000

0.00000000000000 9.33248500698745 0.00000000000000

0.00000000000000 0.00000000000000 13.65903514976559

PRIMCOORD
 96 1
Ni 6.040861615075022 2.1691868434410755 6.160716854811656 -2.709862513576701 0.05725563918835946 1.3233894774263273
Ni 2.8374581045228666 4.0908108544395585 0.5122302435899293 -0.44006307510715825 -0.0468616975485451 0.16061630026489757
Ni 5.298425094845144 9.644190109932314 4.876576236525827 0.28283754569136454 -0.6362888970455494 -0.08748255639370095
Ni 5.4297891552161595 7.888581676508424 12.296437581511794 -0.6812217530024978 0.6028226469673037 -0.7582147227187844
Ni 4.382721656112263 8.881082135189663 2.635825097536083 1.185018104602559 0.1244169675262051 -0.023631266265694787
Ni 0.18471787772971773 8.280294073919098 6.411687910815451 0.6342186447800819 0.8743164855110749 1.406856227792416
Ni 3.3040356974646765 7.08207764601661 1.4108141716418925 -0.8252711500476496 -0.6250652604155881 -0.8737611272282371
Ni 1.4819893025615845 1.963358884398539 13.525080710609764 0.032934803054807796 -0.3464019007065712 0.1728005010359153
Ni 1.468261216968677 5.470152153305435 10.426706853952714 0.8267017118465891 -0.28997492806709413 -0.2842290267222524
Ni 0.2581729347611346 3.6744326988901683 9.124058051201994 0.7048738452037989 -0.1462057812665224 0.046803333506783916
Ni 7.325282207914071 4.328415925272612 6.343761417961627 -0.6043640233124946 0.33348956352027725 0.6725386234062031
Ni 4.5261806171824 5.027120420289461 9.292597132749615 0.1750083073205115 -0.5269265098596216 0.19927155074325037
Ni 3.650700189262185 2.2666179879617774 4.335719528117621 1.203131012153186 -2.0358701884431065 3.9325740189649756
Ni 2.503149823007485 5.0903200094364145 8.034408289050296 -1.5233523978096475 -2.1983289412333815 0.5005508480795702
Ni 0.5448519452826605 3.835670044089801 6.725544984466593 0.5335111050556748 -0.8893816073743135 -0.9143714445504317
Ni 0.3438087513546607 1.1507420761614127 1.831307953123623 0.5283100204707094 -1.0091741887546297 0.4131593087377788
Ni 6.589397092229552 8.512038344104736 2.6557667517134615 0.5680014255230604 -1.0951336236355849 -0.5512026087981668
Ni 6.689208020452627 4.40123730656524 4.0169311693357574 -0.507032599149172 1.1278198010146965 -0.24269311226199491
Ni 4.4756172128707945 2.491110917219008 9.12923478069104 -0.100701111966504 -0.3343349422397081 -0.5882892292378191
Ni 4.907449963757952 7.711479106626301 9.659451522828359 -1.0283091098118677 0.3133038326010217 0.21756983483180595
Ni 3.533064214484077 -0.17362435268261442 0.3795764337770786 0.9583139115696527 1.1175623849527463 -0.8182461248800682
Ni 1.4459099151365813 8.079263012221737 0.09854077699996545 -1.0272876105258888 -0.02065727123903539 0.3107185883723487
Ni 8.395755579667192 5.914994388432233 10.03552547494465 -0.8682430256234853 0.02584704297009097 0.8447516273697645
Ni 2.9800211470226987 3.468362095234841 6.280260389545706 0.06696129651189757 -0.677225230248595 0.644995937901244
P 2.252245960896463 8.757361380121566 2.3598849776275808 -2.8570208885644797 -0.5884725488932188 -1.6736889134150916
P 8.951234425741589 4.225189307500247 4.433873006985632 0.5247369584074705 -2.1220512524165644 1.0687078253438884
P 8.440504845756921 5.240283712626372 8.050594551220478 -0.6094797472725052 -0.7175501551198868 -1.6666075810882781
P 1.990768393158817 6.9500416467178665 6.349853664239704 0.17663324451844417 -0.3276655006393324 -0.3288314959229756
P 6.733434667376343 3.099822258345711 12.998621226976663 -0.26426955288119003 0.2948451116752019 0.8734826767558699
P 0.7146210483674299 1.2018374321241372 6.5588229377693725 -0.6002494869234889 0.554179946258936 -1.5453142467927192
P 4.465818103508081 0.2805167706051446 8.33888248217451 -2.730089125036221 -0.580866968631819 -0.5634791121726748
P 6.337410661846077 1.9085305343928758 9.993591819611808 1.7142462660121638 2.383202057163115 3.582774148320449
Ni 7.495086774442249 5.406299290200967 12.570546667842235 -0.7989373972491273 -0.0036548231437678992 0.11965888401592942
Ni 8.110340187629202 8.656337228834534 11.472387545769658 0.3088805067223454 -3.582011302012495 -4.027215812111278
Ni 6.116417414504102 6.818901565989426 5.744265905878429 0.20604229380818062 0.607985679225482 -1.2220152506521986
Ni 9.136316270390493 8.096808084223548 2.4668081927509653 0.10204348492701136 -0.02271775331248991 -1.126439118617086
Ni 2.872146951666875 -0.11205141568987159 10.606118280650392 0.502313853517264 0.2105844046529083 -0.2963155255731413
Ni 4.495159436685579 5.163197385639687 5.448110689978903 0.3221430281592065 -0.5675183152390548 0.41031515442076427
Ni 5.739049046703421 3.7715838688576504 11.244541454613357 -0.27066311511235963 -0.23498211677098238 -0.15769732684588972
Ni 1.3981462563571798 1.4281595284624076 8.57596213409602 0.3181341641101295 0.5687334185930787 -0.3476370586652529
Ni 0.7475003266491238 6.6100498817721105 8.167857226594291 -0.4561155005843306 0.4987353921373862 0.7791255047295227
Ni 7.953993064625819 8.130535685401501 4.795250161554873 -1.566736164111921 -0.33133137952669395 0.1176318262835716
Ni 2.9146004264201966 1.4732914264415373 2.2219695127112082 -1.3420577432597918 0.5659666544812189 -0.7093694190813072
Ni 6.228771202711452 2.146042280374855 3.500141073522379 -1.820542355567942 -1.178087696031313 -0.2698167079516644
Ni 8.225559048764508 2.385131216339976 7.555453954359122 -0.05995298351486449 -1.3522958760480324 0.6051955180748545
Ni 8.226660282007174 7.834070630996411 -0.12841312858007226 -0.6425675309654095 -0.7555788277578342 2.790189432762227
Ni 6.209387631143493 6.551264558080931 7.972464852398791 1.8825427085301383 -1.0059723939878804 1.7673356896379755
Ni 7.2775558790750985 1.0477954329422687 12.24899962646264 -0.5232637162960537 3.108522086036408 1.5114219649206484
Ni 5.105578622586927 1.1073180229569275 11.624166417312994 -0.2752759312940227 0.101318948056161 -0.5325250869933216
Ni 9.278384691179635 5.891411198565967 5.811810700091363 -0.5192980467800864 1.2394069637660847 1.0452858468755224
Ni 3.490778724462688 1.1161932162940145 6.503599823643668 -0.1503804814695023 -0.7264266316739103 0.6647638645567906
Ni 5.883767893263051 6.764567837694453 0.708682788093625 0.4772710516160232 -1.2041669096168681 1.0468750457395133
Ni 0.19796254059406448 6.58581341794833 12.075857763260075 0.7107089638283373 0.07633528152762982 -0.5144756856907785
Ni 1.156080257642815 3.365583436747629 2.2194021460581768 0.40709304793904083 0.6105364706717937 -0.718724377933646
Ni 1.5802323732866257 1.929136661509898 11.035981877179902 -1.949993800194261 -0.41880853660375617 -0.11671368534467641
Ni 3.4993366133061254 6.661014582943332 3.66486970140067 1.629087729765949 -0.27831548945129486 1.0670219530010332
P 4.9153452461587674 3.6742553816731287 7.2161779910211 0.4820196220446021 1.3646433418697916 0.1847188497400561
P 3.4250966942771806 6.091285032110016 13.145332559106711 -0.39188291585750573 0.8198296673171042 -0.7136315367917709
P 6.564414029597184 6.897901052423119 10.782961407446532 1.3264974269276897 -0.6444508640310515 -0.25208200967606265
P 1.9829664356090748 5.329362282975999 2.3505692909934277 0.9823758376148629 0.7835938249135214 0.8207133554736381
P 4.295733562426683 3.063742870920708 2.7722790952846452 2.791717696481295 2.917373421510608 -4.781673896001107
P 0.8015456811542806 8.99752355187403 9.64478178948812 0.019008937002335004 -0.019498989264876095 0.6811898713232979
P 3.204094114450098 1.2233861402370012 12.407894517900328 -0.6752380246152371 0.328438374249615 0.3310598710328621
P 2.487676562699504 3.1947429643725362 9.436781227912594 -0.8454350265900343 1.7418218616375871 0.31012594909367236
Ni 8.44515242334038 1.2833286920814904 10.065056257569827 0.7521263504328595 0.7018651402844622 -0.8817374605654943
Ni 6.872227385892807 3.9660355285543303 9.152796505841557 0.1607443412023296 -0.07444140693902664 -0.6598224613911152
Ni 8.235068851088894 8.266360673653828 9.076756350435405 -0.4867550798470584 -0.9152183659317593 -0.8045136057853242
Ni 0.6659624042662337 5.547835759338991 0.5080968859358853 0.05201830204882008 0.13403469312162722 0.5295541772904557
Ni 3.9011560920880544 7.986871409659002 5.918965360845409 -0.13478494102409044 0.23037624256785486 -0.3606789794508756
Ni 7.398924847896146 1.2180386262704914 1.0175133852659495 -0.5917015973534778 -0.5841471820449876 0.4373683018838145
Ni 8.602666106982182 6.075979756533967 3.6200401759390184 -1.126574872864002 0.640645117131716 -1.907255895006102
Ni 1.5271958604215732 2.52388660491601 4.357710596024574 -2.63038662953756 -0.12862663473217847 1.2635385667069658
Ni 6.4695306535107875 0.5820708291392708 8.569869887817942 1.224111213949279 -1.329775840568645 -2.8045469870354793
Ni 2.8459413334854453 -0.16003532111780655 4.282763274624492 0.0563521535374836 2.046491672712695 1.5804745967439362
Ni 2.4329695350002365 8.402353646638087 8.257474281334613 0.6937170572560311 0.44447405969066034 -0.4814328963031967
Ni 8.558122155564815 3.54585905156625 11.180097845201594 -0.3939292568635732 -0.17150697903547235 1.344527544956523
Ni 4.729544800156597 2.148132757038901 0.6764558505209347 -0.0222230730642585 -0.128107786114231 -0.7305630224397869
Ni 3.034429535198531 3.6596873724205605 11.58977340994689 0.7777319668161057 0.42151616534290626 0.6669032794972966
Ni 8.313508388416144 2.830664055364718 2.864996401577626 0.9815798240761286 -0.06790257737924435 0.10405614448166596
Ni 7.897951491556201 2.1067151881324953 5.209406252400204 3.52612811769163 -0.004945516930733419 -1.3699128177988473
Ni 8.686163851237616 3.2459316451863343 0.39299934710697565 -0.0608775522116629 0.13928051490159882 -0.11989234018297416
Ni 0.3678734974524655 0.23980567082136517 4.374196430966702 2.1257760095663194 1.1639301735840082 0.9931251057115671
Ni 1.4312859109733687 7.305030715231129 4.081469970095616 -1.898024349105505 0.027051604801153414 0.6297366977493284
Ni 2.055302527676121 5.062807843339956 4.925161153994675 -0.4513587026256356 0.3369602956776971 -0.6110218949486445
Ni 4.499284395103026 5.264501511479938 2.047981193109407 1.0019779281165067 -2.168248319797917 0.8415367199768926
Ni 3.9624611867582167 6.601109361039272 7.610145116833707 0.7161527605517278 0.2866872584547579 0.11366641387792037
Ni 6.513869290255792 3.606660192040615 1.4940384740836803 -0.5950926253128977 1.210011284212787 -0.0028397834416402706
Ni 4.980952616463417 4.744448778873031 13.348961784657956 1.321075741691486 -1.166792068512836 -0.37749039458125955
P 0.8573380768715327 3.9408284862793863 12.64192897993131 0.8968213514818104 0.5338718308292032 -1.1627801191399652
P 0.018240342142309567 0.2507713408224978 12.823812581933927 1.7227337346578846 1.3768306279646028 1.6206655671405248
P 7.91719507584755 0.5904439347775823 3.453373190903931 -0.6991325718446475 1.3278493129698938 -0.8959618316949924
P 8.0002075308774 6.170601823037358 1.414407178408221 0.1826524541293306 -0.09323180017265233 -0.03915301605037773
P 5.801427377160929 6.568482993103987 3.56183906581556 -0.48826791694715904 -0.3576548479125712 -0.03301707835596895
P 2.9467788350703286 7.098521484775755 10.541319103556042 0.004495830987824515 -1.2171543230154716 -0.06786812459688311
P 6.216386994974002 8.773674564089207 0.4204097891157643 -0.48792544600607574 2.3764099739419464 0.2273701087516794
P 6.956397069075969 8.441279442020832 7.042475245463584 0.9526795961020107 -0.8031640337359651 -0.9598488601569404
