# total energy = -340869.5871138707 ev
CRYSTAL
PRIMVEC
9.24993134924902 0.00000000000000 0.00000000000000

0.00000000000000 9.24993134924902 0.00000000000000

0.00000000000000 0.00000000000000 13.53820952701263

PRIMCOORD
 96 1
Ni 3.4394204722960473 6.673862465961745 11.102576970623943 0.78776595401334 0.24102986562695908 -0.265055282007279
Ni 8.35096751832947 8.265044906055223 11.986622509154367 -0.633727049855644 2.390389061829857 -0.14415764048824206
Ni 0.9508374427945951 8.225566199069918 5.392878323547171 0.39246861315764664 0.6720120614787717 -0.9234752066239128
Ni 8.352586256315044 3.4174611352803232 6.927122811239516 -0.1827856372730852 -0.015600425541418295 0.22760176514651126
Ni 5.820177052095605 7.558017153682052 11.574491818027326 0.8717050160301567 -0.35186343804177467 -0.2926835852475088
Ni 8.117878498338216 6.6070872115739965 1.648953811308899 -1.2680197424067712 -0.45822251962500443 1.733683805911485
Ni 5.982587346671042 3.031415250549381 2.8417787080497305 -0.7934699463766529 -1.554029772288846 -0.6435967435608723
Ni 6.862366816864628 4.3712123064489505 9.174208633156077 0.4549253369309713 -0.720463729222256 -0.7801300347346372
Ni 7.30628027209699 0.7254147659030175 2.5397684495984247 -0.5897910105943263 -0.0732854389577125 0.9570075340534033
Ni 0.6377198667828504 4.313918231690991 5.273457084902895 0.08754889085526212 -0.7294865015461566 -0.226965417114093
Ni 1.6277289188420578 2.5744778919816613 1.0420954154692934 -0.23502993928978236 -1.1017783826456122 0.0652402000557328
Ni 8.593445218637052 3.5254448338151025 11.009610535629614 1.1618686630692894 0.1717098390748978 -1.61103010093329
Ni 1.8693463755344486 8.637863388961193 7.705719132424001 0.7398009960982872 1.2773793292448001 -2.145551392421034
Ni 5.1642089207531 5.220263504710677 3.4864813480057784 -0.39833381368917203 -0.09430137908774727 1.389899288223103
Ni 6.370113220417365 7.348506208692097 3.5939479753783083 0.26766623726756483 0.2192690769110998 -1.3056892319330868
Ni 5.136477626577387 0.7344278990066914 0.42477997224288183 1.0753590121118188 -0.377703281923014 0.5331542359368883
Ni 2.088662247751308 5.813433852144273 13.011925599257886 0.8065352642010432 0.9143598745862059 0.5293240635575206
Ni 4.166289327406678 7.961517658863151 13.138386035656572 -0.8613365283116392 -1.3256867581009362 1.9474766901993623
Ni 8.475295845552871 2.259332731018844 4.770283019508384 0.3893694054070327 2.4316239001099285 -0.7065190941167058
Ni 4.147299218353062 8.243964312517381 2.1268931389980184 0.7792972544206966 -1.1605437736102788 0.010821258985220072
Ni 7.31291247287217 1.954510493438313 8.826302990344653 0.8905149496478084 0.05742224667321079 -0.143419733880953
Ni 4.9700991114544575 3.1228693217686176 7.867663230459593 1.1644328242520396 -0.1204708383942635 0.41058357759080255
Ni 3.6319577932658467 3.438680477788357 3.7498537182311438 -1.0521563487431105 0.018673150929471066 -0.1647822587171291
Ni 0.9676630679132145 6.7810414204694105 11.176712395383811 0.41986243178956717 1.3900946920633608 -0.6082003663394493
P 1.3162004810355792 8.132280641444147 12.995462571448035 0.47280067454949537 0.5412665806313774 0.3196662844839398
P 3.774785983181516 2.470268165436105 5.825112815461903 1.3727047787216877 -0.4635300478808469 -0.06630360832324064
P 1.414878748636147 3.6447596982488975 2.9254582119725403 0.06557547190796449 0.5279966029953488 1.636353410189427
P 7.928754402035141 6.540302707254903 10.939212083133585 -1.2444506968375795 -1.442392987246445 -0.1908977248572583
P 0.05968425701780109 3.5155751570687763 8.819412716484917 0.20398849660294546 -0.6858106579247608 1.1766725608513413
P 2.750818583164378 1.0887261693714287 8.60316689648184 1.6590397960433492 1.11987329247411 1.0559556678845428
P 2.6377289225265326 0.16604181762192988 3.3681303264182505 -0.4845832690067203 -2.081230361745461 -0.38247910604510255
P 3.9032860294420226 2.425960994288119 1.0122421870427774 0.16332110079057033 0.6206529902805054 0.31566616218561117
Ni 6.84632743591043 1.639605830690495 6.497839972417336 0.5360045609014897 0.3455164127778243 0.6217032859218906
Ni 0.45477749959839747 1.0246703947994442 12.772569750779628 0.27642341463490455 0.3409521904459096 -0.27505764463562954
Ni 0.476310414779065 4.852199486516621 1.2014837574739483 -0.16867850844774177 -1.1801957435132515 -0.8696715305398959
Ni 1.8537602412162113 4.864242897129289 10.371175649153708 0.012089327064366277 -0.9626313079980839 0.7504988421317655
Ni 2.0838522834513182 8.987436794394323 10.76569262101144 -1.1782519895233192 -0.16059161767454921 -0.41014983248749365
Ni 1.2621253823860745 7.011429460507593 1.8067955647924803 0.20154132061403357 0.5551477094888438 -1.3749328967212577
Ni 0.5187786995754398 1.1626238708957006 2.9701881049830448 0.9279898066648148 -2.1417749560977373 -0.028522532919725074
Ni 6.629897542273565 4.777931787738504 11.431732077603616 -1.119459601975459 -0.2308935485239056 -1.5926030045763542
Ni 8.280575540785383 6.820760625669713 5.497054750339881 1.268743507946673 -1.8169129863454707 -0.617515215982472
Ni 9.191610528997561 5.613570585548334 9.345236163773572 -2.382756999205897 -0.4634734836112986 -0.044574701286581295
Ni 7.406938025005632 1.4248039249705495 11.772082376491518 -0.22723923960076992 0.4444118389941572 -0.16589143262090786
Ni 0.5356459493851168 5.724884259367722 3.508088262637215 0.6860932221621862 0.5736578524778894 0.43823219254600654
Ni 4.087849909591453 4.171487788823205 10.783062142093213 1.865984032840509 -0.3704072624822331 -0.10537614884467013
Ni 7.9015318540834665 3.331779021221075 13.192335335239768 -0.15248621495859546 0.10027842260678858 2.084672297547474
Ni 6.989978869715906 5.919169817361941 13.202705433271921 -1.0922917833114156 0.9616720294086083 2.1515194370790107
Ni 3.445432927671035 4.425241155441725 6.609543068346395 1.0066241686392663 1.2961602093967288 0.012210168912946713
Ni 5.529923456385236 6.411765661269011 9.455288146957349 0.39153710248231277 0.45627593742159483 -0.2834134727994926
Ni 0.5408397858359715 1.1942678860308285 8.503159413746832 -0.26427572352877715 1.9635787379675473 0.22646122378416483
Ni 2.1948792093989757 6.137107449808226 5.731942881977958 0.10134825863219966 1.3575368127319976 -0.7061884502501644
Ni 1.3620986403751008 4.909752559352274 7.620238666868099 -0.09945155583011905 0.4738394002266548 0.1869485104015232
Ni 5.060211942628505 5.679041599616278 1.308106791107711 1.0747026094747427 0.8046053941681821 -1.2015644389970144
Ni 6.926468841093343 9.128553747010958 10.092383643374335 -0.39270695442069786 -0.20384502904654567 -1.040682029554924
Ni 3.010575155226539 3.7707992627713316 12.905880686333258 0.6018741670111054 -1.5740234418019536 -1.3068146037867816
Ni 8.687128523310706 8.742942609053285 0.9678304916705797 0.7213085937210545 0.4191294102782846 -0.23559661042652974
P 6.126969525052862 8.451791770002343 8.184998775165175 0.7673729921792849 -1.8297057672347647 -0.123569017703613
P 7.0909696201530075 4.842440808946448 5.844133449288959 0.5255620254119271 0.2825470110341392 0.31566127708960473
P 3.686217890542274 5.4822400602959105 8.968738983171248 -0.8886642695923146 -0.3512944529121821 -0.7287763628530095
P 0.5570058908496116 1.0573411523139928 6.090894792802936 -1.1534570419668264 0.037733509995031785 0.7753277282499873
P 7.095687085139536 4.22800486934809 1.6653076899288657 0.5196490023616018 2.811632176017035 -2.6399241367143502
P 4.033959809568871 -0.11734185407766402 11.443929962069765 1.8115190690234093 0.39844359979415894 0.46010688113191084
P 8.637567391158116 7.851896722480106 3.586028184159748 0.4113435956852787 -0.03853980794641104 -1.0176277188386216
P 7.287308662906068 1.1338195846838366 0.4287944424471044 1.0193930382691605 1.0092716335644425 -0.7904087909528258
Ni 8.99400424565008 7.934507859332437 9.371500418837789 -0.3648973884075974 0.6476809409325749 0.8156901912274339
Ni 3.021323575450748 4.715966497650746 1.4341704054516458 -0.6994205353987115 -0.24489860455374599 2.054042488476759
Ni 8.623294747091029 2.892509031524473 2.2786021879991125 -0.6864326077794758 0.5024925451869733 -0.42147194236853225
Ni 7.8689628458137255 9.432524990907647 5.016177644455229 1.6599013727126959 -2.231618299414131 -1.3493265090070632
Ni 9.203755688855036 6.5161141367847595 13.03825737882093 -1.5046820750936538 -1.6320645530060862 2.840034895529444
Ni 2.8072246645131087 3.308746692169199 8.959452052099728 0.6789802652664886 -0.2540812994942786 -1.1318757162516246
Ni 1.9636309257456022 2.6934875086810335 6.887956751933711 -2.0159577657898957 -1.4024609269381976 0.10993780007342356
Ni 7.2451197260363465 6.2626937676947 7.548066077539881 -0.1080287559761688 0.1369150999932158 0.8220683268396358
Ni 5.7392124030228855 3.2491956341627826 5.035510000968651 -0.48841806937177823 1.7140200089339708 2.100767917557756
Ni 3.008900917652889 1.2076895364140703 12.930627952656707 -0.17445577725115113 0.0387498670746881 -1.1243488117469602
Ni 2.0871082592851575 1.6510942454223947 4.696797864922151 -0.2210205123845677 1.2385926953949056 -0.01514354050965779
Ni 2.1379736317575535 -0.14989791244352055 1.2289458786474883 -0.41554940623651015 1.0120491963095797 -0.2503295457613302
Ni 3.383856134699815 9.174535155732595 5.8154734620060955 0.2284692553531291 -0.05293670009803141 -1.1781244628065193
Ni 1.8496440217671812 2.278387589591882 10.72694650858875 -1.1690430693305416 -0.49803245253309064 1.0586787232426604
Ni 1.943262576921413 7.058289612707113 9.145345147383598 2.251046840452388 -2.384426416488519 0.22631107135954573
Ni 2.974777920916997 6.514782146670916 3.3322674175961513 0.6215952995891166 -0.15286391001298835 0.9063724855053551
Ni 6.425918056228597 7.964357387786414 5.898800543544618 -3.0920981361524293 0.5521413185623523 1.556544825401216
Ni 4.472323305993552 1.1254021471588538 2.9332022544955243 0.7883933031846938 1.332446702532589 0.1279190671421926
Ni 5.039788094216239 0.8074477820462151 7.446759904443876 -2.0409581444889753 -0.02391125939995882 0.3932502285186775
Ni 7.607411787070413 4.904831595876129 3.6988958464452866 -0.11602128726334213 0.08424708017553878 0.5326083907357473
Ni 4.109725997225063 8.616422048100851 9.386690656094412 0.07809545875184615 0.1457740930457425 -0.3800080187967907
Ni 8.416558781504913 8.879841592976083 7.361089815295379 -1.2074504654641462 0.111482261742408 -1.2010144800308153
Ni 4.254283924302459 7.457831147272066 7.22142972686576 0.03568896876117725 -1.2640401889337327 -0.1741644712629775
Ni 5.465599433804214 3.0838716112133127 12.68740100791009 -0.36959273700073764 -0.7288612092573319 0.12638540410648555
P 0.8402720884211096 3.414482657386868 12.706570565631818 0.045179681860431864 0.115977064288968 -0.6772956784752142
P 6.099487979023496 1.227826636954606 4.548906262587606 -0.44908816142390395 -1.1432729023449728 -1.7429567465729792
P 0.5019049748138203 7.018237409978349 7.420481774482642 -1.0099599178807186 -1.6804948805933315 -1.0083884596285408
P 4.566071360186629 5.4674216702794025 12.624949171433524 0.4020968802760301 -0.036766260985756034 0.01360704926047334
P 9.27999362300988 0.5018799999991858 10.506151572349644 -1.6363852918686268 1.4044118800169814 1.0807832684511838
P 5.785332560714714 2.3746053754543777 10.213848191852971 -0.35829556682036356 1.2259516095921272 0.8847819038187729
P 6.1113186412152025 7.755447688333957 1.1393473436562866 -0.10147707090058009 -0.3360735221973696 0.12452289697645005
P 4.59325690841292 6.785185389712479 4.920665628354443 -0.6504641601046669 0.6584191532856855 0.7074907140013558
