# total energy = -340874.1412382858 ev
CRYSTAL
PRIMVEC
9.21125130281140 0.00000000000000 0.00000000000000

0.00000000000000 9.21125130281140 0.00000000000000

0.00000000000000 0.00000000000000 13.48159736921224

PRIMCOORD
 96 1
Ni 8.144551411294927 8.881368601081912 9.253417482425176 -0.7034371127572724 2.1363956940636952 -0.44512352034920116
Ni 7.78764306344734 1.1977942529927155 2.5282176266223386 -0.46282145184959644 -0.7153690883081679 1.0347772340347146
Ni 6.006205515842945 2.6413815313542335 4.154259525276923 -0.7882858310725521 -0.6419466095519589 -0.025618214788736524
Ni 7.535291627268217 6.70934637146907 9.898485084126099 -1.3689077735731003 -0.538220337605886 -1.2873027590060993
Ni 3.8083273042854846 2.8262329191934303 6.803609709990718 2.0220890754986143 0.939845163341504 -1.2091803036710596
Ni 3.1115145781912266 7.753957518035343 8.075368467372071 -0.6757519881371782 2.125570835534049 0.1772117427297335
Ni 3.119150705384703 3.297452893664718 9.1174419142498 -1.061016884457534 0.10689489948204171 -0.9331137581549414
Ni 3.514341012962193 7.673598563106643 1.0090115031677815 0.4066744723443835 0.593449690392836 -0.25468859406097427
Ni 6.3418082398081275 2.8559944716206007 1.6338346171174083 -1.074895442211839 -0.14468008865061535 0.05825039900146098
Ni 3.4486924261010232 0.765466023076673 13.184732490781329 2.841643891887777 -0.44089636964173096 -0.8768397661535607
Ni 8.17164170089205 2.1445358562167787 5.271021480882743 -0.5637868732210807 2.0427365765456367 -1.7463513740768246
Ni 3.9226297196580475 5.299757821058244 7.356718628204742 -1.196542817412707 0.5452067962260482 -0.044234287228027046
Ni 3.812389466037382 4.7165750890034674 10.965512731462027 1.4836926173261804 -1.5811981051735222 -1.110729935411945
Ni 1.6588081612029988 8.47648805730715 12.444134082402158 0.2826038324140036 -1.6202426206704932 0.7602682628137035
Ni 5.813690367056856 6.989165758541978 4.7904161626268555 0.5975858240483967 0.840973648384571 0.32291718732106967
Ni 1.0314943249456325 1.4780281463668377 2.592484525812795 0.838756071907962 0.7306661236765546 0.9706585491779347
Ni 7.2525891185890865 4.4029964665094585 8.767581094647968 0.7408795738744466 1.1323583123149983 0.47739806411219077
Ni 0.18523089138608628 8.389008805248706 2.6326861102798764 -0.4107010770052733 1.4172784515670043 -0.45586816046021483
Ni 0.6585289241141269 2.5764237883284205 9.201958827942233 -0.0832104113809083 0.2691335658417107 -0.8114257595241251
Ni 8.561922411612937 0.5913779821923346 6.673336827394934 0.05210469111503929 -1.3334933986295485 2.8036105912641394
Ni 5.524282067549196 8.225085379995251 13.379636116987525 -0.6310471890306357 1.0878725711977975 -3.4407749489361064
Ni 2.297829497656878 1.4282413339654596 7.6037689893538944 -1.0318862856401647 -2.0870788501064377 1.172915407801754
Ni 6.612259784473598 4.156420484793919 12.804227680893296 0.33977719630120196 0.8973895652804544 0.23610568885246433
Ni 0.16387368449731 4.83898340537755 4.7774467210244245 0.35314539007799184 0.2595916877895465 0.645523785380256
P 4.246957872230208 0.6354556611383245 9.0925144264199 -1.8437113374852376 0.5793068232335508 0.2102064524881993
P 2.383761259524123 4.063939523367491 12.684794598636818 -0.5853980237329531 -1.5742003336994503 0.676191903888074
P 0.9046940840289085 8.932675269921074 8.350326156094296 0.546732231731639 -0.015176964850754508 0.39304531159672307
P 5.774800464751839 0.6911708347721778 1.1601948469721446 -0.554192030443794 0.8519062361366746 0.6265233330183533
P 7.106047324233208 4.31958858745405 5.017607987447399 2.251543320472832 -0.6311646884451066 -0.43045717658627797
P 5.175101959406467 5.530812844606102 9.037806963660554 0.7271033460259606 -0.4454865601155747 1.5177165396801087
P 0.1769859004923816 5.39557325539666 9.080704681335755 -0.9187595463157983 0.20654880113095395 -0.4636197793811757
P 1.9401750384671066 0.24547063157896945 0.9204665093526606 -0.6915881838384863 -0.34440286799867137 1.6402458032652976
Ni 5.153667378008131 4.806937462668134 5.5474888936665 -1.3354921742271322 0.5683310409483373 -2.130023986209396
Ni 1.4159074686915565 7.223407874983615 4.2797333460297615 0.3968418025246778 -0.9582637750580079 0.5811292211542701
Ni 6.581438938165548 5.2479721671599 3.058003656954718 -1.8306041106793185 -0.8208627365673089 1.0241657770674555
Ni 6.171077699963623 7.3321282721664955 1.8516972867852934 -0.4816933490534349 0.39464890863841706 2.3762292253897077
Ni 8.376195954915623 3.5189374272801 3.211802074957185 0.37220960579829443 -0.1901323074461435 -1.5209833833568387
Ni 3.3109565878331586 4.777304867756898 1.4992481056136566 -0.28383950459331764 0.5939047756523835 -0.3035596087300643
Ni 3.668583413269516 2.0955688451666905 11.218886616517478 -0.9885308014726654 0.6168608702279248 -0.6598306889212314
Ni 1.2261372727446196 6.1013024725925895 6.548132896300441 1.2082791320130288 -1.2014541386713953 0.5798878925480013
Ni 5.599427454333737 7.806277424499696 8.92985939044816 -0.40874652438206377 0.4753254978538781 -0.5177337876167599
Ni 1.2712355583167096 8.49587774095283 6.310667763085585 -0.6111838744478054 -0.8145619911602617 0.6567818747925785
Ni 7.62557109967264 5.627650727820845 1.02712634965595 0.9964701109244001 -0.7822262551420335 -0.6510714546713626
Ni 2.6584868247176674 4.738986063022442 5.0536571399014285 0.33229322921933097 -0.36500383207847464 -0.15591555235511856
Ni 4.620068810829696 9.166558147568326 11.097309154996053 0.27148638234460337 -0.6450149640646375 0.3268134370516823
Ni 5.418444791972538 3.017569027833843 9.213390911729718 -0.23436453779164151 -0.6217307967257164 1.2743521123827022
Ni 8.74051935992937 -0.02244597677329854 11.841668517214904 -0.2602964271660549 0.634030697138992 -0.3488084532655348
Ni 0.40320593831785606 5.866526103584942 12.621821880231263 1.0745699405516203 -0.00829180769514701 -0.8057755032168833
Ni 6.632432424466016 0.3127836915207922 5.297889779327439 -0.7356527782578686 -0.7625493455383964 -0.3227575218147538
Ni 7.671995805408616 2.349937545345055 10.586128009712388 0.31377023071447896 0.013743060617705364 -1.2328496222635412
Ni 0.1276163577675588 1.5203722678486393 0.4058164068903909 0.6265081635097016 -1.6744828700712966 -0.47202882938047735
Ni 4.5394243071157145 3.043747403568296 -0.00825788664529799 0.16543634736136026 0.17279972970496693 -0.5593681753280948
Ni 4.94191913684571 6.77012220647819 11.102904068937328 1.4793531094105619 0.27006044853135425 0.368513645003946
Ni 7.366992857724168 6.690583052900781 12.296740247316006 -0.5607226324734601 0.7486615318127107 0.3911838329079521
Ni 8.874773345267037 3.8531400410722942 6.926251071018594 0.7443428498326987 0.15915000013201622 0.8538206795505683
Ni 4.820450368087712 0.389657109018839 3.1864702132023224 1.3193050229443084 -0.3761544493786554 0.17744391334519763
P 1.6255463333433546 3.483105660352929 3.3893682842712662 -1.1444671797633903 1.5403533032430181 -0.7889530323429057
P 3.2475094899939925 6.8869024484069 5.401550436260166 0.9886984373987813 0.0456242255970182 0.5039917554403192
P 1.934620654030838 3.798673913092766 7.2152292050981055 -0.20249699965908352 0.3445399077971679 0.09357941332005819
P 5.571692377156946 6.111094032552379 13.600774307560114 -0.5134955811656964 -1.3147140611395165 -0.7326507582067511
P 8.244751401175073 3.253100719434813 0.9153690029728413 0.48607502306089834 1.0116311349355545 0.2572640680976343
P 6.8808138114046224 8.468695338844325 10.98526349615232 -1.5272764154544018 -0.005052474822242911 0.7157868925718769
P 7.33085711950944 8.216132043889026 3.62526842591776 0.00029439131196723494 -0.43782750090842015 -0.6386324575770613
P 4.742338958436707 3.84336690361478 2.707131441977922 0.11599506201109701 0.4356042680048562 0.4471791173266493
Ni 7.6897643088539915 8.888341518193446 0.6753753813205804 0.9047298076956095 -0.3562255716652123 -0.30671023854390406
Ni 3.433908368024388 2.3496519965597744 3.7117804966067043 0.3385685207050814 0.04966805664908865 0.3875804318274099
Ni 5.855187053433953 0.9161436691935547 7.82651177987474 1.5749287272250423 0.3251941562807044 -1.1949685309470517
Ni 8.74713303824652 7.146991335542018 7.6715407696023945 -0.004836502156694897 0.6099078359488592 2.271111986633379
Ni 2.5302385751220355 2.535700847046923 0.8947007976691943 -1.4590632488132742 0.558341019615161 0.6601253373435148
Ni 2.6377430871546874 8.753746716563668 3.0110741746563754 -0.1576425623485543 0.2920498083182519 -1.299901421606716
Ni 1.7739488004291282 6.562049254519867 1.9506519155115702 -0.7239146638853339 0.6949344746029 0.09513313096042326
Ni 0.5556806995317792 7.3099752131793885 10.19539042093505 1.4702948558630355 0.3036328851701609 0.5725371086098849
Ni 0.8063897696329807 4.661491807197688 1.1588886915607632 -0.33310672625956184 -1.5975348946603325 0.5057161943305936
Ni 1.5191379601961352 4.521582113661234 10.564610527053807 -1.102179731849089 -1.151960659926958 1.6675385775429796
Ni 1.9687483394974628 0.23967675461311067 10.245312638728159 0.8241555483859677 0.43866593764931544 -0.6735169281590723
Ni 2.7974661818891744 0.3004341671199545 5.209167929490467 0.4952196656746439 1.3950168119553266 -1.2783344940692178
Ni 8.478007913744936 7.363345202273485 5.44808844038514 -0.5713330609994547 0.5191216691032221 -2.3167464966430424
Ni 8.741016767490828 6.24330312013739 3.0377002171961394 -0.4068325951888026 -0.2124178583172213 -0.037340902542303434
Ni 7.263099156137647 5.711592859442263 6.6122782069758745 -0.8581311340004641 -0.17724285307798507 0.3115256576546764
Ni 9.089017835487882 3.3213100341123716 12.3977038499155 0.7489314976446457 0.9434652765925945 0.3185540252563675
Ni 1.3581621353068682 2.4884655512107954 5.399932019435203 0.7113599671487749 0.2565480158672162 -0.014339556551123692
Ni 2.364178139604543 5.985517045786793 9.021156706103342 -0.47749036671568096 -1.0805372138786487 0.9764533014828409
Ni 4.001653043171725 6.632211354438701 3.2655395929716904 -0.44267583013965695 -0.47466780966522126 0.032035174058673864
Ni 8.201707224606777 4.859810044200773 10.939898084297226 0.2886248417971029 -0.7482532406306985 0.13983227364001077
Ni 7.127500328133819 1.6350339220155876 12.816752219065759 -0.9473221884448395 0.1629837720558096 0.5060054434362382
Ni 3.162858092034942 5.964570660698776 12.7626775692596 0.3662724143782531 2.2543195976663886 1.308043076877244
Ni 6.2100412922777455 3.4167938634098167 7.0037305888415275 0.47361751402383595 -1.52816447448631 -0.7888419606863383
Ni 4.482719845109631 8.532363506710805 6.502713138063632 1.4310035144625806 -0.9682188293881905 -0.5370504856675009
P 4.685754242695418 1.3015313633098888 5.570744539414838 0.43314732182393145 0.6597021337631671 -0.9035792390309341
P 0.4369439878613396 0.6527267570222439 4.510996543853341 0.16710190798924124 -1.177762194371094 0.9206372229544855
P 2.8661360591236376 7.225333026471477 10.936662171772415 -1.0972686677007166 0.26707436931983686 -0.561148150046653
P 7.9189402371696795 2.2541681672623297 8.219878259726888 -1.3279485575519192 -0.5863231066503838 0.09108904279803667
P 0.9916280300199775 1.9822704561681792 11.202020815683635 0.05919373675133676 -1.2165064050188275 0.3729997057997576
P 5.6475654527813965 2.767391446923309 11.489704768978246 0.17053073116513212 -0.10168224493285068 -0.605492480489983
P 9.147159252671507 7.311946420922941 0.5563881236191847 0.3864126367715539 -0.11060243024061597 0.5563844101094224
P 6.662626905696676 7.930712216124159 6.942308124002514 0.4541946294125339 0.060959827512824055 -0.15074994899377908
