# total energy = -340874.22078926995 ev
CRYSTAL
PRIMVEC
9.18093753084684 0.00000000000000 0.00000000000000
0.00000000000000 9.18093753084684 0.00000000000000
0.00000000000000 0.00000000000000 13.43723009977879
PRIMCOORD
 96 1
Ni 3.6284993988433163 7.106826198895374 2.7365455897189404 -0.20841567913636364 0.3330229082965039 -1.1398571917952045
Ni 9.07347487451288 0.7846681248488355 4.673186370297674 -0.041123509513187245 0.9574034839402414 0.022839880712650987
Ni 5.692576185873237 5.460757507663339 11.582180804443158 0.8050828480252328 2.7868657677056325 -0.517608060672173
Ni 2.400548974662178 6.466391524206748 9.818799008724065 -0.2846208628440324 -1.42593561302137 1.0152278511478774
Ni 2.4157801503908995 0.9708749862185507 4.560071708644094 -0.08122629107134398 -0.7165867627653529 0.40729565086815017
Ni 4.650200056450777 5.308069331928337 9.008628074990815 -0.044940826376748406 1.3014199151337715 -0.8629180138661462
Ni 4.01347448061351 0.61341609298154 9.394491871535296 -1.632676475558472 -1.0262488848487294 -1.6355982771909572
Ni 5.622846963655249 5.645037290199143 3.511497528146012 1.5464144218354334 -0.5093705032537292 1.7486450552070079
Ni 2.7303741633627943 4.169669774569352 5.608309866820495 -0.041415843942625444 -1.5214904049002442 -1.1508458295962245
Ni 1.5785337131365096 5.9118720649909235 3.3356853244978515 0.5935700180207842 2.0639695177824837 -1.2198994898607767
Ni 8.470718768353896 6.915596446482148 6.258363409990725 -1.408386291283697 1.1422542312724715 -0.36923895320574474
Ni 0.3719445768203603 4.963563823764052 10.564551892728215 -0.7350004893858504 1.6673262044218575 0.6992870951446408
Ni 4.043523689872163 3.966559888706478 13.13559179951814 0.6472991321131238 0.21617398292554382 -3.013855353189442
Ni 8.33743909502427 5.263853935720066 3.9575864401487606 -0.6983391294090747 2.2455184544349907 0.08420439986306144
Ni 1.2587157465843604 5.995143170391469 5.509332013115731 -0.25834238876347765 -0.21604568487779569 1.3302736061406704
Ni 6.8886595751210455 8.310869461173201 10.597741900791446 0.03929442672424845 -0.03582266612556411 -1.0276177401717979
Ni 4.046874732151237 -0.2082117329710413 6.202101705359514 -1.4064258251232165 1.540298538745683 0.583926067173117
Ni 6.75373651393401 4.093596524365501 5.130939663712924 -1.3250897479468857 -0.5061743649139347 -0.45532205814875776
Ni 8.199807657200722 1.0157146861938828 9.449477425819133 -0.0398703538323765 0.5087233565880335 -0.8469776884868059
Ni 0.0304063477371627 3.2065802235635528 8.938351668882875 0.4379272597110781 0.975733392597681 -0.07513689034415447
Ni 3.9039275313699267 6.141184347194828 4.830657814600887 -2.6357538073867444 0.8078035893905056 -0.1646228503211294
Ni 1.5276070514323392 8.528026181794933 2.6218453801157837 -0.07399917719528547 -0.04421886060905933 0.3092702859615964
Ni 5.96555300802036 2.9364035874304495 3.2092674840432376 -2.4248019920920885 -0.4514859722321192 0.7444901740438403
Ni 3.409194338787878 2.0847798016581702 11.146021076617993 0.6327839692160844 0.27456065039455296 1.574051981047044
P 7.0786039962491465 2.004272158520642 5.20024839898192 -0.11897265658218219 -0.5628026549309404 -0.5153812282241834
P 2.9855032425221935 8.581771391388624 1.093612188728834 1.0229519592650127 0.8551504541055853 -0.4942251629718586
P 9.366668121587457 1.1091399087469092 2.4928476961531705 -0.8327250352225337 -0.1443011080446418 -0.13988755235797842
P 7.104494240706648 7.369520370761504 4.008366206848917 -0.1654062654543732 -0.14524547423578213 0.4737285856804036
P 4.853677179823686 1.6416710220493596 7.578812700105824 0.7713324910476651 -1.036119864105538 -0.7408813736466595
P 3.9907975643688194 4.264316061843246 3.59169118321246 1.4907536379380197 -0.522728412617874 2.264431746399726
P 4.441333722618098 7.724749214218824 8.189010874405678 0.6715289511947661 -0.17250405284141906 0.24411750341334731
P 8.194216466110431 8.668907671582293 7.766826370024915 0.8350575400104521 0.03007110835376756 -0.298240510509996
Ni 1.925545617306786 1.84713122797646 9.385865462424562 -0.9210917939934008 -1.6959328124149566 -0.24810554152681788
Ni 9.034272270316594 7.903162377531811 9.78796115691261 1.460002729908408 -0.3310812111891007 -0.13130700977781903
Ni 2.516192066572351 3.979863067507513 9.938672676749848 -0.5010894941918597 1.198245916146743 -0.6098625845332206
Ni 0.8573563633039333 3.7807652514417773 3.8947144603369117 1.227818230487221 -0.512973133003323 0.427699925556115
Ni 8.72870311915382 6.871371869336125 1.9090538988248675 0.18603062657294414 0.40425634982119407 -0.9444749488040315
Ni 7.168421110266075 -0.17554412026583513 5.731852237571531 -0.32376667980555857 0.32852836286026 0.17090071291004116
Ni 2.191122603626695 8.206445475194613 8.55221978895607 0.6993140917278343 2.259738711799431 0.6254892353268842
Ni 8.351724634164649 0.6043370636396879 11.757711153302369 1.4080772446837104 0.7807751245178036 0.3584027818221892
Ni 6.3524285439049875 3.3783004832561434 11.842929535599875 0.1565624419104981 -1.8829126902750475 0.3351718363187066
Ni 5.416101426443025 7.288342519168161 5.98600354686046 2.577400564258832 -1.6790234382541278 1.2790281777021326
Ni 6.115661340247362 7.164491668908695 1.9785646147243834 0.43528288010969546 1.0913165638823399 -2.118789550946157
Ni 6.164944614094124 9.201503051449 8.387680858772223 -0.3707101384346325 0.10953670798026297 -1.1772284333548113
Ni 4.702944543829624 4.990188543241625 1.4948788445379773 0.7075516491462781 1.8776200744175404 0.2768075374472007
Ni 7.154153933001196 4.987985118181412 1.8529675501046987 0.4360243862614103 -0.3382319633012691 -1.581196048290993
Ni 2.3392937579882602 1.5597036098094403 1.941424049146945 -0.33887165376779704 -1.6462608991111258 0.7247304749184099
Ni 0.6472496847811088 6.31445618536732 7.998834175552479 0.0054221994568358235 -0.1021779536223466 0.8177655856992239
Ni -0.4329647614878558 4.159359581475105 6.159290074533353 2.333066059738672 -0.17751873244719105 1.2081233231614548
Ni 7.662915598466601 1.0949553599217887 0.838361003097348 -0.036782458935672134 0.9125703867859509 0.3157852042619787
Ni 5.21681081068452 8.434408159549138 3.846353870734114 0.003005362485227082 -0.5736354838803863 1.0928589686687953
Ni 8.10136046169796 3.053533991256266 2.74798044768767 1.0265268211004646 -1.491697747018844 0.012693793417584589
Ni 4.4902222161415715 2.466137593954515 5.492481319967754 0.6465344860329575 -0.5989094279558267 -0.5319651007247935
Ni 6.8134217902525265 2.940112686281808 7.398283330641258 -0.5252570925769986 -0.34877760002759933 -0.5085508355659112
Ni 2.5611970234271992 4.143972329804619 2.237084214195185 -2.268588963101209 -0.4968620863740733 -2.6632880082512713
Ni -0.13702549593198868 1.793349294631764 7.123170104279503 -0.5307237721185247 -1.2909185013818154 -0.5598263459114359
P 2.602483700492938 2.528558789722796 -0.22837766274086463 -1.228038316917827 -1.4319324540347533 1.3005979334531084
P 5.236008151521625 0.35165745867222525 11.072116363910903 0.42949249868016354 1.3624990418332792 1.295550086616556
P 7.654037631661492 6.330559550182374 10.655025443794331 0.34481861537985126 -1.7005199175650068 0.3295606607795163
P 1.0140162127099688 2.4608952784987586 5.391244955576274 1.0016611682070362 -0.6389127078216416 2.473890522088623
P 8.628162669843856 8.458425492705457 13.599821326422868 -0.10978096278058512 -1.0184491862986524 0.30692621120945207
P 1.8320561281895036 4.687309406839863 7.42154323643313 -0.37900785966705053 -0.5166017308948458 1.6072238398133223
P 4.195908894661386 0.9847749259733937 3.3745188549965532 0.26911248279578814 2.4087405677538514 -0.7645810312564445
P 1.8834234749057162 8.998062651827095 10.66292564072897 0.3290950339970074 0.4023799587340876 -0.684519449917163
Ni 3.6942349131396672 3.2763002648437887 7.852999569848515 -0.5774252899401217 1.8247705347166767 0.9743874200927478
Ni 1.0232155123363575 2.8655451098691036 11.650924912040475 1.2948324917242409 -0.420087917536812 0.6399354926592011
Ni 9.15171482602594 7.731488022527975 4.0583931366535 0.13862796891926446 -0.40575864539833345 1.1822084030679059
Ni 5.12975715893061 1.5601259329459811 12.969534342230299 0.2140235122414443 -0.010765723156936297 -0.011265288501174147
Ni 5.269142155864577 0.2513373518682829 1.5479960779895092 -0.7935560783325559 -0.14789396760222273 0.050993974549363795
Ni 3.627553762254975 8.737663714398685 12.423740446252916 -0.6332220851947675 -0.3851795356954012 0.1155381769793365
Ni 1.038299793061065 8.67114782039351 6.713697526308617 -0.7223365207649366 0.21928681752291268 -1.3169990005189514
Ni 3.3150805459035353 6.050302244398798 12.078968690893856 0.6228679956539531 0.40387299833984636 -0.1717275796867107
Ni 7.1264091391180155 0.6170269557989638 3.1939086932797784 0.3628546469459557 -0.22504685993514148 0.3907626862101335
Ni 6.900805955765469 6.883922211241588 8.582077116615729 -0.05770789623442965 -0.9470445093034205 -0.6281361860314278
Ni 3.119774457128916 6.536331907993005 7.051079544871987 -0.29815900653978333 -0.5125555858499302 0.06711787669441989
Ni 7.619205153834627 6.427647966898005 13.139595606471302 -0.4332977313588666 0.4422104604674642 -0.8446698662892357
Ni 8.396582696015484 4.03695931938028 12.891329278280692 0.16994271987214604 0.7426472072978307 0.5827019649580287
Ni 4.527001052771625 7.556857405568353 10.427062759439806 -0.12006768941857388 -0.717882598758641 -0.5708090701751847
Ni 5.853178329949503 2.1039495996820223 9.734413337480563 -0.47082940975573756 0.2741474741165343 0.02438151416815801
Ni 4.902216797712626 4.823022028673474 6.405352977663751 1.2412003082210818 0.20311792107253407 1.058551196525861
Ni 4.211810278845922 2.6363429989182094 1.6044322204379866 2.031721970602688 -0.5665886043359338 -0.13517034938796724
Ni 0.522311811491938 2.6946970392628473 1.0334605207725724 0.3058915992973506 1.0595798949006914 -0.8764505011349422
Ni 6.546440120456732 8.703620797218397 12.78350926342805 -1.4727170921512829 -0.881892755196436 1.9775472843324975
Ni 6.9335084560341285 4.153189991306509 9.466609055662287 0.49206492209574615 1.8972247360223453 0.7217436243759441
Ni 1.2486442578716375 0.6410718317685369 13.249741152856245 0.6725465938260031 0.03849147120697887 -0.2564320591146423
Ni 2.289790141635477 6.563204512789851 0.7752732712483528 -0.3100783836851886 -0.4716897008735038 0.9713458050529465
Ni 0.973372201286792 7.611483985186132 12.11766726160762 0.07792987970825933 -0.1893344941351965 -0.17710401350727564
Ni 2.3245399910225846 1.5887612777909976 7.047356674614003 0.01799026592983353 -0.5074599164945777 -0.7746993506373689
P 6.276557274331657 3.346295734256551 0.6353980122384888 0.0594413339857686 -0.3203147167012161 0.10728519294192491
P 4.53999207968913 4.008241346095505 10.613799360917747 -0.07522199385879304 -1.5623799440257544 0.17323244636701135
P 2.2279473449455023 7.827814421410282 4.9403993997247895 0.6361297457598658 0.3183881891024645 -0.8189542066906863
P 7.166860350848424 5.419195402465073 6.859544985325432 -2.4322394222067403 -1.1581238513148766 1.33291618596984
P 8.268361719386595 2.7686862165972452 10.931859177890603 -1.406438680639023 0.06704382892337486 -0.9113025758171209
P 1.3333200467480681 5.505248332004138 12.64677204894144 -1.448287241243693 -1.571686566138661 -1.1070337175072806
P 5.229801837602025 6.709456851161482 -0.16178648504613094 0.152911218311156 0.32344297791755267 0.7289900215257122
P 0.26522627449782477 4.753357073019744 2.050642320819047 -0.4249462740703778 -0.14463072346991868 -1.7680717964730517
