# total energy = -340897.51014644606 ev
CRYSTAL
PRIMVEC
9.00637738911487 0.00000000000000 0.00000000000000
0.00000000000000 9.00637738911487 0.00000000000000
0.00000000000000 0.00000000000000 13.18174368755137
PRIMCOORD
 96 1
Ni 6.336490953711137 1.925491466174422 11.34041269740122 1.0036961963591942 0.18393183506238647 0.2244889305491424
Ni 4.650866340452743 0.21982856353620295 6.038319514540371 -0.2779339377421601 -0.29001375172482957 -1.1646395409462071
Ni 2.5017735391922926 1.4946894094954015 4.703576164982127 0.548937466913074 0.6282814533600406 0.4524061700535435
Ni 3.1468553302075923 4.261322499266094 4.856945768042504 0.7363922275270544 0.33829109867397866 -0.7598507156603108
Ni 4.9755552570027275 4.553750571482161 2.6423072529883767 -0.05406052928982947 0.5525071865422033 0.1850744333072619
Ni 7.242424457301322 6.119455267848846 2.6040139369808535 -0.8983892101895624 0.34859350904125125 -0.8905391180175244
Ni 5.0621065451235925 4.565999244931108 11.58969211548011 0.4856160811466088 -0.3776523740804205 -0.7315472407299273
Ni 5.787696344933109 7.742926869731371 12.446070728591769 -1.2395208636361297 0.9180141835093416 -0.3991208283668417
Ni 1.8314468719436119 6.607790064227771 0.23496738353644894 0.9885130608608523 0.3175376681767112 1.0375056887094711
Ni 2.9028815691351526 1.535677433661693 0.38656903468651155 -0.9730273065204275 0.8331752353860747 0.052245330457961627
Ni 0.34564855835174 0.12260201612192771 4.75242765737509 0.9514194984426647 0.4438120006266292 -0.2952338624731883
Ni 8.612429576188475 2.5273156258843605 1.255947453133619 -0.42000204269122504 -0.09812358104731489 0.5370456005714944
Ni 6.955021943750338 0.7537194187676747 4.820260991062908 -1.3644312258589857 0.2596137992767335 -0.052330433972600204
Ni 0.695685924476768 7.396721717247907 2.3109311011179203 -0.13572596478112112 0.23854489442157628 0.5603649920237253
Ni 7.517614322913503 4.02180689507397 3.7205075409849533 0.5700449383156504 -1.0053985237622813 0.6496522057263328
Ni 7.4436089187002725 3.966904017614574 12.623444129061067 0.6741933854008066 -0.6766845272537766 0.3822754746747287
Ni 8.046369741673953 8.749578693306534 6.81464494092338 -0.3075311917833027 -0.3439966336991882 0.6035245581303348
Ni 6.858410531921772 0.81022363015297 0.46587289080416633 -0.3685388418149266 -0.135279878382638 -0.37394587176311084
Ni 1.9819704597026166 6.470956170323471 9.27381831437044 -0.23367496792378464 0.09525011615426177 -0.6915524455045444
Ni 0.17710771233198694 4.901387737993847 1.500543554893795 -0.3297488655309224 -0.03878252008483644 -0.8637986166988866
Ni 6.459977396107099 1.7407076182685104 7.010592193785151 -0.6787866611984439 0.35676473199813397 0.1569679048790329
Ni 3.498230143396715 4.481123143031936 0.4865812546726686 -0.40239512824273926 -0.49661320358806094 -0.11817972836724162
Ni 5.870843222345371 5.62125848806801 4.766360523423268 0.13403135068751754 -0.1717437776366268 0.5073992384599714
Ni 5.425234680997184 2.628979615510618 9.17819760407083 0.5969975556450944 0.21412764191947642 0.07854694446696796
P 0.17762467840255278 5.589592064651469 12.461519367979253 -0.33992991982898235 -0.5724502053230335 -0.09227303580380883
P 3.971128008678953 6.263467244649329 12.567329893823082 -0.0981156106275149 0.8651304481364326 -0.080644450425945
P 2.3208984591370005 8.63638654043421 1.410275334763826 0.5681754892070795 -0.6809885539457691 -0.5682014573490086
P 6.2953498211267345 7.66487760200448 5.802919824882193 -0.058938426207421075 -0.0745355093147297 0.4456886488240518
P 4.818520058285202 0.903672902828651 12.408714075847989 -0.09699949474520068 0.8298788240229901 1.3513828773154597
P 4.008468449943169 6.024203819028212 8.235189347353742 0.886581676031673 0.1160454556330582 0.18850428492441731
P 4.705760211534604 1.067832146177145 3.929069126223632 0.1508085701458564 0.14170069430731724 -0.666156116918627
P 0.13019169047150667 5.612927588847219 3.5528889480248855 0.7796700643790831 -0.2228861048383968 0.2054961914967235
Ni 1.3104999825068655 1.2173380132745826 2.5425742307058354 0.12650624595506602 -0.3678348737693665 -0.32160026828185906
Ni 1.7922691296620545 6.459869319576668 4.663173555355675 0.7729229754632365 0.47540108828682 -0.36101347997215893
Ni 6.0655701110510165 5.515469577530269 9.202676037575898 -1.052843347507806 -0.17833454348026703 -0.5256851812533527
Ni 8.581429624709596 2.2251696723069605 10.167277084435524 0.42001644086892825 0.9120829056265711 -0.4171668872352751
Ni 2.4639557599186697 5.114271483812048 7.066390305171625 -1.449891352506019 -0.816972143263651 0.21791050600067632
Ni 0.506334942522356 8.819342093700314 9.045273378654905 0.265465115851188 0.425084599420455 0.14589313512211002
Ni 1.3860364709012154 1.0653553923547476 11.37900862769395 0.4369067888663637 0.9646779061144677 -0.15260911368970492
Ni 4.057580226646923 6.934271249907416 1.616016122558233 0.04154594176258652 0.8059912187721151 -0.11394306457807474
Ni 5.688527121884321 7.843609164206206 7.951148914536944 -0.2333175845843659 -0.24093961990599794 0.3916584585515255
Ni 5.2023898816241765 3.026422049796331 4.790904703484348 -0.04969942410765634 -0.5986060377827948 -0.021880345012859095
Ni 0.9516498759628709 7.256285272329212 6.809306860957799 -0.4666547095527576 -0.013653072007060358 0.6036243169329928
Ni 4.964684559316787 4.272265247972323 7.009049401313237 0.3659006328611311 0.6284460039623628 0.47532369808166525
Ni 8.056276756963543 6.9878862153791665 9.010684385727934 0.29328548049756586 0.3099526567406017 0.04312717020677734
Ni 4.619830363463722 0.2996881131478283 10.254065240285586 -0.2883412491184131 -0.606722239132026 -0.365088678482797
Ni 8.064013235266959 7.141093703643896 4.655528041465372 0.2270248095971187 0.22005454892687265 0.6276314784808674
Ni 7.231706868033493 5.928339936535132 6.866409996449238 -0.20412553640144201 0.13585786237329506 0.23561177993518131
Ni 2.445879960203937 5.275458622573666 2.43863613075174 -0.5417538046804412 0.16782284531566583 1.0859511858053685
Ni 2.5089336093334045 5.125169200630596 11.45453971226178 -0.7387825821361019 -0.035802097300273825 -0.5003811552709253
Ni 1.0527734829369693 3.4289350746348055 3.5433052616888383 -0.5814781198532567 0.3942426743389339 1.0699496681707894
Ni 3.7148245167597436 2.655890671588157 2.632091318949303 -1.1101061857850172 -0.5546057209424449 0.2021038779857229
Ni 1.1582111447508066 3.324407056952103 8.303879187545233 -1.0236659546129014 0.6644239647188687 -0.4961519476809262
Ni 3.500796960994472 2.383087496023013 6.949757716080551 0.21686201013150394 0.9592891309987286 -0.582380577062868
Ni 3.9272129118134647 6.635989032292956 6.096253038040627 0.8402182582757852 0.9394114182381951 -1.0509209336741125
Ni 0.917479679591324 7.3212212543637 11.330697517953146 -0.4948890218081025 0.6838661326038803 -0.6038960825371406
P 0.27136845962366063 5.500762163013996 8.00622201253177 0.2597212713888753 -0.34723082436576974 -0.05456600817133828
P 8.471353678464723 1.602919048345396 7.976405499061121 0.14141170231198874 -0.3327542280161495 0.6152626725028694
P 1.7276213517087167 3.342554907687124 10.449023592893905 1.109905896848753 -1.154397808613541 -0.4645363776581742
P 3.984484466564827 6.133604286957886 3.805819551556867 -0.7544763387222748 0.5450062501794679 -0.11143932431961452
P 7.023524451289079 3.8390494821136567 10.423925520614361 -1.0164941194548107 0.9733389242235754 -0.7666276293728281
P 6.422411795404484 7.702425189952023 10.30673993994258 -1.1861565890823764 -0.5237275433063496 -0.82136872966945
P 2.3563025292309785 8.463536142763484 5.616424765244444 -0.2520735250356304 0.18139672734535855 0.7935385948310592
P 6.732087080601972 4.075998268708024 1.5688650342440635 1.0844278071823066 -0.3001955773538379 -0.40863776671834146
Ni 5.100824962150815 2.8549316151335407 0.41282622775493744 0.8238048499147683 -0.6706655747532062 -0.30191101738304776
Ni 1.4560970817536836 1.0486575684030217 7.139904861809146 -0.48530009256808676 -0.07145584194814145 -1.2851355761514514
Ni 7.047373339004382 0.4623441920855653 9.32301204910977 -0.3781964195093487 0.6738208325527363 -0.9258138820594185
Ni 2.6852424559779493 1.696053998445071 9.174665302801216 0.20821821841357688 -1.1053033650797353 0.607374013783412
Ni 6.256163072467641 2.16286355251298 2.570163467011834 0.5670480604708558 -0.45152556722080295 0.2903940178823837
Ni 4.163369137184665 6.703716991363604 10.338230738997169 0.7529164504343226 1.0753250735500899 0.49644453922068044
Ni 8.087294721197493 7.106887481762206 0.37898296288794703 -0.23226934582550965 0.2697406032980903 -0.025551880327175345
Ni 7.520739535918492 3.8329341517667195 8.135561699688372 0.9032072004034961 -0.6241124095840155 0.30037452613386334
Ni 3.1447838633743146 8.538847471719434 12.292780381653708 0.12993481202064075 -1.423386107126639 -0.16757190564712432
Ni 0.23791517090397854 5.002015994203466 10.292885429378964 -0.3727503087931129 -0.8692133599565547 -0.4390135507967213
Ni 8.520321353127903 2.461704165534672 5.9179438749453395 1.1050750511190128 -0.018846700392857865 -0.8228234598381056
Ni 3.714140032067008 2.626457829800541 11.301420486496903 -0.20007450626051995 -0.23759204359000372 0.4644142502580131
Ni 1.0644997864888284 3.387460706081571 12.619819062102833 -0.010217821073266273 0.36963901685764083 -0.39296817850188454
Ni 3.169146114609168 8.192930523317122 7.855185961890967 -0.4309174040521482 0.5902427534197642 0.6933175078247672
Ni 5.607694883498809 7.8563261692870245 3.6405606295112287 -0.8070829091743971 0.2341853319012999 0.44016926166771936
Ni 3.1321028838036398 8.464517837914908 3.5061989862405585 -0.16936293610927605 -0.7252477808744606 0.13235422009541079
Ni 3.6727016890239175 4.091309110519207 9.288990457967568 -1.0280928800360036 0.8941826283073825 -0.026373090676890063
Ni 7.1899803209092505 5.96870652065144 11.285378326829797 0.6448329299608184 0.014732678224484305 0.9380322785024813
Ni 0.43739652631087245 9.104366923581797 0.23108923736945156 0.7324191018119193 -0.43502114180787665 1.1790634296810212
Ni 4.634240567521306 0.458070665944738 1.6919164686050372 0.05694659258837289 -0.47563145913007127 -0.05621151419456125
Ni 5.840689870354876 5.701532331046291 0.43804678676897085 0.5800568140256978 -0.15604102218938934 0.43118454167060577
Ni 7.9177406577049405 8.754946494317984 11.529043169152752 0.47188844714787126 -0.08204621586947806 -0.12173170738455812
Ni 0.1743742767498139 4.943393482821706 5.772390906948448 0.002603499061118097 -0.6306322129804043 -0.217134032845968
Ni 7.665634137717502 8.832239226331852 2.7425149113670644 1.1937755390802152 0.18094806984371414 -0.701818860427559
P 8.363655415889353 1.8541249305792353 3.4530370415588694 -0.06544460275705502 -0.5825217306264227 0.6562159749867794
P 1.877505486662666 3.295901872050694 1.5140152944121292 0.19928929135506324 -0.5402581939715212 -0.22221427558235277
P 4.629935519059102 0.9651594422668562 8.100853822577927 0.5060571226097801 -0.5594021138898237 0.3758983675037913
P 8.515484928391077 1.7270989818116291 12.333142462581248 -1.153360625598278 0.0787685735594708 0.6732328212597503
P 6.235952761276879 7.838052229266499 1.4729543185877962 0.03570799492457076 -0.5307122021542989 -0.25711365856269913
P 1.6773117267926754 3.2228331311012055 5.958635589290696 -0.4168190169775531 -0.8827396765777635 0.3337937250242574
P 6.829130798552267 3.818821158167822 5.959465977299515 0.028601722897092674 1.0655705652664875 -0.006868187874743011
P 2.359535818766399 8.629001310854697 10.117923936813805 0.8528068935740732 -1.18542382468141 -0.2802582149999625
