# total energy = -340877.3262100848 ev
CRYSTAL
PRIMVEC
9.15313143638131 0.00000000000000 0.00000000000000
0.00000000000000 9.15313143638131 0.00000000000000
0.00000000000000 0.00000000000000 13.39653306984902
PRIMCOORD
 96 1
Ni 2.3956582881859547 0.9596143174993238 10.761167495412831 1.3480674397889816 1.60006074640598 0.7670176657223952
Ni 7.987159935756128 2.5697966169767277 6.477397558433595 -0.05293644298771528 -0.5784532169840038 -0.8958443322805217
Ni 8.194487519747707 7.923902643231921 9.533897303511417 0.20974416813980007 -0.0033804864364586945 -0.5802555603000652
Ni 6.256449199300174 1.5655150172435552 3.0753616033768556 0.45942759567669905 -0.3470719301904023 -0.27915366908187406
Ni 4.755729200690515 4.120309651519202 0.30655668372460276 0.6910114853994098 -0.39154764400527403 -0.6194743965913718
Ni 0.8593408454501359 5.999182129270095 8.368881220910268 -0.7186148489389753 0.1723317889296129 -0.8533684225044981
Ni 5.989470656636875 3.0633334731343345 9.29723393272486 1.2323014630695552 -0.9360479010826009 -0.795673638896191
Ni 7.277105751475222 6.448143234509907 7.59440088919916 0.21981003701623433 0.5243307241079873 0.28110770748445135
Ni 6.012628079598276 4.310813779620245 11.546981234677617 0.7350192584389277 0.6921977923980271 1.6410685562769092
Ni 1.2991863469242324 3.783181508232907 9.358175482952927 -0.005691393957822457 -0.17706698962175313 0.9195990114979582
Ni 0.054241457892989245 2.3198978178889127 4.4292827619876025 1.2294573087525404 -0.06984427448664746 -0.7546794558720165
Ni 0.07621538093782543 4.685002952776387 12.627612766383212 0.1043885881204202 -1.014516941123782 -0.4831424227951356
Ni 1.5838578929805702 2.8899182417403804 0.412194806207655 -0.6104212852501681 0.661041678510197 -0.0657762750648609
Ni 0.3680849496885688 0.8388259315831842 1.6425084143678308 0.2011299441082278 0.7893281562941374 0.9280204027924341
Ni 4.084804654022255 3.8747952024703234 5.528334055735698 0.26037844535689997 0.8920149312321025 -0.6647818622789197
Ni 1.2050830008901752 0.6015804216265315 12.804259053233837 1.8274439677837817 -0.24370895512101898 0.6453247819955724
Ni 3.197985192179857 3.8856782759490214 1.9385051301594027 0.26778553645424846 -0.7214836858463382 0.3388857948351841
Ni 2.4540461146961436 7.372380698354758 7.499513119786529 0.26197355775816167 0.6250135812420461 -0.4729935072865918
Ni 4.477492306152701 4.787966530204371 9.942759454501582 -1.2422655162608025 1.2404225495147927 -1.0851716273268666
Ni 3.581840072311192 2.041706689009125 13.02591861069299 -0.42659049454202014 -0.682470023587302 -2.3911539650203397
Ni 8.397256844199848 2.2951660562914 8.871787222579057 0.2058692585654261 -0.8861499878108933 0.024038529006442474
Ni 8.371280256704015 4.341897814551833 7.890357331211668 -1.0633434757081817 0.9630755946243542 1.5856155175149271
Ni 6.116598501502843 2.0519398901438466 12.696685043416265 -0.39571668778129915 0.21977327024102794 0.10180771476712143
Ni 5.862791315219566 8.662249157304798 4.548953550534735 1.2792714040611903 -0.27312340372739413 0.6568559225636237
P 7.482474565303268 1.101606848092294 4.729083519274336 -0.21836481992927553 0.13331478423646717 1.145754016895614
P 2.576652312549095 5.802087746413237 9.827134350123991 -0.8132260459576575 -0.4320440614574237 -0.12011448349610926
P 2.6308296985208472 5.226447299756117 0.24932032117036035 -0.4910945877626768 -1.089205431076608 0.3288839464274659
P 0.9379213955947702 2.5555818035937015 11.660074582853184 1.2116087106068938 1.332498124595815 -1.3457727302175337
P 5.93751748164521 7.159899901269396 2.926861196212519 -2.1281617361896767 -1.077654235903899 -0.6560151718298831
P 5.727691092725384 7.8556111283248 6.963517632051431 0.7268344086352901 1.135129190191916 -1.2515554262031607
P 1.1503655801537103 3.171001760207442 2.5120513403052307 -1.5424634076074855 -1.5540968780813558 -0.1652743678621992
P 0.2819091309378593 7.998180306208905 12.037535085245057 -2.092440628638984 -0.7675113175293621 0.5425415906890592
Ni -0.0046818268161093485 8.962673242853851 4.173903983007696 2.627096903042695 -0.35574940335974214 -0.40637159639198406
Ni 1.89386530732037 6.371220316498992 11.972575310242267 -1.6141653041281618 -1.974509011726806 1.7346973347776642
Ni 8.795912338136947 4.549326082991071 3.689364655218096 0.9108238364084894 -0.06829569905260495 0.9252826921462968
Ni 8.550306357772017 1.9247479733566415 12.909837680361456 -2.5209553367869098 0.552962528912067 1.7199695416491865
Ni 6.802479265214159 4.959578594672082 2.5294935478922844 -3.07663192219603 -0.18983894457544082 -0.6541827466068346
Ni 8.455104635945323 5.86334965624749 1.0235892155413857 0.04702779081276417 0.08142658000760815 0.5563640983944483
Ni 1.555977454110836 5.407944746357549 2.2291024136170097 -0.8884156439166184 -0.022074463301536177 -1.675066767599225
Ni 4.454279964401668 1.4742582951387453 5.213796756564437 0.7032170263266664 -0.45068198827358513 0.4431810519108496
Ni 1.5719130562356578 0.5747306253755536 8.663899466933232 -1.1033331287272419 -0.2764750938084464 -0.061619572584010004
Ni 4.557005560407915 1.8552116325512011 1.554574279035744 0.2816980327702826 -0.2587398813122125 0.48225847752828555
Ni -0.027583877405722643 0.7513888112972646 10.726564081379006 0.6407086233797998 0.45687371890659384 -1.333304422547194
Ni 2.9145584720218394 4.904522508066221 7.569416501169342 0.5179914121535207 -0.06925497764208073 0.2896856789614495
Ni 9.131420377129103 5.728405036990598 10.398389531429013 -1.3385849542198431 -0.39385289509968296 1.3045301786279793
Ni 2.0187231755482244 4.120273038992781 4.154372115475153 1.2411198326921336 0.6311333209865388 1.3859138212127937
Ni 7.605767248026617 6.416638155524474 4.059457801980867 0.13617693627561064 2.23239271568631 1.8380068309012927
Ni 6.337051676216418 0.999393827455944 7.3886567969752965 -0.28729121058734397 -0.5017780356184519 -0.2366533338258182
Ni 0.6910568596341109 6.721867635166309 5.136887568250929 -0.03495620436021076 -0.1431749648599986 0.9601111126793916
Ni 5.636351992436127 6.339202662143663 0.5521782244132626 1.4924971029916878 0.3183560503129485 1.675693602549946
Ni 5.561644132273694 4.738924051063191 7.334253328652894 0.3432749250418153 -0.16572971023206295 0.9956936377696918
Ni 7.220493632496461 9.113443626656302 11.626248269692647 -1.2875318442977697 -0.3930849065854069 0.3276297623053906
Ni 3.5490260955062025 2.7430745513966026 9.093312229003612 -0.6489490090117211 -1.0348546242398693 -1.3558856502818197
Ni 2.267267311158456 2.421909469629946 5.82528178190106 -0.12157307031950676 -0.457439875822709 0.4555454870134736
Ni 4.069647068083883 6.156249867616989 12.2782175961195 1.723022469542897 0.7195766986316123 -0.26103510510429234
Ni 2.8724174541110528 4.134478699244201 11.806860608467847 -1.1020144099158182 -1.5985044576624534 -1.0335639304529038
P 4.929757691902025 2.700430111247525 7.205472428219009 -1.0207829766381515 -0.8519085501295198 -0.028512248507079927
P 0.16666845808769015 6.820895366004017 2.8147454024923984 -0.17907656385261417 1.8932590665063782 0.9458368621485645
P 6.965862664368708 4.40206134859345 0.22898938524867496 0.393738995229638 -0.10013289816785981 -0.19714062044317662
P 0.30132566901217556 7.928552434087411 7.441479519469465 -0.9421686692683581 -0.5458871101225243 0.9290074492960517
P 7.055755569864329 0.7877715941151592 9.459560145178996 -0.15639120643995646 -1.077326934471467 1.209651329770207
P 7.0188592963633765 5.09885264517828 9.724945127629814 0.3083889117979076 0.699695386326653 -0.3915648703964547
P 1.0003640594061054 2.4590711839474513 7.636332300396186 0.37585748696352683 0.22078397089372945 -1.1518727281988421
P 2.978676158916944 0.16006172769498686 1.0972078530427885 0.06415390897008952 0.9416994429414233 1.5778659554764956
Ni 1.5257812729449616 7.713215859941197 0.7007124981645385 -2.6749371624544254 0.39701740887059367 -0.03535678223273911
Ni 8.110223790189343 3.1923194037161786 1.9325574252422808 0.5055639850234455 -1.471957331167123 -1.5678566508696095
Ni 0.8079634024364442 4.423424757760213 6.231691808934167 0.2874861002069694 -0.24096275983444954 -0.47208590787065796
Ni 1.5565632545335748 7.7640248934822 10.463723669514462 0.47510386876137534 2.3028964781338273 -4.478615652387494
Ni 1.3128611255425457 0.337245303370842 6.35678857389692 -0.6803776598346476 -0.2624630958000706 -0.5819342335540687
Ni 3.3262480253648823 6.822259182613205 1.3982232308935445 3.5470885219933814 0.1457769212592199 0.36864014327948125
Ni 4.973765948660292 0.3943544373957708 10.538048013462632 0.9278532810869504 0.8654541500244385 0.7214654310138929
Ni 3.9556082014134897 8.549098144400118 3.200043731477888 0.7434758738467131 2.2658422535940073 -0.45126048648487443
Ni 4.6634107153194915 6.93604176159865 8.532211531901506 -0.9827532755589399 -0.24599209472824088 -0.4253219122422417
Ni 2.5397285796533278 7.016333032040314 3.580129352014162 -3.0904505732466774 0.19927335051546324 1.8208763418685932
Ni 8.31212356713898 8.12506101652153 0.4477391621705043 -0.47898829141744603 0.7203200045555401 -0.48231298491530483
Ni 7.811795087330244 8.426528559073587 5.998043479698396 -0.34341350750220856 -0.3129346221870611 1.242730371712363
Ni 7.361872903271877 6.668871003171641 12.152517639783957 1.005269968604217 -1.0450937854693743 0.00031341747536075057
Ni 3.931755140450086 7.947206516299006 5.750971167650297 -0.799686616710326 -0.3459750975817977 -0.9465012352054408
Ni 2.9675459508849036 1.8250703701749584 3.348556953026472 -0.6281318151560538 1.3693338053669255 -1.076802686536881
Ni 3.6383972725003213 0.4895049016854739 7.440716148293584 0.9954771508835113 0.6396061343442404 0.4226934734804591
Ni 6.433049720492772 3.4776774346429136 4.635160489932903 0.9434693903576525 0.36670847347440716 0.47191364395885177
Ni 3.442996218990444 8.70675168316975 12.573958939539285 0.5477560450104632 -1.031488535981114 -1.1664110310243332
Ni 5.61009165786053 6.031721512126925 5.335088564718867 0.29840660377421513 0.5618570031882194 0.671463130953837
Ni 5.416072727223052 8.797898567695297 1.4296111497944284 0.42104179680964904 -0.62203007313369 -1.3954248460270224
Ni 7.576193479809903 8.51635739264797 2.6166240382694266 -0.01525461216622534 0.20436079234069965 0.10066228830876858
Ni 4.212188786573171 5.580993852487291 3.476453660947285 1.4031258142157061 -1.2065256396570316 -0.5233061394982148
Ni 8.018573483425506 3.212447140116226 10.974641407277366 0.6480244403149227 0.42073892085724957 -0.3914111184274098
Ni 5.595712088108609 6.821682535322071 10.58430610996948 1.2866514985753454 0.5178901106889662 0.06150361583143601
P 5.517095840750715 8.051195244466784 12.616077989934219 0.38549423872234256 -0.22020855800623365 -1.0474933960498025
P 2.941175778730043 5.851450585160603 5.5076498089340475 -0.23159983056231082 0.03602115528961538 0.481763540169738
P 7.746478340194845 4.919469571977671 5.83326605860036 -0.06583541043757049 0.018388786919832846 -0.20058744134119647
P 4.515660864946789 2.763275512849493 10.995392471939736 0.060411411208521774 -1.1891812348413133 1.5758365837512924
P 3.3902101090226964 8.63194313855966 9.527534046419413 -0.11349543551769485 -0.591340357359317 -1.572654072258253
P 4.930554014351685 3.3600596935148483 3.148238837218229 -0.30973231319967953 0.3380275605999469 0.1627433739102294
P 7.215898760430602 0.8622790006954363 0.9758181063801808 0.22687440006218346 1.0933420789528008 0.3125700397587907
P 2.331064638447375 0.26799728621096863 4.491455408416582 -0.4480826029775251 -1.2307217772872612 1.0036913112631876
