# total energy = -340893.56215764745 ev
CRYSTAL
PRIMVEC
9.06751983103524 0.00000000000000 0.00000000000000

0.00000000000000 9.06751983103524 0.00000000000000

0.00000000000000 0.00000000000000 13.27123183167327

PRIMCOORD
 96 1
Ni 6.534852658451971 1.9669535821733912 11.427220233705118 -0.4298408831585178 0.10424229235054304 0.34474173939532887
Ni 4.630147599218151 0.5504773349718092 6.213020087462625 0.03567174236999663 -1.3046962718921982 -1.2921588015468197
Ni 2.746107417446715 1.7090007809228618 4.887223571310885 -0.22333604789162184 -0.9437990057829294 -0.5781562545688753
Ni 3.403611408035804 4.203421053251785 4.871086106449188 -0.5861063626538873 0.7637112270569815 -0.5109062231719653
Ni 5.028565348590584 4.619438858418204 2.560245931801582 0.65760462780419 -0.23174895454566538 -0.2497667312793247
Ni 7.228372837404639 6.00883677145308 2.397687065108001 -0.1286402615789333 0.40859662906776084 0.3311321190316942
Ni 4.8757141685188685 4.57423727256915 11.370804846207212 0.7827209353902649 0.3950111770738423 0.5856957574790299
Ni 5.6378392017411345 7.830719105482235 12.545241789282656 -0.36310661505576175 -0.2056769400489619 -0.8001509579412542
Ni 1.9206729614765865 6.4921627755678495 0.2577913993993534 0.44660344732883733 -0.5865370224334027 1.3669943586004716
Ni 2.641758400405408 1.5043015230407362 0.4354268311463392 0.1466115013453733 -0.026002337601032637 0.1254739480358097
Ni 0.7960937756310373 8.795258381614918 4.482053239996266 -0.7658210743111327 0.4138941300212743 1.4084294858168065
Ni 8.614987021882714 2.2359234198946534 1.5743526467071085 0.6737035902485817 0.07736475123340869 -1.020925672863603
Ni 6.6327909390448765 1.1160938008831531 4.702514567423308 0.8853382905428753 -1.2999518152286775 0.5363660580059665
Ni 0.8159842869085668 7.256717904077487 2.475708538616163 -0.5597414995071134 0.1660752664969398 -0.11072532897172543
Ni 7.6659350694471575 3.882920500910628 3.603099562329674 0.23900692165965934 -0.9172503087601236 0.177776614094268
Ni 7.66655166078873 4.0415567585694445 12.643131105269024 0.7115273459645746 -0.04010560977163415 -0.9729352610272535
Ni 8.3986904062672 8.856690827778879 6.904371315696117 -2.115199262491738 1.1335639025873252 -0.1955668481981535
Ni 6.764877498937189 0.6444522026911695 0.1562233906589303 0.3455804332465403 0.42522035366737093 1.4722383527426515
Ni 1.9439492846209239 6.418135544500312 9.1756635030457 -0.8452807604003572 0.44998213399308307 0.8101823740353272
Ni 9.2612019504092 4.763567084510624 1.4285813860397942 -0.040474305964962556 -0.12463062619890794 -0.5679631160859573
Ni 6.438736949324595 2.1806931572253276 7.066241050890294 0.22828644991836167 -0.2688692564367305 -0.30636339672744656
Ni 3.3569499515103813 4.338790055285992 0.2724599260649532 0.384579440217557 -0.4747451998703759 0.6601615898980888
Ni 5.97354598466782 5.539338734925031 4.649085114172162 -0.038896677065197525 1.8543899002450062 -0.3677829374855085
Ni 5.236420103338402 2.885520533280056 9.559719207919374 -0.07998007736906872 0.011018205487374573 -0.8433184944676638
P 0.152598196271277 5.686141879337506 12.442217536873756 -0.06716004278626499 -1.4133266660081079 -0.1654540879731731
P 4.000145395967111 6.244637622005667 12.574889858540558 0.18161681377596461 -0.2838420756964789 0.8518401587854296
P 2.3564579596522215 8.273313810974347 1.4291390385031275 1.2729056097441624 1.3769756381828995 0.31694991399404127
P 6.462194622863511 7.94431699264712 5.861942951843315 -0.12019110237031556 0.90027151481394 -0.5223422329230488
P 4.57441862296373 1.0565020612241793 12.60038409701061 1.8138700857540888 -0.5743412516981592 1.4473313050883267
P 4.051721448185651 6.099475698664142 8.191163895733574 -0.23426966408499011 0.03604326677680244 -0.6403823503886326
P 4.648726947142866 1.1429517943204446 3.8101572820933125 -0.07343070628632514 0.12459257387212092 -0.42359233114564465
P 0.0066537459771385905 5.585782570976958 3.483936938307104 1.2013060431293052 -0.8544143472705091 0.9917287395846727
Ni 1.5272967530734747 0.9901822219262896 2.670078984774987 -0.07624734979951385 0.9964947935147482 -0.8131651108127349
Ni 1.7631882788233526 6.40883226925836 4.850581724086005 0.5940261317215962 -0.10434436514604609 -0.447394575771565
Ni 5.856484304966458 5.587151766456037 9.215423670305382 0.5321116536049867 -0.5886512405629283 -0.6745484547473802
Ni 8.684924801552475 2.4615777158704923 10.46706056960154 0.5440852810270952 -1.3925871194679111 -0.30535886672233215
Ni 2.4030468760198116 5.21444950303504 7.062657567093394 -0.3409460197983225 -0.007657002324625523 -0.40598027449083635
Ni 0.584987408308402 9.150940910504588 9.390630820268942 0.049392948610831065 -0.2379586829008031 -0.0993451121592418
Ni 1.5409161677064294 1.0978408836686804 11.549780457370142 0.10738263775173766 -0.5079741371268348 -0.2103280656677281
Ni 4.208571404457856 6.752065093560114 1.8516682295869402 -0.24710821061055507 0.5767730010681035 -1.4313107612903542
Ni 5.737999024667644 8.095363736292764 8.103161803259702 -0.582598606610945 -0.05084999277233177 -0.9268682914658618
Ni 5.4990245422099076 3.2384193336129217 4.648407770448406 -0.5377364559909319 -1.704381714513258 -0.19837217885743255
Ni 1.0219910811356139 7.497251999928612 7.009519181225548 0.7963724647354284 -1.1965752133125391 0.4362838105703841
Ni 5.096136505611076 4.5556941947233485 6.702489336193792 -0.631303528015816 0.6307342857759073 1.5965756160708569
Ni 8.055348771728697 7.356696376609417 8.988167143593428 -0.22977383309716556 0.5236210996354724 0.9279720660530018
Ni 4.568415924903133 0.4199875653037746 10.487909517714424 0.016601613112423023 -0.7836282776958826 -0.296788865665134
Ni 8.234015180468871 7.000215905983596 4.876593717932582 -0.45273321437565894 0.6757615012188749 0.2829352476114934
Ni 6.969939457608473 6.213463489177373 7.104129682077912 1.0562965961637292 -0.7848981455472418 -1.0615187637946168
Ni 2.447550262849733 5.162664897862734 2.5113148750879914 -0.4233051389225291 -0.10969765903815946 0.337699744946883
Ni 2.324685370521813 5.263550122367563 11.496549582801062 -1.126457373449531 -0.13509424473439313 -0.6394999477836792
Ni 1.095710016532366 3.429136476072933 3.797416510122097 -0.07764243037482757 -0.609795221630395 -0.49642217062317723
Ni 3.6623530835027562 2.7270112208974453 2.487785568143215 1.2360966684459294 -0.7708948892896142 0.9383948040482226
Ni 0.9719927773499198 3.5288429230129927 8.36875943039375 1.0452732484700322 -0.9457417313315969 -0.684355413535473
Ni 3.6748934632879604 2.6455486236521293 6.938133318655067 -0.3671393903642387 1.0606962678933216 0.5654868866313228
Ni 4.332596939311087 7.077824807344089 6.083267507148558 0.10627423517890729 -0.5896007489603909 -0.4132495544587399
Ni 0.8201798282871742 7.55516624843772 11.746698876572816 0.6516977754014518 0.7805527240943525 -1.9431664928597825
P 0.06414816832279499 5.753504483404231 8.12618786285952 0.48517179452033865 -0.8823339564989127 -0.8263186174755576
P 8.522743143679618 1.6606890358067614 8.281991427354997 0.396064300928705 0.44961395202038695 -1.2892074322279796
P 1.8285650960694269 3.2520206132064184 10.586567759373812 -1.1864106140747117 -0.09636494648499533 -0.6337836141251924
P 3.840765601690517 6.195582340271789 3.9454972680643876 0.5457174173138795 -0.2949605542071436 0.007742362949580214
P 6.90654842718305 3.9850207730591434 10.51572594798707 -0.6584379223387627 -0.38943522564796157 -0.8135415203155473
P 6.14563844160447 7.855527839460773 10.188616080515448 1.487266964941 -0.18761185501713495 1.104563401589917
P 2.5825021589764074 8.430662480831646 5.758931393962035 -0.6121729778339522 0.9955576264124595 1.251139935932297
P 7.108454888988644 3.8762649414295436 1.3954704309973858 -1.7750304871790719 0.6376451539631276 0.9221590589156506
Ni 5.427354866271909 2.966638564775671 0.08233851965113748 -0.2199223942243825 0.17917940797906562 0.9565377935058366
Ni 1.7164452146203688 1.0316933272456414 7.249556376995525 -0.1470089938941081 -0.2736072853423481 -0.46158218012585667
Ni 6.806288861539521 0.8196974362375915 9.307220519785837 0.11561479585354283 0.1423097886462259 -0.4030772419114284
Ni 2.7020392715637853 1.5849027059117977 9.39595254759789 0.41962974695347083 0.0878096007158165 -0.5786385935219326
Ni 6.224507728207293 2.096211075910255 2.386777932122044 -0.035643974455854745 -0.41712240715058485 0.07714492191311875
Ni 4.2036477412450095 6.809335548168464 10.401420794283325 -0.766385688565351 1.100686178022698 0.35931038123812314
Ni 8.026305506036717 7.256318933209411 0.18718171651767462 -0.05232529176627763 -0.515766379477744 -0.3928378235716073
Ni 7.675628248037457 3.952141946521797 8.110288873766695 -0.4197955831073738 0.16485219272311608 -0.06928814487286132
Ni 3.247359908065713 8.410396574237335 12.650323461918065 -0.4139501800701903 -0.49401870338800724 -0.6786475645174183
Ni -0.1360934968605552 4.693865060353818 10.102380340884787 1.0929453577350143 2.2910138677636285 1.3901841664533736
Ni 9.01131017419775 1.9920524767832573 5.9413046047674225 -0.7094195555929524 0.7964251723502348 -0.7590768136087637
Ni 3.6239067998518055 2.588785950148603 11.58586465213169 -0.1305246230858397 0.8272562987984784 -0.4320036951377915
Ni 0.9986422178334444 3.2803566123595362 12.713468762558835 0.10094330988429713 0.21112896430246864 0.00503267732790101
Ni 3.278325487940241 8.24089742794318 8.20317382561463 -0.011120792503509879 0.7053659543488691 -0.299112114481672
Ni 5.567774476795169 7.825351133802669 3.554367991050121 0.43988361210650045 0.47873940863143355 1.2705543359031666
Ni 3.064168806980771 8.423889043594084 3.623232176383968 1.013207992504371 -0.35932940740151664 0.015181078615812563
Ni 3.310850681208156 4.369973255634016 9.449249615060994 0.3636000097524125 -0.20054296125650622 -0.9768651922092789
Ni 7.1725350509134715 6.064547612668042 11.153488134622187 0.4022051237191202 1.0715841184504191 1.4049564396665417
Ni 0.5330504688046482 -0.092159550269615 0.45543975394021025 0.023029628125953886 0.4852247592454611 0.5105010173137466
Ni 4.461201571627463 0.2059424148369711 1.6826995331969306 0.35280677579165043 0.24115970633660405 -0.6768241381554344
Ni 5.935444266766572 5.626069561132895 0.3762358758593873 -0.4422004331651352 -0.2528980778194548 -0.553460294484092
Ni 7.9327921750715635 8.838120547373892 11.294787294559159 -0.44349755471000396 -0.484310732071624 -0.3856446482572778
Ni 0.11919526709359488 4.701762870037775 5.605608702864412 -1.130102426401286 0.6483352866871221 1.2761691109867828
Ni 7.881769241556492 8.687690395069819 2.809811277302789 0.02623733642997417 -0.47563531578481316 -0.40465435659056115
P 8.540152781559295 1.4483005211944457 3.562993922568317 0.4023583614675329 1.0569650829856634 1.6952982641547516
P 1.855867397973439 3.1318941118366554 1.6535692193155522 -1.761766165969998 0.600513796328469 -0.8879114505866901
P 4.692912970782273 1.2466207473820765 8.207433746383312 0.2583773557664712 -0.6128383793320928 1.3571845715989013
P 8.670706930617404 1.4345178912063692 12.488348543495032 -0.905926399106872 0.8572708428826978 0.64206873695212
P 6.405023910972181 7.8626367749283075 1.4528279337951344 -1.4630628568909705 -0.09004491780423847 0.048474293451303614
P 1.7389689336271994 3.3619461548810587 6.075582784178232 0.43209059842464287 -1.310588211896601 0.18070124394023074
P 7.036159554189345 4.100921810235193 5.8832434624387036 0.7507770354938167 -0.6022757733248982 0.914720086139102
P 2.5069515845943977 8.44274041711067 10.322721977051406 -0.8012999839440329 0.0957288555628932 0.23662453747041184
