# total energy = -381163.660416504 ev
CRYSTAL
PRIMVEC
9.32917911457211 0.00000000000000 0.00000000000000

0.00000000000000 9.32917911457211 0.00000000000000

0.00000000000000 0.00000000000000 13.65419664206119

PRIMCOORD
 96 1
Ni 2.655867939819128 6.629780920011182 8.147922852050694 1.4046304237856906 0.32167534449416857 -0.005489819469977642
Ni 4.8096674637200945 0.7425914381141012 1.850607743061285 0.49300594585277674 2.3431445270205966 0.5543113296304776
Ni 0.9395322685898913 2.1097844582841185 3.5263325660207676 0.8191262134921765 -0.6298588251494894 -2.38303236435447
Ni 5.250685733517728 8.269831896126183 0.7988342583947899 2.200270638340785 -0.7618047540628881 -2.8591621032771983
Ni 6.988058702959341 0.2713242389489245 11.035716975794054 1.3525583856807997 0.47226279976815433 0.22215539731995934
Ni 5.737706184018346 1.3172054142801926 12.919873378767322 0.16351624752051194 -1.1129832502224961 1.2792199819979646
Ni 7.901581221032113 1.8825723084116464 6.733116501997527 0.4029036924480416 0.9462986322763317 -0.34929542020428234
Ni 2.5572491906381836 6.4468450527621854 4.297726910787149 -1.1895769276178352 1.2995306685308587 -1.8767207025317227
Ni 3.4523465805648605 1.4786748410916377 3.366101121237164 -1.8400757976151794 0.56416945337148 0.856405666668925
Ni 6.658216257018421 8.603545951272487 3.3100635428902545 0.739060775498153 -1.261533620461795 -0.37929376633858547
Ni 3.690716428291879 2.199279270590693 9.634646908618002 0.34017288907772386 2.03443808398227 -2.180020372732181
Ni 5.192387695145604 6.811961123776718 9.103157061492581 0.8058271823904251 0.10566334106778577 -1.3078636138765862
Ni 7.6988954822462645 4.823483977534964 0.7496331022784922 1.2831748528806546 2.2435297061397366 -2.431989253869147
Ni 0.21896049121666422 3.500186609493049 13.179412066127913 -0.27648717799330447 -1.2196894307324995 -0.7386931077460891
Ni 1.9796517430892462 0.05288524882763581 9.286819671770733 -0.3294727290514003 -1.0684198617898246 -1.521850359342824
Ni 8.422503907321543 4.600899100351333 6.529614460065965 1.8404326667339659 -0.5604176996385316 0.5556215638014689
Ni 1.8698846252325636 5.018911615208071 6.1282629256427015 0.18272650190037562 -1.0697599207574866 1.2887883424126902
Ni 3.236954500242313 9.195911488874724 0.48948615245961125 -1.995589743656505 0.21746082005776737 -1.5063728325325154
Ni 0.028516500862869457 7.126513045651083 3.126838471098206 2.342326401994676 0.9815286591232191 0.16691113213467382
Ni 4.872219607628734 3.34660033877449 2.415249759999346 -0.9967560175959349 0.1811319037197461 0.04608059640814644
Ni 5.263513354378933 7.8902276104225955 5.3445251443952575 -0.6916493760937249 1.1765311501774705 -0.4700753051985324
Ni 2.607580110308148 3.075027943669269 4.995756593406245 0.6218256704323678 -1.0360350177012159 0.9544050634335499
Ni 0.6351650112203832 4.417991220638761 1.4885395147633744 0.1500961174598641 1.0971560533822524 0.33412693999396004
Ni 5.834636351835015 3.6042162823827204 10.04252513653545 -0.03817342574592781 0.806106918414373 -0.4521364613319246
P 4.504510024905536 8.950246223319732 12.142826484561084 0.2693233132550136 -0.3831259956004821 0.5084199664150019
Ni 0.7619410878800835 4.676381486088068 9.684675562894583 0.8237714255736717 -1.5943981488035637 3.9502261848291003
P 3.751468040690546 4.72470663231428 4.320365096083004 1.158212811484257 -0.9488483952813789 -1.0463086317130819
Ni 0.5924103176605164 5.901610526498717 8.119290669370605 -1.1331882644154612 1.9374339612513796 -3.2962113312586974
P 8.022478049206917 0.22024418622066558 5.168099178118587 0.2341454798023 -1.3164390142504232 0.4153776565453362
P 3.438296837279788 8.842260978615405 4.146288217030225 0.3773014184989051 -1.4132683019663466 0.33675383609384585
P 2.8732471352278113 2.8115812633059454 7.324233795475235 1.568261599617512 1.3842318055246805 0.014173206176588495
Ni 7.9981195633388396 3.8155221823872982 9.117288901551166 0.6830289814145657 -0.01619743569546888 -1.0138643951414474
Ni 1.5548755735966 8.078882264280987 12.608762990955285 0.5174550800340765 0.2284142337454776 -0.4960784141305134
Ni 9.045730368421138 0.12662774271665064 2.684619535987963 -1.0369634430527561 -0.23313272226706944 3.119540291523782
Ni 3.83380737285127 6.9356287180575436 12.718241837186795 -0.03386914194361909 0.11628945332306423 0.8793622754650986
Ni 2.9559223178256286 0.8654464609207364 11.128838972821235 -0.284590009606097 -1.1569216034766592 2.8235114439531244
Ni 1.9436504420685987 1.946346574744154 1.1302029579887238 0.2036650518252557 -0.4328099930891707 -0.6266099791948886
Ni 2.6373215323485275 7.931929039695022 6.189638660103633 -1.078391628290556 -0.12568426427440288 0.3444110955287875
Ni 7.4991670931426 6.707381029337367 10.2089007784821 0.011580505748747798 -0.7523415517674592 -1.1627963170898812
Ni 6.115174087774868 1.6340429849625535 9.060719560012192 0.7984730560181991 0.8864096692301832 -1.8149062403280873
Ni 3.7147017470076302 7.343136577576305 2.12909865717063 0.7785814593005946 -1.3923117543193375 1.1135776892733853
Ni 1.3738988338973148 2.913269312314771 11.072214589127293 0.4900496914379302 -0.3503770833042353 0.3567071392873212
Ni 0.13820805237120617 9.132389110370037 0.5932042307770901 2.9635794877530253 -0.29403624262066136 -1.6895497917067486
Ni 3.418808182749564 6.5470497623405155 10.392044686418519 -0.8709452550459968 -0.6323797917991302 0.7372933991850852
Ni 0.28669965854263507 8.626579693749806 7.288869677367183 -0.6830883738975913 -0.7150716116724072 0.08897533888914354
Ni 6.81467591480989 8.619788051577475 8.807092773262326 0.8300374610880413 -0.13324356467889956 -0.8030521907484492
Ni 1.0943686492687423 0.19718338912480174 4.877374911838117 -0.3866198676863535 -0.5003297332076997 0.5625781976249602
Ni 6.247331234771108 0.3472068464565288 6.709576185110924 -0.7305062010599226 -0.796669427150557 -0.09868125332299779
Ni 5.319702998340415 4.5594122421914935 0.2556950656916323 0.29380098668140364 0.24083163357322393 0.20846067344168615
Ni 8.959211564154364 2.0133394077654727 1.5435658101274807 -0.8965729829164302 1.3315517015221456 -0.819649175875182
Ni 0.7213181116778788 4.778638615004191 3.758358572158245 -0.8878314892783742 -0.08830890894973824 1.1877293328861351
Ni 1.867412392848404 5.69569689184525 11.99060973729156 -0.9198982879059319 -0.9742884326210381 1.4478730365244097
Ni 5.619412196731014 0.9268417866571659 4.207732054496457 -1.0487689203281163 1.344863588139703 1.6267572818605596
Ni 4.453003628705745 2.9506233442625995 11.874030453069167 -0.4639969602149364 -0.5670159216813395 0.15494187558793962
Ni 7.893156972568354 6.780605753802529 7.308012219363624 -0.8064460469213466 0.4581749542165206 0.6663972863951556
Ni 1.620692930088092 1.1991539856418736 7.1842914487635925 -0.5636966275001195 -1.2202771849151695 -0.7559750347549883
P 1.5158609478209202 1.0662131876257481 12.79104581568771 -0.9246728264764398 -0.031147115026765718 0.38518956299773016
Ni 8.522008928489264 7.989891227630053 11.859324868513882 0.41912915316796856 0.11260866203736734 0.9827944132095203
P 6.859511948161854 0.8223699106919886 1.5447814021261825 1.4356916639668693 0.6618677739559181 -0.28897888270241195
Ni 8.339352936604511 1.1577324317336912 12.81278373522858 -0.37617913196900377 0.365892405331015 0.9826684291546172
P 1.8266065647415597 6.690821736952902 1.337268746224998 -1.4558694244663248 0.34173432002757276 0.01783471418857574
P 4.4027566716450535 8.676005683075381 7.6962833121799825 0.3030369034573749 -0.7968514612543761 0.5220681533260556
P 5.9255212117840035 6.385188510019129 1.3298324577970224 0.24793147784279881 -0.8075863311733769 0.3585351936349955
Ni 0.7941789981695235 3.144306425498584 8.010125283547048 -0.6416938701112046 0.652839602315379 -0.5428295542431232
Ni 4.068762741134506 6.0287485752961745 5.970406689783652 0.5108915678839459 -0.47256053351423133 1.2839513260353628
Ni 7.836985986964488 1.966497600969756 3.9562491130367046 -0.06889013810349426 0.5993807111652903 -0.9462945185112734
Ni 7.015729047304312 3.3077909549325897 12.563212342506617 -1.2938351608079781 1.2274356503368216 1.0376722961943226
Ni 7.624784485794327 8.189862175382729 1.2059988041334122 -0.8915747583708903 -2.069514101749797 -0.5337648729376937
Ni 8.188304202521769 2.601376206400729 10.982711380559794 0.7617191363276171 0.012274960712611117 -1.0775699037202087
Ni 8.427327092765356 1.3830974042021498 8.911752165721547 0.8294949583210102 -0.6160980239199711 -0.26541677911175576
Ni 9.288736818015808 6.60851972150741 0.08316309864948382 0.6938494690688373 0.12632318340998244 1.0313298989160624
Ni 5.94676375193016 3.317913113939431 4.628158027910864 -1.1181789354908225 -0.2524262803893588 -0.2065935383259603
Ni 0.8737746188427712 6.894869535844739 10.320906899252737 -0.43704382866486025 1.6387789889117839 -0.7009403144773476
Ni 7.442035202121494 7.020272357383881 4.941617502946794 1.9592412869344578 1.4615389640472762 0.905568244436505
Ni 7.640774698271496 6.010211497004382 2.6536793144707365 -1.2077829091029006 -1.1600313527502344 0.39573674238595713
Ni 0.2763759892735373 2.8293440197566615 5.4027606772693675 -0.2111114808009719 0.9104677386206513 1.885106869712889
Ni 6.160504567603665 7.393644751643626 12.153463614238136 0.17029753210840348 0.2422272283691699 -0.04124563691334832
Ni 2.551315832916201 3.608545021349701 2.614136657174515 0.22830213364764554 0.957566491880667 0.6042992315128303
Ni 5.236076239504167 5.104292259660252 11.682202945498124 -0.0026981156574534177 1.796570675243693 -0.6190298528547854
Ni 8.72716689965927 5.280427155558107 11.916890566349569 -0.7579684110359334 -0.10614028070420431 -1.059893312376052
Ni 5.045322520413942 2.4693776554442266 6.754594137449648 0.08935149128163966 -0.0244722741097514 0.07515411673533509
Ni 0.31890958129565083 0.7870710968355947 10.864002244815499 0.4694525840128689 -1.1100887022835204 0.4844043202266947
Ni 3.047003090529589 5.008360313976055 0.7254882546051215 -0.4281874067154948 0.3049541750847457 -0.343184422210538
Ni 1.927846813167594 8.685633395605391 2.6220561970647536 -0.6422338017750746 0.5570454407321891 -0.3339425918972958
Ni 6.323466663024413 5.1518150965089635 6.116287991724561 -0.8634108943421647 -0.25861029771288363 2.7020666716813655
Ni 3.6300021326084444 0.617614960046493 6.004855615450623 0.94341642563253 1.5150209951258167 -0.027947634252861543
Ni 6.850341365393444 3.106924406014331 1.4519327500380783 -0.475059131566369 -3.4719503460976466 0.8439910950546561
Ni 5.799847844059427 5.82241512759634 4.173090947746038 -2.556448644597513 -0.4469880843617656 -3.3189445111901548
P 3.7580264533926746 2.9257517535600743 0.2903100507413888 0.39920618899179633 -0.293751621500707 1.4100163706879523
Ni 0.4299417357987185 6.653915505587864 5.573670300116778 -0.4722702559673221 0.9116663869144428 0.12388629183371569
P 3.035985330357165 4.322516404716163 10.905456450849508 0.8867323426769245 0.30864036568708136 -0.931645401139531
Ni 4.330278281484543 4.515098642852785 7.743895709145253 0.06529599299433271 0.2166735482697817 1.0471151867747772
P 6.621160758792452 5.144435716071718 8.351288687971657 -1.2861285361923398 0.9782661863218635 -0.1387884057565287
P 8.918368419332287 8.56739538339091 9.438544771317066 0.39038036317005026 -0.760623075049961 0.13270748966977144
P 7.822283201162845 4.317581269126652 4.429707736303915 0.81646615016151 0.4702588819642482 -0.36189871079058966
Ni 5.0389133745727435 0.044684900655272725 10.048601230693198 -3.4684176503540396 -1.6520433101208578 -0.18860044418264937
