# total energy = -381168.65405606205 ev
CRYSTAL
PRIMVEC
9.26704901379490 0.00000000000000 0.00000000000000
0.00000000000000 9.26704901379490 0.00000000000000
0.00000000000000 0.00000000000000 13.56326295936370
PRIMCOORD
 96 1
Ni 6.9665876173439285 6.775575199842185 10.45783162749924 -1.3351126794005264 -1.0153936873017801 0.22867700048856102
Ni 4.47739334081129 0.5238097606067723 0.8185186049162493 0.060773936754263076 0.4430679233717531 0.2658029588065809
Ni 1.1908899547988567 7.104666649983943 5.707923098436835 -1.0236268738448502 -1.1820068285800611 -0.2689353337879755
Ni 2.7976665422701 4.995680866817378 6.4469174476016065 -0.19017653042051763 0.6856718183540513 -0.8046025659547046
Ni 2.81242895159866 1.0085236941731623 2.5131505253432236 -0.17416987057961617 -0.3680462184492242 0.42743175949639284
Ni 7.866566364583368 7.007371900743172 12.646467698286003 0.46622456399387446 -0.7165155432077853 -1.0345283512487022
Ni 0.16970376463916284 2.2393638979459185 5.883716241085914 0.134242181146743 0.5623187733159865 0.13031353551629815
Ni 2.818081851592647 0.4004190009019541 6.730416869234482 -1.8551558318767531 0.7036605416219881 1.6527845591622568
Ni 6.467742360497488 6.733632535296635 3.2465160688418515 -0.5798423840220466 -1.8402506326301469 0.9706621487223607
Ni 1.8164435749531442 6.130940725445899 9.99189366225714 0.728917516416564 0.7685495289858892 -1.1090834009474577
Ni 8.572085352029648 8.720293269412986 0.39242617099242305 -0.10960844175846284 0.6324080739339043 1.2121069903995512
Ni 1.9364240605632292 1.8312523195275567 11.874094364714113 0.9793419358845458 -0.5166899197332779 -1.2149693995490107
Ni 4.139794739531039 3.2065565528187814 10.548109367108133 -0.9656567250879692 -0.26218875909276135 -0.013204671615732098
Ni 2.46420104491988 5.124233372910148 0.970699306278969 -2.023747179927328 2.0959838659055516 -0.0731486562695321
Ni 5.053321912657706 0.1598464044365331 6.422286557611412 0.6272185593131651 1.130834419471304 0.910577010505006
Ni 5.025298355966203 8.597958953313602 4.19704286248654 -0.8893633525418683 0.2081259158100867 -0.4219409115851508
Ni 6.662368927175715 1.6694311069127963 11.375237987408665 0.49449101503873544 -0.05596828783550361 -1.0771590414350352
Ni 1.5665112588255479 3.804744576772669 10.092424465068243 -0.031314750952881554 -0.47637527927463125 0.6983067335092425
Ni 3.2678766171797866 3.5265199595276253 2.2929506097741656 0.7025459684015707 -1.3492884566802763 0.446950803365927
Ni 3.346831876112197 7.69653454640357 5.677175029289212 1.1206289396932119 -0.9914004097109765 -0.6634813982999412
Ni 7.691863953621652 2.0770978669709756 2.2010326024621003 0.08523952599579514 -0.6861333313715021 0.4854394463594285
Ni 0.42512217387567797 4.985366641090644 4.7260922126942955 1.4079281207003558 0.0631141548516655 -2.95901860785522
Ni 3.161574296145316 3.302804125503291 13.290655500912273 1.907005469558193 -0.9949593307068284 0.36177684050074466
Ni 6.305337323784988 7.603660179617112 6.0667525093666335 0.7927834618325895 -1.981081522738001 -1.1392786935839152
P 6.171502599665049 8.42035595596153 0.2745066771178508 0.742002117514664 -0.7539325504036628 0.46923275469257897
Ni 0.7659188338246573 2.496700586360721 1.4392385322232195 0.21180722131641586 -0.3381010941503596 0.31349460845558913
P 2.823901558471703 8.182025985395363 3.4646132909541296 1.1625829155274945 0.9040052708247592 0.23545648530423968
Ni 4.164991846225549 9.22174256707633 8.875229991199005 2.5837334484553955 0.5973875919946615 -1.154343815447154
P 5.762028765018628 3.0289998907125617 1.2518347036684574 -0.09733348104585172 0.13495489094305146 0.02024923716733932
P 4.655654298654464 5.83923255165782 5.198392007191924 0.2949587544349307 0.3577803177468419 0.6356533203440794
P 1.0905000111351468 4.248793771874117 2.6852414818486996 0.8004872582347504 0.6221727693591413 0.3567439060625275
Ni 0.22084953571590804 3.069181815915723 8.22932037083686 0.5362902104627086 1.8240560251481552 -0.08755917526790727
Ni 8.29241507511401 4.93508363229167 2.5782135508641817 -0.9204701012490019 -0.9308349894230937 1.1765360352734768
Ni 3.043771567090292 8.992698179778975 11.268440805948494 0.6147170844120445 1.4132860425781597 1.4434255422760174
Ni 8.10699068826206 1.6475794049688262 8.996105673758956 -0.8463346555861682 -1.540658493188263 0.9875332134460864
Ni 7.465154862715256 5.611967437801195 8.03723668245101 0.08114967219713766 1.295638275454988 0.014144409821182091
Ni 5.085923391639422 1.6784850139523462 2.940651550740961 1.0018915390502874 0.829400598834991 -0.9180357807758964
Ni 8.476393802295366 3.041621611682743 11.034935261180472 0.9889264942491873 0.8360067912975989 0.6090588576850027
Ni 5.309565089270393 8.40129363581787 11.882001937771275 1.5646846808995312 1.4285596809077783 1.4991673159230114
Ni 7.7877501113885135 3.1162862268492257 4.2637748835631 -0.2894511943531402 0.002473144130840902 0.44895163584603975
Ni 1.5762694616020536 8.42172747923876 1.4984688769962835 -0.5602017269729835 0.3180097227171233 -0.14991845423141922
Ni 7.295920010764119 9.115894331451212 7.565018437986083 -2.0161909648466243 -0.29147773786486575 1.2978427393054743
Ni 6.518646261590884 3.650689151362763 9.613505217348147 2.2622257398873424 -0.21079626355339823 0.5387816094259947
Ni 2.254079972028626 1.5641666953854187 9.28762109292429 0.6114579540447985 1.021489515786873 -0.8204657582392063
Ni 0.6799261777521909 5.494729998745569 11.795793359453137 -1.254843095815497 0.9946163455451129 0.14868715292747942
Ni 5.452194243053109 5.15714993156366 7.148721275035443 -2.096528682665428 0.9907414359707387 1.1239109528785933
Ni 6.43075756725814 8.787071625735399 2.465909888786915 2.1379324424231956 2.067288040632756 -1.5518746736190563
Ni 0.9477503857132152 8.055252752743323 11.819189878493823 0.3672386349462643 -0.5729924509797487 -0.16841728436655512
Ni 6.610408582476885 9.147263292893257 9.883346861913584 -0.9133692285381624 -0.5061741078036186 -0.920524351525705
Ni 8.26759791743549 7.686211053627665 4.3300852539024035 0.49795403388667137 0.18974278531720867 0.042358667471868984
Ni 0.06393893245658006 6.480558689500249 1.377905493993376 0.2923210597017675 0.32698930050791425 -2.002231931563371
Ni 4.7634393475562105 5.042516533324937 0.9422883869321397 0.9108649740590701 -0.39827339276488183 0.19275406133970674
Ni 1.2493001657203338 2.269926626110131 3.8497147862822123 -1.4331748110822866 -0.7562385728290203 -0.591700311801897
Ni 5.662713799058693 3.570482840792339 12.489242942059795 0.972108908471216 0.9950372351326154 1.069182708097778
Ni 3.6995172334419735 1.5437884542595535 4.884998938344943 -0.9895075635636378 -0.5385810633794144 -0.24190764024622213
Ni 4.256105473669618 7.246693445570578 10.42150942827558 -0.5668061196633786 -2.4939649242409954 -2.046799690871417
P 2.1493252482056246 0.9411244455563286 0.37449906437214736 0.25009968913871117 0.5720897366598212 -0.7481331701130663
Ni 8.818709331603387 4.740457065613442 6.544871084038399 0.3246015170020281 -0.6430717242953377 1.5427449434036462
P 7.542303047059425 4.90063801052503 12.104845742468669 0.3195451855250432 -0.20620247353512872 -0.13878634887399968
Ni 1.0005354977882166 3.7370858507790623 12.985726028072683 -0.8888342195112757 -0.45327366026016125 0.1503275167443798
P 5.148299899605861 5.099101135559831 10.140750273082412 -1.417201832692798 2.0661667825441192 0.17763597475134568
P 0.8213311543394872 0.2805506465868318 10.09643895076889 -2.3963825604091307 0.4407328474806732 1.0357149153576357
P 5.172570301383324 1.6134859310706642 9.645311583511036 1.2402916803638833 -0.4529777262862973 0.41694731502530125
Ni 2.3201169644174007 8.344069607190214 9.311071360850166 -3.4400470696311465 -1.6984872034056941 -1.1375997632195958
Ni 2.7978796844010208 3.675283899861192 4.560389959886942 -0.4285208787955136 1.270655123147089 0.15422633757815374
Ni 7.700815923120327 0.6432212493977902 5.416475328730446 -0.25549052113697934 0.021884715888233278 -0.9036936531216114
Ni 4.5965675931435435 7.44299734814866 1.7636176878617928 0.34755272648156277 -0.1451616562727242 0.9029056100026772
Ni 7.92489317206231 3.688498711978284 0.466442092716973 -0.3896753666832256 0.5361940512044766 -1.0359838527483063
Ni 3.564755804404988 5.9541624954699985 3.393786160849139 -0.24979347075220207 -0.20977450715710322 -0.37218672298015903
Ni 5.6027374568274055 4.523552512729404 3.356460340200316 -0.03292631841437555 -0.8844995966916637 -1.692488819730414
Ni 0.1091862267363206 0.1826359317565548 7.165160093558942 2.7277751321910637 0.44478053518748556 0.6586271555314335
Ni 6.953354271128497 6.2787872279115895 0.9755190985525308 -1.0869181777043282 -0.08723804448306266 0.7010778684964765
Ni 0.9916298635353943 6.18292887129224 7.763882826249966 -0.060483402097037765 -0.23728196854875264 1.4242402275968182
Ni 0.9354808126115118 9.163045077630567 4.91437733762517 0.5429473107679101 1.5138143764122252 -1.272858558556311
Ni 1.280150172408831 6.819139597992568 3.2112651405022974 -0.676361596696719 -1.2308788716904155 1.450533356965392
Ni 8.765674009200781 7.668603660203772 9.36400937923648 0.9675236030933788 0.7669310195458598 -0.8945919479306593
Ni 3.147747858782974 5.022444104821697 11.654206748702098 -0.02389994654604916 0.6907561748554942 0.6464879490657383
Ni 4.9205343650940305 3.5708535227591574 5.437606980953871 0.049614577703333905 -1.0275028118604883 0.8630506827892684
Ni 9.24595736655877 1.5876493979833917 12.942825150642905 -1.273326242221349 -0.5348429364932208 0.5529990385769573
Ni 5.752715380602305 7.282288181434357 8.33925074162157 0.06935473644473862 0.45945742047336996 0.8099656300388308
Ni 3.3667189636320276 7.843324605263827 13.499285505591999 -0.22746472534801468 -0.1832288954580909 -1.8003224289766413
Ni 7.250353929992913 3.1490081774701584 6.596004807951222 -1.0669322215007044 -1.2367885523066313 1.041889933820096
Ni 6.717081585478174 5.112575425053696 5.305948159979159 2.2495003219008742 1.1714884455472405 -1.139530147473089
Ni 6.817554932584418 1.31713496564818 0.09494184545638999 -0.39041455884209536 -0.32756599894699073 0.13602678385099157
Ni 8.745888859221827 5.103252773588202 9.804679808210375 0.34266505937195824 -0.15919422310639034 0.30652357645439465
Ni 3.4708249940130957 6.924107463946491 8.000372360850877 -0.05684914777856015 -0.6123938355955065 -0.7654387512710495
Ni 5.115031193083871 3.082053747213507 8.036165411566904 -0.9976898422641141 -1.8358154796769286 -1.2328169692533928
Ni 3.349899269387623 4.517593800112791 8.569242221344147 -0.2950394870741951 0.3897542995502772 1.3788556288144318
P 5.863697561467863 1.6628700361001028 4.946887999525016 0.8332045459621134 0.06461233666374679 0.42098806075357814
Ni 8.233736119766588 9.043889359396655 11.561271219391116 -0.6336869406463279 1.317332215488654 -0.9478202111271807
P 1.914665029110964 2.4532010575545313 7.093993789454312 1.249368445854171 -0.27678259774653624 -0.02267198767621902
Ni 5.33529041776762 5.9296048151682506 12.288641908781365 0.6185500850048895 0.6914285183321704 -0.019253448912973294
P 8.591119871025795 7.43057950226023 6.873753098868905 -0.6278212258941703 -0.633900856429347 -0.07722745432459603
P 9.10817487949221 0.43159150090158366 2.9988782740888635 -0.3204908372677642 -0.08138415680544693 -0.020879157441854364
P 1.5708111696406464 6.716831375150572 13.329174917494251 -0.03162919686950682 -0.3522336768969998 0.8889038964069464
Ni 4.61815981771074 1.61812872270507 12.308118466022945 -1.845405180247893 -1.5826446078120615 -0.41925462300223926
