# total energy = -340892.33595758735 ev
CRYSTAL
PRIMVEC
9.05828699879152 0.00000000000000 0.00000000000000

0.00000000000000 9.05828699879152 0.00000000000000

0.00000000000000 0.00000000000000 13.25771864841520

PRIMCOORD
 96 1
Ni 5.988542350338577 2.3168562271306503 11.484194309007597 0.9521291229151795 -0.9165584248994214 0.1696285310658369
Ni 4.591845050941946 0.4547631551244463 6.001835386766779 -0.0036440245104904984 -0.9897088809411665 -0.10528153224833481
Ni 2.7005380969700887 1.4838833134487255 4.619930270325689 -0.5046617849241501 -0.10344345059833153 2.266075452650736
Ni 3.390725229924411 4.370415220967559 4.9104739256108365 0.0004879953800120628 -0.12366029186583864 0.14347706948144967
Ni 4.881429433615342 4.615641171348685 2.3713680935165313 -0.1544633932896243 0.20853086455798922 0.14619138308881918
Ni 7.094676972046993 5.960660942416254 2.5691068792154006 0.1375596755557502 0.2299314417209524 -0.5112350672662938
Ni 4.997511383753275 4.509314996497412 11.45708194966637 -0.7332557387806017 1.0586059610231962 0.2581492989160651
Ni 5.793553660625808 7.814122372574122 12.547794837460636 -0.955733038216354 1.0680984738946635 -0.40738306837563387
Ni 2.024047094223224 6.375503320135091 0.5575529746628937 -0.3319882963844024 0.9416223098465848 -1.155819628661732
Ni 2.7321968106440706 1.5170275862192832 0.38389473958803355 0.2705888102309985 -0.6817316027593807 0.3367818611183038
Ni 0.5437662615836948 4.347977843636958e-05 4.5928314984152205 -0.10958015962368871 -0.02033331224071337 0.4996941565062297
Ni 8.829338965914655 2.374910789630378 1.3985569657535026 -0.2822945287037009 0.42330668158442586 0.7133176050957779
Ni 7.122331922789959 0.5090983849104295 5.095882570808126 -0.3978247352632374 0.7621765355800099 -1.212894519297853
Ni 0.9380309283288025 7.502444827482746 2.541531641399568 0.4219643086239185 -1.1024790082570626 0.47541265825104584
Ni 7.496140259609472 3.7726588503392207 3.812469116641304 1.4109543091211894 -0.20791688512307419 -0.6709753926841412
Ni 7.836260826427973 4.032658867101536 12.890215303392678 -0.42626730687464653 -0.6400959294964654 -1.2547340810414584
Ni 7.720785781530715 8.964624484861984 7.3102397494186215 -0.09894864805177152 0.0665828301265563 0.09205603469699629
Ni 6.905875092474233 0.9301773933487333 0.29662448346521786 0.43637225651913236 -0.8385650389430784 -0.32213017264340005
Ni 2.037697932994809 6.459455525665982 9.233418286813055 -0.6816233593162906 0.390333826202831 -0.1062562374567783
Ni 0.21259075334975938 4.897987982569859 1.3399308253330802 0.20757389996135864 -0.19178321278600519 0.8157076747289307
Ni 6.252636712903651 2.2807317778797667 6.856149625031222 0.7981933199942511 -1.7475775331744419 1.1735779810864175
Ni 3.4342865329453485 4.256751833505151 0.224487907724411 0.24098075755657852 0.2035213271585398 0.3900990844842056
Ni 5.941683830786214 5.458224927722481 4.72742405839372 -0.5632392282477268 1.0511207083897447 0.02188960098423972
Ni 5.240617694935625 2.9239064003997637 9.115000204412885 0.6110000405717735 -0.1765093173460702 0.2566179498732032
P 0.3646821124914627 5.7361512948026245 12.438458593781363 0.7539032398276242 -0.2612251096279114 1.0942553347956896
P 3.9021832986437306 6.248868465439165 12.631424567968123 0.8231893278179564 -0.5963702064737407 0.038357773842592
P 2.550505686503091 8.64554631914925 1.456956648994569 -0.44313837159837227 -1.1993774586480248 -0.446938719181069
P 6.377740717067129 7.5876651932180295 5.8513473444549176 0.5002320312875708 -0.0516226092722982 0.6473315280129561
P 4.644645806880612 0.8912294759856377 12.548284890796763 0.3243870869983768 0.29355210389539116 -0.4109440462540148
P 3.9757547070729378 6.11485110669623 7.975048279196865 0.18114553056650093 -0.4211212438973328 2.437506841253266
P 4.684511328734458 0.8962812827427136 3.832064003456628 0.6786758466521925 -0.0326057018501632 -1.1358879227348113
P 0.06856126979313286 5.480399614725029 3.5009528090616295 0.7078966911905228 0.7456847085725739 0.48127194524530015
Ni 1.5673282548978582 1.1140425064115311 2.633023059345581 -0.7813639071417382 0.12578967950401562 -0.8786490514481576
Ni 1.781565804855895 6.369506734025743 4.948788668700453 0.48522244525261604 0.4069608932365507 -1.7940167984735875
Ni 5.706077781384136 5.426149532838484 9.253848347705844 0.41315005276639816 0.5151110052819322 0.08345698017407563
Ni 8.509871293853429 2.627292786879155 10.304482843897668 1.0814509839421698 -0.930351622028772 1.046557000278462
Ni 2.2001492551776947 5.345675709582505 7.099774070239939 -0.34640884268510663 -1.4311577806522577 -0.7136811590827837
Ni 0.17136558259105905 0.09975438750635833 9.195633453523133 1.1241148413592834 0.2676518390898616 0.5710777504555391
Ni 1.4852148816633395 1.0401540579312256 11.34069292359323 -0.2352266286816207 0.38152651232384616 -0.03935896141359673
Ni 4.3420990152608745 7.024819461359226 1.5316639666354261 -0.11069010485841581 -0.0504877243369066 0.29178781290611683
Ni 5.665415130258957 7.655910328788782 7.948055489246336 -0.2912177993352597 0.8662887301105919 1.1111603380811443
Ni 5.297304456072043 2.7730587440870837 4.622051721181896 0.3017791197908738 0.5935995857071389 0.8042405546295955
Ni 0.4353920080023262 7.26573366704541 6.739879262520065 -0.18509834456666185 0.5536497847870787 0.9209922923010592
Ni 5.140233756470658 4.5235274490738 6.911010235473311 -0.5312423636261561 0.3325554817417821 0.24601883420111825
Ni 8.066531544684421 7.1146776701277235 8.965969640507359 0.07905396601037352 -0.09581704440132531 0.8180170395883977
Ni 4.55413540143557 0.16648497746157656 10.439949528588484 0.557911131166594 0.0013894241483588974 -0.08254192455897398
Ni 8.019283518783567 7.216529051114918 4.419619836898051 0.9424018683250867 -0.34491863129282535 0.6513704739690201
Ni 7.144479434930984 5.917751836071862 7.208023319458303 0.5357924448906837 -0.309793248344602 -1.5163906217798337
Ni 2.469968455236891 5.18433855672205 2.4803863913159883 -0.6682076001310169 -0.19090183862231638 0.927322605394461
Ni 2.557806665965532 5.096110839644917 11.127150144261458 -1.4757533078744454 0.5167732234757035 2.718319128984486
Ni 1.1039334579250752 3.397908451653586 3.63041384935592 -0.6680682463396752 0.09378381602138042 0.7612226563071729
Ni 3.6490494635594914 2.748085046347694 2.9080408104140756 -0.2958002764996196 -0.5478108095077985 -1.3419860094815919
Ni 1.3457897254773812 3.1804914428973894 8.312735790080364 -1.1202245051659416 1.1391138858712768 -0.027367850489991578
Ni 3.8094807877025207 2.6333074895628523 7.003548791416667 -1.4286434988708363 -0.3214395743342786 -0.13714187129204122
Ni 4.103539964239993 6.954735493492103 6.084431566707686 0.19959602396220463 0.09577410697853182 -2.3517736634505044
Ni 0.6224891179288943 7.441600312533351 11.123544040137391 0.9222415913271278 0.6327500306543554 -0.022759919404334996
P 0.28013024834963757 5.310420855900348 8.239235036291117 0.0416133046654122 1.4048643941733676 -1.447355730568359
P 8.507688246644436 1.8432799153740174 8.081375359876855 -0.4641491695220845 -0.4733249224840817 0.5515425086360889
P 1.7372345474251467 3.1159511467809033 10.524282182180693 0.23648364101717334 0.20252296780101248 -0.97058912939258
P 4.030548286189937 6.10281264304166 3.6638896554370546 -0.10207305261336615 1.1976136818793826 1.1334021801984804
P 6.892043087959162 4.099409385288538 10.692456530200266 0.8462071288693684 0.9056556619439887 -0.8371136512085324
P 6.540445671290895 7.867874248666084 10.35681075724584 -1.127035614550504 0.6835876821315131 -0.7579640401605591
P 2.1892793105686024 8.40056494252183 5.878206977583985 0.47072733696023444 0.26046714841596436 0.07198626053031473
P 6.712326670422168 4.0381572474163026 1.615081733223036 1.7047591524573351 -1.0059158297183322 -0.8388871981691874
Ni 5.318337798890636 2.6855285151223676 0.5252574634005628 -1.008688764477779 1.1230817721090787 0.07554363886426989
Ni 1.4339902676929916 1.1383005994641557 7.173420662452693 0.5575195521551303 -1.071830173022954 -1.0554293630674274
Ni 6.748958383754809 1.1199394513619638 9.565139103934879 -0.01891560595758033 -1.3451944891165608 -1.626158471934296
Ni 3.0653243797640553 1.6768248302601156 9.233934609181988 -0.4672054398499051 -0.999599400582001 -0.03959833111791245
Ni 6.494157823830509 1.9310184849437415 2.5285782907403993 -0.12360629869945164 -0.39767458283861834 0.6026912635957621
Ni 4.134021100581323 6.859324554685794 10.537354196401843 0.5568942598663054 0.15141560760223602 -0.27323164717048426
Ni 8.330019002008822 7.1092336395360025 0.6321832968627698 -0.46948600835396564 -0.9842522287019695 -0.6045275454735524
Ni 7.590808418867493 3.916386692932945 8.4907075815076 0.08173202706316891 -0.46134023931837964 -0.4518253578494089
Ni 2.9388888073859625 8.273214483139139 12.467929731102764 0.5003248481116932 0.46214653726975896 -0.4248408588407651
Ni 9.197060133753077 5.030990813149279 10.37558405741446 -0.2190433340535389 -1.0113028050618582 0.1250808263624491
Ni 8.73562192680993 2.4131548780800345 5.986483401663871 -0.0629989694300399 0.22132133145443816 -0.9777455379317032
Ni 3.5472705488696894 2.6399200392000504 11.652143105676531 -0.0573548837703851 -0.41293176610800497 -0.6907731441363587
Ni 1.2333310902091459 3.1839607668851246 12.714311518927321 -0.2568483207164544 1.4268157016334784 -0.5970173531394363
Ni 3.093767401491181 8.261810099586766 7.946796387329116 0.29265530311273474 0.9866914342710813 0.2516685762877278
Ni 5.787258151039708 7.864912188760107 3.7787279027459637 -1.6692529891309253 0.45378248157577983 -1.0600838311203034
Ni 3.089609647678203 8.279591517309807 3.6767895622018956 0.7407970414629693 -0.5786429643973067 0.07846852582054874
Ni 3.38312532698522 4.222140118212366 9.290916670480286 0.32836046982382805 0.24963071992209265 -1.7592068898832542
Ni 7.529809913036135 6.371427090906682 11.522866854440595 -1.103459627002777 -1.1352469467167028 0.05904255588545316
Ni 0.4643767153024711 8.994263200496109 0.194175255524522 1.3562749153004383 0.5980812756275765 0.2386127715450342
Ni 4.742629299244406 0.39203179895665663 1.3821967932881012 0.007105757806845827 -0.43544974470486303 1.3556239119800009
Ni 6.007899910029935 5.62064001675667 0.21351379281281482 -0.3427563335341839 -0.18969650546030556 0.3626957527705883
Ni 8.008848371958837 9.158652996134283 11.395168556830413 -0.06657563103770471 -0.05100708717548635 0.2852225009837733
Ni -0.01968184637219663 5.051480658737418 5.841192098703872 -0.2698478182999159 -1.2575599805260278 -0.46516089861605053
Ni 8.116714455629731 8.80136697512059 2.34000105668956 0.06720812241538103 1.6558048340458191 1.3475609324662081
P 8.479997062752773 1.6641794613648715 3.513918841322842 0.2684553088277635 -0.24136745147203595 0.9977482063058751
P 1.9307648529028625 3.1846491967103674 1.5454126349084931 0.12172759361950004 0.4304638614544974 0.6406651717363742
P 4.924728046308227 0.8544002919925979 8.140252414852004 -0.1449361705254794 0.7061480839305323 0.832735833855811
P 8.702060972829358 1.800896189685731 12.592950399024241 -1.1589129228750752 -0.9046668156681581 -0.8173632080544826
P 6.481865728135061 7.933881987304797 1.442055766592938 -1.4025210907521717 -0.7197633607211217 -0.4499967892811025
P 1.8524831351430489 3.135788795692497 5.964992615342978 -0.04319221911675787 0.32737676575432006 0.03987112516332489
P 6.9963764396321 3.930200580873666 5.89178353840074 0.4680521041209165 1.3013818628069844 0.3907750275053077
P 2.378588454223121 8.555624702370533 10.086830319674943 -0.3433780262785828 -0.5125090488827109 -0.0588630928847954
