# total energy = -340893.5177034981 ev
CRYSTAL
PRIMVEC
9.03476543616870 0.00000000000000 0.00000000000000

0.00000000000000 9.03476543616870 0.00000000000000

0.00000000000000 0.00000000000000 13.22329246392253

PRIMCOORD
 96 1
Ni 6.449684006174133 1.954273931589471 11.388123732903509 -0.6477434187393941 0.3172275931354601 0.15247284522215676
Ni 4.7211527190545075 0.2830411256684278 6.081709762845107 -1.3870610474433593 0.17325507207483065 -0.8620579798586959
Ni 2.8080321431666357 1.6995838992671721 4.660853792317287 -0.45578434249715694 -0.5027882220505211 0.4667837789314542
Ni 3.4226943272383976 4.316304888321546 4.716351644802075 -0.9250132405349941 0.8433979415553474 -0.19939162126088242
Ni 5.0147825895928095 4.653997308971087 2.6955682888443673 0.1756369420434459 0.2523470904119912 -0.42523423762444185
Ni 7.211730315725628 6.156216761410284 2.522845260751967 0.5080659255096927 -0.16218390186233358 -0.1710197549864087
Ni 5.097495865432137 4.5169037811080655 11.881802279024768 0.7782659849427049 -0.2861786942494555 -2.164450286208066
Ni 5.673019446452455 7.714108437303542 12.38378467788485 -0.2742621453175277 0.8668456310553264 -0.3266637988476955
Ni 1.895421470768348 6.3995591285819335 0.6172271539254793 0.21446034266854677 0.5296706482636621 -1.1141371613212814
Ni 2.8588798019786226 1.6504709153826735 0.0917914079598472 -0.918490866035444 0.3201720204757647 1.8922784477606633
Ni 0.6224266613253191 0.0762308317743667 4.761271594135287 -0.13184102790441812 -0.3898350321895416 0.08658087051503799
Ni 8.583487757993344 2.400862377765109 1.4883736746976601 0.526717479172609 0.29670170526796646 -0.26891656473489817
Ni 7.04776739601704 0.6055009321109667 4.8919043613699404 -0.9719816388647327 0.7088174032325794 -0.04926413634245064
Ni 0.4981661140196089 7.548952928582307 2.275689319169418 1.0065246669469246 -0.7078966911905228 0.3797048857340751
Ni 7.544661415089824 4.031014106106531 3.854338368218423 0.48965142755824703 -0.5785560611104552 -0.09346937010475516
Ni 7.646934957689626 3.7753302496070265 12.614107948335093 -0.49823274146935487 0.02295275214143144 -0.10090242934403268
Ni 8.006428266880981 8.773552114501475 7.059624621927639 -0.45674490663821343 0.20830769280358966 -0.4340778040580008
Ni 6.782515723120609 0.8080170020829708 0.3989914958996417 0.9059978757747558 -0.7211615266202289 -0.1322032963398433
Ni 1.692048905050897 6.51980281925868 9.315531419111498 1.042019517419425 -0.3381792556864627 0.12810238679759228
Ni 9.08373367497289 4.846455878269761 1.1222172261363983 -0.40073728092434213 0.26547771425667827 1.829455856007488
Ni 6.263314868652161 1.9428449535515957 6.8862276003477865 1.1544610577513086 0.5932054355925138 0.7995326076309649
Ni 3.3748733147842676 4.2239334484328195 0.15004576732159672 -0.17363251001890742 -0.4033320382347118 1.8040320166177444
Ni 5.818099706794118 5.5824368900827 4.742453985078144 0.6090141204899964 1.0333114481224654 0.309359503241293
Ni 5.122847416716152 2.875404387615993 9.15449847377262 0.7307180599604125 0.5453312376190543 0.4415926243778073
P 0.18922412334012872 5.573880967393476 12.316518140188887 0.04585485355058555 0.4148217840418662 0.2561870329833717
P 3.9437382738173015 6.2452995467489805 12.605658635875788 0.4649161295950961 0.04676142452525495 0.48782620142405025
P 2.447843157051237 8.480301704103562 1.3824690599449552 -0.7223720019885624 -0.30015341126199274 0.5629967732196175
P 6.2658174986256725 7.840911367549852 5.844364672844638 0.6503602875369509 -1.2380609912611515 0.38071481505582816
P 4.827166654466706 0.9331195895097323 12.679894591483544 0.06846487764061757 0.23592776851370334 -1.0951853028091267
P 4.084807098389149 5.990943800740833 8.133355876887704 0.5075108243371712 0.8547305929593473 1.0394314449772741
P 4.789807900168986 1.216205889004397 3.9430398864636826 1.0131203178865713 -0.9933379930533216 -1.2306670127899255
P 0.1878427077338116 5.704370081860699 3.418195014145226 0.7841301570329656 -0.8820120543831197 0.46513055959874733
Ni 1.5534556061568188 1.1177359825737216 2.396775049967216 -0.08029349484442946 0.39129387612325517 0.4606077320277293
Ni 1.8421524948700765 6.50723546079964 4.867030749167511 -0.3398376172254921 -0.23272674507790242 -1.9677999751377464
Ni 6.252337628876652 5.665412174114201 8.840802389619993 -1.8129339470930648 -0.2942897533923641 1.9793298301542168
Ni 8.560114820298496 2.1694007268937017 10.12207304402958 0.41086948426233755 0.6627357783831682 0.7192051742248065
Ni 2.361552114173966 4.99320757018218 7.109807322017422 -0.3663873426895625 0.36794954497035987 0.03999016723969241
Ni 0.7720008139010051 8.80614954751385 8.587748553283987 0.11186432767217509 1.2931013679657473 0.9889612041418644
Ni 1.3633189715267093 0.8620891686117301 11.422914806917936 0.3258834690382452 1.8488234619008224 0.11633084808396094
Ni 4.088330656835608 6.80578024363249 1.687913692997193 0.5278978726339554 0.994600661815829 -0.03975362574885411
Ni 5.51846171736634 7.887169365616193 7.986233759600143 0.23264369844579288 0.1323760744722817 0.5896040913945007
Ni 5.218914075591037 3.046586084757199 4.885662242060559 1.6472988534573374 -0.8105538984421331 -0.38982269089436733
Ni 0.8355838778056311 7.183370187614251 6.810974330173182 -0.5083379482241568 0.09752605667263203 0.7440967952601636
Ni 4.806350555336852 4.661830450440524 6.617292453660019 0.9180563496011868 0.6037559574148506 1.745296707560065
Ni 8.43729622152626 7.018386339432714 9.324390909913033 -1.1606795278571946 -0.004482461251385828 -0.4545245019481269
Ni 4.523959932766232 0.10744684918042469 10.549569224284555 0.67678325761517 0.6815570248547295 -0.3767458031057512
Ni 8.075462908135847 7.003849402149757 4.745019858408386 0.1649691779169546 1.0689137707071075 -0.0007793013681857547
Ni 7.327122337464556 6.314008936454942 7.014731776890169 0.41382933822160983 -0.22249426871661682 -0.8371303633790809
Ni 2.4993413189610316 5.0607966489974725 2.676672077329572 -1.484543909582882 0.4859657511765437 -1.011707753809761
Ni 2.315113420802678 5.337630890940983 11.531556955540584 -0.7719485273651092 0.3299275572006318 -0.593661549293326
Ni 1.0117943252835024 3.3081786777284603 3.6519560127720796 -0.26343780100851405 0.44001653813993896 0.37117885054093497
Ni 3.7765860819764057 2.706833737631266 2.593933504147552 -0.8183674809492809 -0.4045893076805806 -0.58893071947656
Ni 1.0109089182892639 3.139508645326013 8.387811908790097 0.6902373262375467 0.9294831033808896 -0.03301553569407217
Ni 3.7131891342358747 2.745132107514708 7.059757432976775 0.7851902228663639 -0.18805331342992776 0.6127100812843447
Ni 3.820585388730914 6.8651838251337 6.137948466080178 1.1014670220527807 0.4826336014795172 -0.8790768830141958
Ni 0.7170278812770866 7.563580213517739 11.5265056182908 0.7558050848360274 -1.2028060247135992 0.19667190833687417
P 0.4165668247352773 5.318621744860596 8.028284267490802 -1.4072051264914023 0.3635354750630643 0.3074514875853028
P 8.459774717461624 1.6412102810041578 8.037698492878523 -0.13197678215133402 -0.9663049001949292 -0.8593351816108943
P 1.9159303878797924 3.099782782533492 10.485224529669578 -0.42965062152458267 0.04356734306798949 0.019619831113456533
P 3.858115803568333 6.281348260085837 3.880017881480916 0.46137572054200543 0.6667528699623614 -0.3333926329310968
P 6.833932572143177 3.9165978390143152 10.355913548590609 -0.504051662143977 0.0794260046378116 0.04173671761715393
P 6.484684686742299 7.814511783497147 10.207852719193852 -1.6221704338208256 -1.4463815395805477 -0.8858885066193904
P 2.4058857072426254 8.557955511404383 5.871207863870987 -0.14094556130884758 0.4595026718890086 -0.008147311697482744
P 6.789364075178088 4.025168612991508 1.6839862805441774 1.5454281466627642 0.09240596183724731 -0.5394966332151483
Ni 5.382931203891109 2.821250004723483 0.6007061821942073 -0.9239847992704796 0.32158072789783326 -1.0790408318387803
Ni 1.906597475379298 1.394976788953362 7.023961693066844 -1.4994758483023658 -1.8459589958688338 -0.6904795241553399
Ni 6.731659029543375 0.6853763881861071 9.294665628772785 -0.47217306826782557 0.8861993529915898 -1.5104182062464826
Ni 2.770718562695153 1.4066587404181627 9.339056140862501 -0.06961107542991883 0.23943295345348442 -0.3357161388579508
Ni 6.444760059114337 1.9311991411477842 2.53121597075362 -0.42435697722581106 0.18254318224497593 1.9121471616601329
Ni 4.0203350135841855 6.8006394622067585 10.314128662798222 0.5593483778337528 -0.16698929367077694 0.042778271507790844
Ni 8.029692787392861 7.1567356996651155 0.06471331303706741 -0.1378718074795303 0.29113038182777606 0.5093555908553937
Ni 7.593937024748775 3.7886023197553578 8.2290394617161 0.5292171056660112 -0.3338945122681798 -0.6767459766193313
Ni 3.147215300081987 8.402440097202051 12.531344077810381 0.07672480365656463 -0.8783567170187195 -0.26751557062231346
Ni 0.05005169599369648 4.709046133623082 10.323212215777891 0.24952993267817025 -0.6439433282670136 -0.6205702007587119
Ni 8.740394526043765 2.4884182877770065 5.891347259083815 0.0741218188160788 -0.26442150507802203 0.03011713110035458
Ni 3.882834921285034 2.521458424286501 11.389498824174154 -0.12372405522423853 0.23856109237149237 -0.7279039875503851
Ni 1.0854095925187663 3.4789899494945256 12.521783489225653 -0.052373114285077536 -1.0221037523321042 -0.14664878234121193
Ni 3.0819571907005052 8.102088361319735 8.07043957865833 0.05824988478082871 0.9625217790034133 0.11567958765320722
Ni 5.706050548196702 7.730434258105472 3.652842323242843 -0.5432247327990128 0.6095100862898083 0.0822912420007486
Ni 3.3765628158855185 8.574236158380076 3.642699895776188 -1.0402469989000342 -0.7677733129414971 0.43778970569194925
Ni 3.3279286745591286 4.541659037885756 9.543990817491219 0.3025082846474145 -0.8905031225732664 -0.4346722431088901
Ni 7.150709511245145 5.96941395515644 11.216816452525366 -0.0887339123022988 -0.12266553205273713 0.600468030692198
Ni 0.34112924534962646 0.09945379236610975 0.40954229475547643 0.6980262261543462 -0.15141817870539728 0.03646569902620172
Ni 4.553151259280363 0.3732080828368046 1.6321249210714404 0.046741112810280795 -0.05262508239488356 0.023578558650888426
Ni 6.015211180195167 5.733471060722356 0.4250287858659288 -0.03989169398861517 -0.3627461463925495 0.5757856974541697
Ni 7.910470025189063 8.923547287137687 11.236954944261667 0.7316421144365787 0.13341454303912506 0.9574852450207705
Ni -0.07352491958279064 4.9919878768737895 5.821779566679356 0.5681896302744666 -0.8648967348590718 -0.049554413889359814
Ni 7.776123065961232 8.879060103059823 2.7214989685807365 0.5797487958669757 0.21244459779009867 -0.12173170738455812
P 8.556121454059175 1.6512388704286969 3.680769686098872 0.15369951854040625 0.9978173689809137 -0.2744596060403144
P 1.7888112408498265 3.3542469457246074 1.4975511892359001 0.19140526062129617 -1.3864195572046187 -0.26772614397122274
P 4.613530595428285 1.028065937493948 8.189291012010463 0.5054413434026521 -0.7290381011548284 0.2264437402826681
P 8.610799853336031 1.6535788746277558 12.367837413746782 -1.4155974643201554 0.932295118908388 0.9440892833298385
P 6.338276315909278 7.937646599053039 1.4903712612938453 -0.6126848844733642 -1.0838063715482238 -1.063198208379569
P 1.9881000926754833 3.3148011606547545 5.845091971447047 -2.4631345691236994 -0.7671022550164014 0.379058767509644
P 6.79352006719186 4.10173824846265 6.110734849678687 1.435788851666366 -0.4433198914815591 -0.21829540014392085
P 2.3317735279187586 8.450324353012913 10.243092821041072 0.5078759209860737 -0.9982243746113453 -0.3369829213855164
