# total energy = -340875.27064554865 ev
CRYSTAL
PRIMVEC
9.23960081706221 0.00000000000000 0.00000000000000
0.00000000000000 9.23960081706221 0.00000000000000
0.00000000000000 0.00000000000000 13.52308974893259
PRIMCOORD
 96 1
Ni 8.534646930351926 6.067608853250869 5.823339680338039 0.6284318628949758 0.058036740328758114 1.6295875522205034
Ni 6.3206353197532925 7.568849943294585 2.8289088883430016 0.3418849866728241 -0.5366198258879855 -0.2519552542902112
Ni 3.898261472671324 4.005801185785135 3.5937879852402124 0.3608147336977915 -1.1650804851383676 0.3961144374403501
Ni 5.647936947645372 0.9486205692655558 8.693223426121182 -1.3092183281322678 1.0807477872275582 1.1256973553550549
Ni 4.999492527502719 4.129168334981422 10.234923803883264 -0.19534136245090872 -0.07789542692589811 -0.21361264995627083
Ni 5.027830382998901 3.2166930838446772 7.868531773777434 -0.3945841168387527 -0.10211341893299831 -0.932976975466761
Ni 1.7455823318423855 0.925586244599113 9.408067313084102 -0.8959134949555603 1.6380837626169724 2.1922125439229987
Ni 1.9107863932286668 5.2092129852961095 4.098685968151473 -0.5608331899093955 -0.3716470484266051 -0.2028908926633925
Ni 0.4266071499274517 8.461164385597725 9.275379254652552 -0.1752780160421304 -2.5190781743688553 -0.736595344676796
Ni 6.928397777799535 5.588489356428406 10.7142354844013 0.5179903837122563 -0.08427536231031292 0.7619626197969909
Ni 0.9046058831791001 5.880959678526917 7.8001855230794215 0.1941483705840721 -0.5827379604022868 0.6553579978618584
Ni 6.819980302614601 2.26202057608874 10.370817079814529 -0.3331118684658844 0.4857171255008474 0.18053797888948908
Ni 6.2481783706821945 4.668797977106947 3.4877672624894838 -0.12401793231557352 0.5205488884680519 0.3946972453778493
Ni 1.7464231355105146 7.238931519361702 12.150062973024632 -0.6430781520532409 -0.11831933926889947 0.30187810726258335
Ni 7.648347468136172 3.3456963894976557 1.6190515433497517 -0.30852929403051377 -1.2643816314335514 0.6790183175932758
Ni 8.619216996004534 4.240671836816414 4.210508236212294 0.5017726363018133 0.5652709139657749 -0.008723495915926912
Ni 3.236170162222881 -0.15804706664635906 12.67749079840146 0.3107314438881552 0.5021382471713481 -0.6377595680538048
Ni 5.250329208627707 8.786823353585469 0.9858912707655549 -0.7026138455250287 -2.128133968275535 -1.9503573541812669
Ni 0.1622594006276793 5.282279748016619 12.136066825810541 -0.21700162103316176 -0.8259188109339776 -0.8225231549888673
Ni 7.207147292786265 5.103280962712568 0.009124105739315047 0.5227230133012352 1.039406762386926 -0.4507472942938818
Ni 8.260258506918568 4.325389736081001 8.562441497324084 0.2751100951401198 -0.9497868479352481 -0.1396515250877724
Ni 2.6721294949193606 4.9087319293485 11.72028571608031 -1.7656287342491979 -0.8537805703412521 -0.2656468928446909
Ni 6.780453290611776 1.6317689298202258 6.814081741496647 0.20605129266924513 -1.078976554259748 -0.4275119779150251
Ni 6.855044587455817 8.135875001639926 6.591816677766783 -0.06021780714047695 0.03823076134642448 -0.452031303212628
P 5.205905208228084 0.6317503095099491 12.1187712171691 1.1372423798801767 -0.5237036320469497 -0.0675657628651159
P 4.444238720511188 7.349973041159259 6.713200084682331 -0.8842196035573997 1.1634894865021639 0.3680184505350823
P 3.1709847789409893 9.159382534973481 1.3029564860969587 -0.7254439560456667 0.07116659284249678 0.6795410228659652
P 6.103227514137005 4.990446958369768 8.527092632779809 0.7790704831218712 -0.28594523808241074 1.5099757193924255
P 8.65698848386511 1.2266401557931403 1.3828845763334334 0.36038381680796 -0.0053828615784681485 -1.0513294819664412
P 2.886340398676606 7.504570040886064 3.8336203018735295 -0.3494550857105982 -0.8657778519124444 0.4043897900752648
P 3.587228792668729 1.2599673956936055 8.774388698897905 1.149171784327911 0.6776044679648846 -2.5455119430803514
P 5.495141670064559 6.339548782485826 0.718057420103308 0.8161452764869815 1.615421545132766 0.2382826418991251
Ni 8.432891207306783 8.337473850375233 1.9612540164779966 1.1043939658915882 -0.7395752532407263 -0.7399215808365515
Ni 2.922051455570229 3.4758176868412245 9.259380885956224 -0.053007919655599034 0.19351150833102157 0.32854301814827935
Ni 0.56104703666095 7.300319426735888 3.9253602977071083 -0.929913763160405 -0.15706586390947788 0.6654107541121702
Ni 2.1699387150274605 6.774521466931127 5.934350711453127 0.6743499655833289 0.9981099605206682 -0.2906858380911897
Ni 4.87808417366515 5.300712751510223 12.309419291097077 0.9400305398794327 -0.8655276835748513 1.4009524607134713
Ni 2.195024231060109 2.0119969798296364 0.8977131410205897 -1.0451547206142968 -0.316191695671778 0.534113514526364
Ni 3.6501135153642004 1.6971853031208337 10.826599193065991 2.314158424200892 1.1186263074408862 1.2479581957702055
Ni 6.626807969762084 0.8124611928327293 2.1581092541889335 0.5907634018099245 1.0619748774954292 0.35646082760447
Ni 4.655243482808643 1.9092341403028898 4.976442495515004 0.21037383130399898 2.153597402653962 -2.2625918649775096
Ni 8.521360384475333 0.6559460519905004 10.806057712681541 0.9590890991727806 -0.43644219052511934 0.5724075250105561
Ni 9.13041638662639 3.1264776221346295 10.34060635724659 0.18518190541940366 -0.7152983829712326 0.7524089146702848
Ni 1.9926584954626625 6.7297278825015585 9.862510608187083 0.39971423897646646 -0.20864862108277615 0.006147764768950703
Ni 8.205828018908134 0.04065147141393864 4.048813375190359 -1.2160240660657704 -0.7881752736366168 0.35170145854261364
Ni 1.760790714674702 6.676165916961498 1.9608613334461777 -1.2031623796117537 1.3413054384747998 0.404817878751619
Ni 0.9192709774873946 0.7231253411139554 7.199814745632118 -0.8504854445297483 -1.842526573148517 -0.8553934233543268
Ni 7.520231164155065 9.197357294050528 8.783422256549883 1.1671152561802094 -1.1964240324466555 -0.5312829870561044
Ni 1.2062668361423154 2.905022871390424 7.833655052831417 -1.2379908001448485 1.3180374690857946 1.1228768551871242
Ni 5.134131989612389 4.2487195290685085 1.030106456188257 -0.7736038035803451 -0.4872235348430448 0.4343423705732971
Ni 4.036116315841531 6.060106297442946 2.5784473350084105 0.6530175226541398 0.5892855317128174 -0.46158475122901793
Ni 7.274494742643346 7.859352230433627 13.445236943410983 0.11284134687346373 -1.0314054893490043 -0.27202914222195085
Ni 5.533661565585778 2.817385258289256 12.49035839255835 0.027652471609945925 0.32942413520165204 -0.5227646651724481
Ni 5.457305504998741 7.494036896032576 11.745615157572724 0.3490449947563731 1.5098862450024126 0.32990595993407695
Ni 4.3963129114278185 0.6855663640705978 6.68162374912374 -0.20076998966564777 -2.153396342386749 2.798747349634567
Ni 5.442540623002361 7.846592341799709 8.719620965460143 1.3024401288681697 0.10022288677850483 -0.8389131663111166
P 1.633293463943757 3.5650537508719125 2.543977156495335 0.396736130184749 0.6633577282378833 0.6506531361870214
P 6.106479853600539 0.3569571915638014 5.0748507112089 0.8312795610252587 -1.273526274047297 -0.8705703882050814
P -0.023184006198571458 7.722837129371976 7.173200999635639 -0.252008733235966 1.1654530379864378 -0.02676852634309583
P 4.964751628687707 3.9640936280056223 5.601236309621276 -0.2699851152087286 0.3746485542570902 0.0982999587241791
P 1.2697890912894454 9.51956065135827 11.636524115493211 0.18946433484484143 -0.09499737671350736 -0.6385905485955324
P 8.183625258309071 7.5127470875486395 10.505831669714595 -1.4072650331950602 0.14510200667938233 0.7654487785733786
P 0.6813697374105503 0.7420304882058162 4.9555499103021035 1.1057882751359538 0.49130978909727646 0.5168866091251163
P 7.72818685820546 6.275887933327466 3.9356116347377617 -0.15857330169293982 0.7596817941826143 -1.4713770331836207
Ni 0.10805251095536182 2.1874754772484426 3.27229053342967 0.4071678670410342 -0.6484934095315412 -0.6255928507842838
Ni 2.639994163515474 1.8795011050936585 3.6484078850659953 0.4390675439631084 1.8909101066582272 -1.149911233597097
Ni 4.964502159467493 6.811239640306356 4.626668169573221 -0.5152051076576353 0.27003062373468334 0.5200842901268075
Ni 5.98750151475987 5.7121336936471545 6.517588497232165 -0.5137539770334055 0.7285045972488615 -0.0015331488150747792
Ni 4.361692127422539 -0.11347061283438395 3.294792657092989 0.21622951875382757 0.28581976824814004 0.513391194377348
Ni 7.2792161786259175 3.7986955350036187 6.467295502436985 -1.1779110612441326 1.1184555861909768 -0.3323803896164985
Ni 7.694665586689271 6.5276023765235776 8.613829384807982 0.1667041583301903 2.0123530791577733 -1.2002683458934102
Ni 3.0002184779040064 4.663799353101916 6.879803945582037 1.0025978210886926 -0.9748813290100308 -0.40765791930357537
Ni 3.433278564994332 6.8409357171125915 0.42475091413704325 0.2885055426104193 0.721597585716383 -1.4199243738302838
Ni 1.7912721575445758 2.4382751999704353 11.748806515671314 -0.12227832391664747 0.22193376822745647 0.2179750406900246
Ni 2.7092726899290276 9.27960821991522 5.247174808932109 -0.2418112238776739 -1.1131107769392956 0.14647626131908967
Ni 8.846132350791205 5.401341243264026 2.0559155740683055 0.22411432081854304 0.7747314894268852 -0.3512738840868918
Ni 4.121647299972002 6.030465658241202 8.474865789547932 -0.7443978714403503 -1.210865404682966 0.36401241469948276
Ni 0.1597074229008957 2.756329976542022 13.250639864123022 -1.4026969542084036 -0.024519068187286806 0.9369624424770703
Ni 4.00785237715134 8.76774357803946 10.161641758465311 -0.9360466155310203 -1.1319394796100248 0.8268264103499116
Ni 2.5909041647377724 8.217414478246969 8.079288914774827 0.8472224575077604 0.3077728754804635 -1.2848704954155226
Ni 1.8853959703713123 4.746429102597301 0.7091402814207632 0.15355527965305815 -1.0674466992432778 -0.7061128598172226
Ni 0.9843870637636708 8.919799687560378 0.19650136100226315 -0.5664394803525793 0.23079893192757023 1.2009867121166735
Ni 9.015244763294175 2.56382289494341 5.812967304537579 1.1108487203779966 -1.2371626478165985 0.39164817413888037
Ni 4.565342167524051 1.807450698455503 1.0234788905712335 -0.160773137557736 -0.2689250493753304 -0.25810661860358775
Ni 7.176712047920135 2.158343016087875 4.161216814138271 -1.4616186682452763 1.1661197250361595 0.5602608623456932
Ni 1.6940623180677823 9.264824858717342 3.0012061912240395 -1.006651422332776 -1.6241033891774803 -1.5825114246683067
Ni 2.382458771847699 2.3707706769006265 5.890049597743461 0.28045284750927185 0.4124201165789091 0.14172254868418815
Ni 7.394840542394817 1.005628905884871 12.853642862714842 -0.7769799191414296 0.5562905648440355 0.7866570372198775
P 1.1404439204087657 4.767726382322993 9.775638957987981 0.11270045042022528 -0.41327655104193334 0.14587359473808426
P 8.393179403288984 1.955524540053744 8.337417488810667 0.1643469709519234 0.4552634369966804 0.24970913856851185
P 3.911668133357649 6.31835313836837 10.707149634587141 1.0863075407035228 1.1145403102969709 -0.6392379523715442
P 0.01036221223963729 6.778771683275517 0.15131232166065098 0.19915816509383766 0.15366712264057406 1.0946685110737082
P 3.364166351394254 3.318652078106289 13.164863106612636 0.8478968578669654 0.75842555317801 -0.46260727895626136
P 7.746444309284838 3.560674180117042 12.113875152732376 -0.5002646842977191 -0.4569950749758065 -0.991981736135743
P 0.9983758192971625 4.397384705114664 6.164919404375823 -0.5227988608444932 0.2378974906455645 -1.474016784799313
P 5.55287993514302 2.782699797078736 2.608617403333054 0.730075284170091 -0.3692320112272093 0.87524259686977
