# total energy = -340867.17561695044 ev
CRYSTAL
PRIMVEC
9.28523641866874 0.00000000000000 0.00000000000000
0.00000000000000 9.28523641866874 0.00000000000000
0.00000000000000 0.00000000000000 13.58988206480359
PRIMCOORD
 96 1
Ni 7.995656395927479 6.053621334202367 11.6596701293242 0.30339634367932267 -0.4043684499190262 0.5011368024900273
Ni 0.2715281698566478 3.6695997316522266 5.23089552930259 0.644667865137864 1.6013061887773068 2.408987393657335
Ni 1.2454566223500236 7.805959015009949 7.697771153849955 3.2193443455973134 1.04932787815538 1.3999152776982084
Ni 5.200744509463363 0.8796322336040967 9.349580365055001 -0.48291693704789085 -1.2631636998660503 -1.3977437239681865
Ni 5.802427832197378 5.608292108251039 6.435380117240637 0.6561254721555023 -0.9131308872751113 0.13843205085837448
Ni 0.8090867210608259 6.188888658979976 5.6992837114835115 0.20281478800981842 0.213840963916993 -0.5957711394371611
Ni 7.511282750653674 5.66239718111479 4.17728489158739 0.5238928652396203 -0.5054184605845167 -0.04860593393316145
Ni 1.265522018344286 4.185775311808192 2.027678368755505 2.781836175701525 0.34570410330859813 -0.6277883157737059
Ni 1.5919352209274886 8.40637954558514 1.6810001375941082 -1.249954657374944 2.6965395712155495 0.2846450312137485
Ni 5.509497192295948 3.3673281438700795 7.670360207290648 0.9205616325215437 -0.42721835793400614 0.18661992341751088
Ni 6.169993202779919 4.008854416262299 2.1057384231674274 0.4413686812924592 0.28532457377927634 -0.537886608415551
Ni 3.6227742841746395 4.32103335134934 11.326419278610421 -0.3061713353212985 -0.12355127709180011 -0.1361429977138817
Ni 6.267302480901099 7.549779341024896 7.734721752350263 -0.7305103148249806 0.997051951569799 0.6180338074901034
Ni 8.594322016811361 3.4397344178003246 3.225871280466938 1.7605850011777033 2.080758564315365 -4.8920521260460585
Ni 6.062618728333991 9.027543294416313 1.859503237433117 -1.5380465094867122 2.1100917660618435 0.4545098466601076
Ni 0.13308158011446808 0.34755011486517357 6.454419494605854 3.3593038888438085 -1.7932464959664665 0.30949782859137015
Ni 3.0838034485045998 7.181963269057882 3.652743313379212 -0.23885419813187894 -2.046823859241133 0.38657770159450844
Ni 8.384364249933867 7.8649666927256074 4.979210838288764 0.3562487115936639 -0.7058161545124103 -0.8132034202498383
Ni 2.134165174595671 6.404250433478321 1.368379225251478 2.5947192580429377 -1.444710579636028 -0.6520435887766448
Ni 2.7287452914362973 4.832529172328487 4.89681550697276 -0.13729536615077 -0.3259004383191097 -0.48185018634627336
Ni 4.8783425290317215 7.608787018740554 5.514787920031964 0.01172217353293465 0.3331884873400907 -0.8650795402938392
Ni 7.404660380361163 7.344640611871152 2.14024329038366 2.1199599171051746 -1.8645508999384082 -1.3740132131204659
Ni 0.33553409035977094 5.771721555217726 0.22753657654724638 -4.1334733351196355 -0.17749045031241692 0.21439246554508884
Ni 8.370074271018936 9.158344420455728 8.786592336752495 -0.2845398730944519 0.9884606103563621 -2.742814285912373
P 1.3208156014751662 8.410400052973161 3.8895874109559117 -0.4337885549523562 -0.09841077327043052 1.142065255190117
P 6.53932276829023 4.039690686552417 12.343051462115925 -0.1395185990543339 -0.22915985366225047 0.29410900484012575
P 1.0987034600689882 2.4705971473213117 7.0714132437419694 -0.23045517543490635 0.054308383634577434 1.5543215924976521
P 8.547078733692986 8.928562673731983 0.7439247886181907 0.8388553164899876 -0.11932284083274931 1.3428774109476098
P 8.182670343507507 5.203270093781012 6.344654071770975 -0.6474904221883236 -0.17724439573988185 0.13901234884187672
P 2.957412809784609 8.583922551973982 9.643203683596493 -0.39985179299559526 0.3041681888483407 -0.7118847293039934
P 8.844884122736937 1.8259510354778798 4.47930670650871 0.017510498079937584 -2.61813815118751 0.17079375501853167
P 3.74047394156625 8.507254354507706 1.13735882798371 -0.025631327414859083 -0.21421171699285044 0.7047411762806767
Ni 3.2115404465115724 7.580903453645335 11.794413766765356 -1.8478050479386372 -0.19492432951814817 -0.17850809294365386
Ni 3.2061085831813347 2.7493585163818146 3.3849951632862223 1.1176269196420945 1.3346737920908949 0.8978161112949118
Ni 1.385663692925388 5.424212295392985 8.008354885312833 -0.5556110222785077 0.047104409686970494 -0.343196506395396
Ni 0.8304000528355737 5.704960705056344 3.328841767258966 -1.0272649848180695 3.1751267705398347 2.6163093255088876
Ni 2.637313567995528 8.659847930523304 6.033527153975072 -1.4952888068042118 0.8200037310011233 -3.4090405939473034
Ni 1.7067193140700485 1.6290297405929575 5.147018274247259 0.9877674409440795 -0.059358030243342935 -0.009115332037706881
Ni 4.376169085460368 1.642892598630641 11.502367081375104 -2.680156758982152 -0.6440878242646778 0.1983305269862197
Ni 1.349089146501788 1.3636948234564268 2.700663022280792 0.257193362760699 0.8255125766344945 0.20657476927288293
Ni 8.31762197024541 3.5451961335350917 0.2532353255029706 -0.5386826219542851 2.0715545292185933 -0.2920842611006131
Ni 4.905334711426594 2.7305930534922243 13.495744858116538 1.9006982963932428 1.3202190501181457 0.36365811668385756
Ni 0.32454037038882844 1.4966408391185504 12.866125972963117 -0.0015591169570037665 -0.01620309212242371 0.35495776069638224
Ni 4.880626697201359 6.637579140530528 1.7146489060085492 -0.07348007146702185 0.40474305964962554 1.265032377643673
Ni 0.4260280049178836 8.067691260399245 12.734901440141037 0.3276439033727777 0.1870454409907037 -0.6545151902455889
Ni 7.104264410344329 8.134637815289866 13.032370703625066 -0.13120853652674178 -0.8254889224854106 0.4041367935241943
Ni 5.933089679689863 2.789647157390193 10.57638016178204 1.7425795657392182 1.9593749842988448 -1.325060180260531
Ni 1.5827242663572394 3.5241650729487874 9.29638988798275 -1.3198223289003592 -0.15769784106652196 0.22141646227140577
Ni 8.379610208865353 2.1511942982668777 10.870343319978039 0.5375479941292097 -0.2328064492759023 -1.480194631475251
Ni 6.635443536144281 0.4588476017162732 4.456095472401141 -0.3983194155114688 -0.4138259957875002 -0.15077000359843712
Ni 6.717905721162812 5.752436119086267 0.09802145575781122 0.3678736974271019 -0.43272000447852565 0.6893685504793482
Ni 3.619190182900329 1.4980057688784565 1.4541989517746476 0.3145510747445615 -0.3525563503437412 0.6769940880743954
Ni 8.607042790764226 7.1335779018546885 7.3511885606241165 -2.7703613422927065 -1.0338045857088 0.17929922138638152
Ni 1.1866996460188377 7.414781288104683 10.137726092323204 -2.253175456759616 0.4840690483744631 0.42365917982783813
Ni 7.520670124716699 7.57453378143244 9.994570030647525 -0.7225404092456266 -1.2063957989473868 0.8115062350530733
Ni 3.108715737931997 3.6572875081036877 7.303189459257739 -1.1464003922303612 1.1271001492398525 -0.4803340068120631
P 4.121001502249666 1.0291663242054845 5.400877567640472 -0.2216172654283022 -0.6203953657437444 -1.6061396056102082
P 7.467521431208528 8.876286792451234 6.58379533684836 -1.037055231435614 0.24246428408064047 -0.1731972222537017
P 9.070905348693595 5.568467729065758 9.623349062469917 1.255887220809295 -0.2746964046414689 0.8667173330075784
P 5.684616751968224 1.984830716578215 2.6859589218196565 -0.3438580512387949 -0.8003653879449054 -0.5833696804490146
P 6.266216108235051 7.592621422060309 3.8282426392227817 -0.7923381467650548 -0.24640835633005306 0.8215384224780947
P 5.272658665861124 7.564589293181698 11.961936145964469 1.1985660184903228 0.6823142147357281 1.6815315493879621
P 8.746618465260177 9.229822170739778 10.855666146702642 0.5747212607453973 -0.0008775175089468758 1.8783083587338167
P 8.314743546942207 5.3482962020801255 1.9948726998118083 -0.757629796749592 -0.6275661724605708 -0.03007625056009014
Ni 8.483604857239133 3.43851805182381 8.55288757762358 0.12044152781822484 -0.055008495025395586 -0.39954351772655705
Ni 1.775262929632124 0.46050223085379177 11.128618671832552 0.25511076920005743 0.21354554416376123 -0.3093350777612608
Ni 2.976503255950367 6.069554799971064 9.67080497750327 1.2539519514597952 -0.9433976565794527 -0.36483028261508776
Ni 5.102813120499233 5.359828465765862 4.112719999849258 -0.4974817222359432 -0.0076976257545738405 -0.5313966298158331
Ni 2.8012815586770095 3.3449228682874073 13.541787560160381 -2.586747809801687 0.4745878483569052 -0.43851424256279964
Ni 6.9306954851611975 2.914190034054257 4.290461710298388 -4.134605134731234 -0.11094567251264763 2.355657571885943
Ni 3.5921144333772985 1.3062377802299132 7.372116555085693 -1.9225099929516956 -0.5252447512818245 1.1193639569378593
Ni 7.952099351684496 1.8857293878198795 6.530523149695245 -1.17794577113681 2.9342444862343338 0.23717655331913992
Ni 7.21752572470713 5.587558175231516 8.695445670071107 -1.817986679025624 -1.0413312331031486 -0.7437831206744868
Ni 2.4872270058246553 0.3496030806469095 13.145424957214766 0.6302735440894048 -0.1450151033925309 2.236949224708741
Ni 4.270187396483731 5.7589914960284005 13.237605070714368 -0.7532872035101802 -0.41509920607296896 -0.4301769263416979
Ni 4.849354020797529 7.633680737695028 9.870766258805833 1.1663596089611075 0.35990147785490273 -0.6823772067631797
Ni 4.882056623616498 0.37372891054598034 13.32937756233329 1.5148551589719137 -1.325044496531247 -0.7114895507481036
Ni 7.965971494958641 1.5393714973164199 1.460613193122559 -0.7990757225992045 0.6904959792155722 0.061381745541591065
Ni 5.536740076075293 5.645804463557296 11.131186968237927 1.381453728558911 -1.0017856096000426 -0.9194360035575326
Ni 5.811935914334408 0.9964358656771296 6.770357093412691 -0.07694771830064813 -0.6063944234789621 0.10597033078524329
Ni 7.024049252549589 1.941719363685406 12.706322410834817 -0.6110954284990572 -0.7258036533779306 0.5727903622712716
Ni 3.3885356239491613 0.1108109404604938 3.5550728395596622 0.2594358789379726 1.403695570676247 -0.1018701925739407
Ni 0.5035504441386597 4.515893323739711 11.602891836883055 0.9227162169707013 -0.838128465626292 -0.3063441134537369
Ni 8.734055540327166 0.055729989244591875 3.1460173183705673 -0.2633447270740755 -0.9737359025516779 -0.628842210959517
Ni 6.347545494405225 0.06935514522884947 11.216667783630234 0.2643482286379254 0.937851787060559 -0.3524604481958252
Ni 0.9775961208958439 1.042360645217908 9.186311552679104 0.47532035564755554 1.2456889401200546 -2.4051273964812965
Ni 3.6595438205639406 2.62872472426823 9.30276327429023 0.5958788686596188 0.5923376882755799 1.6332799134704257
Ni 3.847161308513994 7.917539701573138 7.635692848436332 0.5814624361239727 -0.7202513561011338 2.4843322862472377
P 2.871171533526067 6.237691861823958 6.531963289870492 0.05334601972130813 1.255105091227632 0.3190173380460312
P 4.721561311371786 4.792844071690135 9.121677950191154 0.04158939340601225 -0.01271564779445552 0.7023060844766228
P 3.284745250777544 5.148310779162762 2.611784738867058 0.9366798782396448 -0.7943996572797738 1.1279725245424768
P 2.0159269734892677 5.786197238861898 12.805202750965359 3.0296529823433307 0.4332519657225958 -2.0237934597842306
P 7.038172097208207 1.6626144408758115 8.624736737366106 0.3029497430602073 1.5165004078848205 0.6709532811969542
P 0.7138898342347383 2.6235807032683125 1.1126183154308584 -0.140214596680094 -4.223526737564307 -2.4644453175153234
P 4.510498601355321 3.750437000289917 5.653689486360779 1.279267033185816 0.24898048793260344 -0.7115476576795488
P 2.1345458692906107 2.8482834256473737 11.26438182823723 -0.5267470468589639 -1.9899837103236373 0.6828207220585015
