# total energy = -340858.2468028426 ev
CRYSTAL
PRIMVEC
9.40876236583580 0.00000000000000 0.00000000000000

0.00000000000000 9.40876236583580 0.00000000000000

0.00000000000000 0.00000000000000 13.77067477467272

PRIMCOORD
 96 1
Ni 8.897179665278298 9.388580502562085 8.511722432342738 -0.4687005363381928 1.8500879304355426 -0.8069358420735716
Ni 7.700949626749911 7.861754783179742 13.653444492937998 -2.061689463499056 0.5568101847929314 -0.365290510080958
Ni 0.7415638318834741 4.999308211828725 4.34709939548642 0.5166631802604005 -0.25460194788443896 0.13126510079629006
Ni 3.191057003360159 1.7349193151203661 11.421052866223146 0.7980601368504965 0.6659720259322788 -1.1859164480471125
Ni 4.7265670103432695 6.304519944051264 12.100952610883786 -1.0481186883386273 -1.1573306659896196 -0.5334964497676554
Ni 0.4586357634583084 7.516265031608541 13.649837173473063 3.398598572678373 0.5471670052762125 0.5588074177286182
Ni 3.3928279108341344 4.063192815782294 11.008470171583344 -1.275647691265674 1.4790880286746335 0.3475128743825628
Ni 2.392554164679751 1.7376102211375057 5.417452425862693 1.6474991423936014 0.5999373549997087 0.31171591928861153
Ni 5.08509730645907 0.5141493427671426 13.429382345828333 0.4254039304330868 1.0717810649525734 -0.5199649909401238
Ni 2.1473618192019326 0.17749065548855514 9.360492524474788 1.3044715574759018 1.50709376985894 -3.4706329128378037
Ni 2.1297297986560606 5.91777276980469 12.969731376918105 0.5106455133114108 -0.40329501434918935 -0.26033370816189355
Ni 4.641097813631048 2.96729781839648 7.0012867768829725 -0.003614971044767968 0.8434786741946118 0.4098161032971588
Ni 3.9314136910408393 2.293489306447366 3.2019570544820337 1.9090952622076864 -1.390678846701605 0.011043659408671302
Ni 1.0198533804958783 9.336230149137734 2.8551839477334284 -0.31647014614414526 -0.32764698869657116 -0.8741635048729784
Ni 6.550022778684904 7.710433659145983 5.063366829056323 0.5398601872021541 2.3849144118685315 1.4160474073733809
Ni 8.166259966182201 4.517908888867385 5.648606897992356 0.5784197926429071 1.519534566725454 -0.24254141717547903
Ni 8.743769796014453 4.188969150177822 7.946849511152515 1.1161189676380006 0.6567044845874238 -2.6015730477399774
Ni 7.669665492110091 0.5434472876859215 12.247390587285041 0.5760456359837756 -0.1586890013351977 1.8698769401370117
Ni 6.15594617860843 5.496354306491126 1.112301056204297 0.9841915506673631 -0.1796594329392777 -1.3241656934707196
Ni 0.9334668294596317 0.875746895391989 12.598625329115212 0.7558485364794532 0.2752718175289646 1.3911357317333655
Ni 3.1877263015067765 1.6887034747141099 13.611196327592678 -0.845686480479208 1.2553097510392701 1.7096437342431459
Ni 1.8212447092016777 6.737445323654902 3.3270361995913027 0.3281565813431381 0.4660150190862297 -1.732869537540306
Ni 2.0209927327816497 0.045996616244720186 7.096565549166767 -0.11381322386842979 -1.1045862844080523 -0.14199045763359416
Ni 7.13081626655905 0.10429707094613042 2.0095131019022374 3.491679706205774 0.7266050662333036 0.7192051742248065
P 0.7480436464778937 7.856608190202905 8.259953362018834 1.9386374946411773 -1.3773116813660797 -0.9040793185958043
P 8.547662963443686 5.909483650220424 0.6351432032867548 -0.020113740030739555 -1.3332337172102586 0.07560714511235365
P 5.666285962349717 8.019981938740004 12.893082894859969 0.08105659826269912 -1.6104153501674263 -0.2972210681065462
P 6.2134807600588084 3.948951623963735 5.363774496078138 -1.548457163297075 -1.9354007328714349 -0.18766250574941226
P 2.406046329814639 7.929789543354343 1.4809119002458422 -1.5829505690882546 -1.0824082056491167 -0.11075618220966087
P 3.4388273497075437 6.89463751536242 6.277747310933184 2.2807325404422785 0.5819625156888429 0.4263727221042592
P 9.422122740153352 0.1597212670131366 0.7068445581287659 -1.0616442336288878 0.17741151744536543 0.7458392318725672
P 7.817956994683992 8.266519737226393 11.057549098356787 -0.21042011116090215 -0.960795797451242 0.14058046465994498
Ni 7.075182255092805 6.243918106091837 11.780123225294831 -0.9953215991422536 -0.3659266010030601 0.2981037278218156
Ni 4.165052076417093 4.287234263614904 13.777147136123116 -0.4845033076984042 -0.13203925995815324 -0.31386124776638846
Ni 7.252894957371586 7.953565485680607 9.062357073547865 0.6395930217181178 0.12402538851474124 0.386137014512664
Ni 9.273737149956473 6.615526581801427 11.586026104350854 0.6204079641492348 0.6025274843243881 0.5576977296042073
Ni 5.269800719125034 6.90498715388988 9.6301222482684 0.4332871898359054 -0.33325096514690994 0.7644769015784124
Ni 0.33787900374859803 2.7883807945435954 5.102269238528584 -0.7790933659400067 1.1393406571701024 -0.014258566801543185
Ni 4.190427508333965 9.096861827522186 5.824747396091193 -0.8206655329548381 -0.5370296597318944 0.4984152897938061
Ni 6.612591047964547 6.7702536777869495 3.096487651753611 4.800843269840706 -1.1020455202640698 -1.714650186318802
Ni 8.739695801939552 4.331201409832012 12.529772006620712 -0.284654030074813 -0.04980998154359164 0.6290530414187423
Ni 6.641306590497099 2.1132926909219947 3.450324857235322 0.26942435760925215 0.5864547471322417 -1.1258999582841644
Ni 2.0937412828673936 7.1052338418716285 10.84026126010146 0.9443988441504575 0.4856587614590861 0.05320255216490837
Ni 0.40243158099682363 9.058257675814762 10.632806519323452 -2.43207538582505 -0.9199250273788093 0.6030501895970775
Ni 6.305790126961452 2.4079657173233677 12.05168174535947 -0.6700621368412525 -0.03818139616572779 0.8963333561017983
Ni 1.5707928655994507 6.047566645701332 6.439249656649274 -1.3655308866810674 -0.35494619073215644 0.2972035846050494
Ni 8.514130134614717 7.033021591236853 6.618985242822058 0.23646075819903792 0.0985670963426367 -0.0823352078648066
Ni 3.42751801742572 7.9714139077593265 13.348851808446172 -0.6636770592505151 1.187547555892632 -0.7443564766794535
Ni 2.501319456841054 2.9538621058353782 8.615140724890264 2.1718715183728015 0.6172624765417176 1.3411812541921095
Ni 0.9702880207116439 2.2473016923280027 7.2700621850599525 0.9872431930094933 0.20575407314380048 -0.529796375208249
Ni 8.629265158851558 8.751014542983674 4.229773070510447 -0.6338450634907471 -0.4145196794204152 0.20544425521286552
Ni 7.584083390250296 2.2571620752159824 6.426360593177668 -0.543275126420974 0.10796653527966567 -0.655337171926252
Ni 1.7682075161295956 3.57166025582634 12.925733181785414 -0.3681503481272563 -0.40472197660370296 -0.330905604843185
Ni 0.08378691001339461 0.6554341400579545 5.871016866442545 -0.7354095518988109 -1.116777941378238 -0.01453804571517496
Ni 1.557009028833334 2.309145486910723 3.064773536676785 -0.2860794496674299 0.7961626627174676 -0.24508629508451985
Ni 6.622686649909969 3.413903538380962 8.492196427946341 0.2549968693300125 0.6229718682216692 -0.5603855608490156
P 6.379112611547354 0.448460187033356 6.172539471796638 2.396600332846892 -4.746942920277824 2.287876607686228
P 5.028418922377781 4.792870558255096 9.699401787694985 -0.22006354778793713 1.4436273738741783 0.01342270116380914
P 2.38958099579368 9.271319098045966 11.250558566379155 1.5504202005607168 -1.8718497475926668 4.085980174634678
P 7.173485003579077 6.095598377231043 8.161672253685847 0.12704257807451022 -1.4945082198844455 -1.147738137205178
P 8.613712474773473 6.557709737482118 3.978747292408061 0.8282978526891154 0.019974643349713987 1.423074746533807
P 8.700592985830351 2.121958160998168 8.28507099384875 -3.274805868999728 -0.5048227359820466 2.020831034721797
P 8.993911150460855 2.257754827240737 11.763847007396057 -1.0643312935427476 0.4509187868747396 0.8887622286227596
P 4.749044543472452 7.104857491379722 3.178368346525493 -4.194899817856233 0.6835676275268551 1.152010539328287
Ni 8.677343934192757 7.694438763239909 2.0186433648359166 0.9751011583303206 -0.5728322712528006 0.594573519584634
Ni 3.5025246704629094 3.9266999011296964 4.740223828818368 0.3680565028618694 0.569719950876064 0.2985017345911827
Ni 5.173360905573705 2.860705950325943 10.066087598970421 -0.9393258005029241 -3.587687526461666 0.854337985506619
Ni 8.4816040433516 4.731224347680627 2.6890129741652253 -0.8017003047062451 0.03366011125660655 -1.1048729624105358
Ni 5.569582703454052 9.182923776259162 11.019458665070816 0.40437564900787776 0.2728999748626784 -0.26510978939429825
Ni 5.2891639519336815 1.644087123898461 5.21567022787396 -2.4265693684051564 3.896383427977031 -2.0308889331784314
Ni 0.3478353560120142 2.553905029322847 1.0221378279817575 0.3621085128085506 -0.568782269553143 -0.4477478453459256
Ni 3.7171009034240416 5.151325584272513 8.070606725158958 -0.5836311616405175 -0.16584798097748213 -0.8694812689059606
Ni 5.663792640340829 0.06135642069570014 8.575605105715368 -1.4020215254079338 1.9040227327807853 -0.7310456185031604
Ni 5.0652448180109415 9.345855312968272 3.3420873966389184 -0.2742186936741019 -0.11967611040711003 1.0859370447379812
Ni 3.1996942471494387 0.41480598517074635 1.862937757571434 0.5100767852921344 0.37534917986854066 -0.7448591273474849
Ni 7.4852255247884605 1.6644006416991748 10.209990854808678 0.4956084164726304 -0.2780087568441535 -2.2570035722564548
Ni 1.2200153896169488 5.798083904615767 8.77384772732771 0.39341889288605797 -0.1718705330224782 0.05331953735874689
Ni 5.853943726377156 4.531843265830265 3.219514745805754 -0.07216649486192088 -2.085383978902518 -0.49356850322446616
Ni 1.2921994139648312 5.128010671298836 1.480650336653966 0.31506246716334124 -0.692797116544923 -0.2699149240924255
Ni 5.634277353012973 8.071955941672448 1.3797799369366548 -1.283891676442021 -0.7113429978679104 -1.8153068182006158
Ni 7.394496829951829 2.761198880265567 1.0991570152744232 -0.47426157536573815 1.0278103157985783 -0.6457762677106943
Ni 5.193222802784129 5.780037898528796 4.960734168160654 -1.6910744558813908 1.5049394425200984 1.7906589377449482
Ni 1.8885267683924636 8.06962256862262 5.148248919001168 -0.962117344476143 0.08333768098739194 0.755914356720382
Ni 8.419854336391857 5.262537154631217 9.789916903627457 -1.0235726235681468 0.8060832642652892 1.6209440176128924
Ni 5.594403018395361 7.6158661892918955 7.162376077934193 -0.21674091117260738 -1.4721470785804258 0.5733716886960383
Ni 3.8813308493302316 6.371359791414058 1.3974618239227048 -1.1643240665883172 -1.60665948266942 -0.20747002739364268
Ni 3.2721793518908475 7.367503090919755 8.733058861014761 -0.8848392394192696 1.0036933681457167 -1.6676180246306636
Ni 0.31084668879110305 3.0998014178348576 9.994907489559703 0.7710221588960979 0.5401684624711922 -0.11727598560604964
P 1.9337546887574621 3.9696603097809513 6.196019038110524 0.44760000691415175 -0.2232640570031058 0.4581633842522948
P 3.110781443436262 3.612334335239257 1.8845308670446344 -1.17602644262691 1.4067636680786095 -1.5476763192669927
P 5.718880943593807 1.4353631410864918 1.430718035140122 -1.7915655087196176 0.9585270560217233 1.1614973957727999
P 3.74440513161194 1.1800846024255498 7.82664598666591 -0.022707468899844766 -0.32237648432625127 0.5310539017644338
P 2.7861132828298523 0.19852300272881276 4.074343139981288 1.6923476661668597 0.7275931411781856 -1.1513574791253205
P 6.321295767228046 4.218399758644999 13.039630953780108 -0.10899754764734132 1.3961959198650922 0.600829784906991
P 8.721555708229605 1.6455172557677098 3.709241764276781 0.47776624608488677 -1.3545738734489317 -0.8417825174391116
P 1.1124732365543448 5.089594694837365 10.787120570644104 1.018904528668516 -1.2480196451357604 1.2016683115647304
