# total energy = -381179.74683669594 ev
CRYSTAL
PRIMVEC
9.10495945928459 0.00000000000000 0.00000000000000
0.00000000000000 9.10495945928459 0.00000000000000
0.00000000000000 0.00000000000000 13.32602851207844
PRIMCOORD
 96 1
Ni 5.069932833732307 -0.18555543355685544 8.506004349889663 -2.499006857540277 1.1848964914230302 1.1090821153958772
Ni 2.7381800089658737 2.9244947961488377 11.803556653503076 1.1401654670642427 0.7526660249864134 -0.1943625434774072
Ni 0.8702766167655326 0.6452329736591235 1.910739495374836 -0.9651466182207701 1.0738960544130471 1.0433487777538097
Ni 4.740497187451019 4.035345385517822 10.928835905983304 0.1787106958727632 -0.49544258031872734 -1.579480865372099
Ni 8.812435405382873 1.3535523910182576 6.68021776905971 1.3185429479673034 0.004799992491804636 -0.168679022668374
Ni 8.408248041231666 7.500374315014215 6.050923027085275 -0.8966226052074429 0.7996038271885326 -0.1702571657887713
Ni 2.557282672712581 1.3460134845144462 3.637112664909481 0.4170635288881914 -1.8841532475503677 -0.6601621041187211
Ni 1.364970010288523 8.720730252838925 5.381530043271726 -1.1621244878338375 0.5707293659771848 -0.20776287604371313
Ni 2.0318536672512857 0.1175168023599569 10.723828636853087 2.5309214468606864 0.2922830073749805 -0.09549745627837747
Ni 3.6861519770224382 6.128238701563253 10.187228756525215 1.379501747038863 0.9497336260998095 -0.9619602500729882
Ni 5.937207545335633 4.655374920658587 3.857832362727653 -1.4989024922973992 -1.1214154401502494 0.9429783096538469
Ni 7.98097049967265 0.11476710457716575 0.5960452507055719 -2.1080191998035307 1.561631495895504 0.7692560681346106
Ni 6.534583941126781 1.5414241262835306 6.944699544438171 -1.7074631816520593 1.0716273129835288 0.27167561553727404
Ni 5.706633549801187 0.9939884336003606 1.2243074902675284 1.1798396457254132 0.7315359278760175 -0.1653263041460572
Ni 7.456752453830928 8.842800445467669 7.98836736880755 0.6413084617473277 -0.400021228693924 0.2858123120489723
Ni 5.003102430667118 2.941175082036498 13.12832371491771 -1.1837839750851418 -0.13112934654937414 0.5145911282227202
Ni 1.5341037388088152 6.333027451664373 5.778285939441761 0.8144699456670876 1.1750034006790346 0.43410865729593623
Ni 0.8007274727800079 7.650751826870435 7.754935326471719 0.8002584300533959 1.5310471953507439 1.3089938708262874
Ni 1.6493634216974016 3.8070294199507004 0.4330783112855593 2.501392584163634 0.9150792692507336 0.34353846311584707
Ni 4.591439894728921 8.388208025271654 11.085189913285298 -0.7234660063836895 0.5719663237080795 -1.2716038602136035
Ni 6.471568516111227 4.69307855813719 12.413982277315073 0.8243455529095867 -0.023152269746747226 1.184049827152019
Ni 2.4410760740312454 3.6277800813751733 9.335695609480391 0.766973442748021 -0.12314889944705888 -0.2528320004682097
Ni 2.900075294647362 7.232506405180721 12.233014832873277 -1.8477842220030307 -0.3427743312563129 0.2597482679720688
Ni 8.169525106903848 5.896981834062881 11.069718766025302 -0.04496216653298708 -1.1630649973702356 0.10793053983540765
P 8.033169232747953 1.350902847790469 11.577946681912927 0.8034802794248033 -2.1381347882419885 0.32772874977710015
Ni 1.5443741331763263 3.3134859828183276 2.8542218078794326 0.2051210675454919 0.7359309716199197 0.23814997297600274
P 3.92971874982855 5.296118238765743 5.228067771121435 3.3045111093736446 1.687842064987022 3.551388434920316
Ni 6.979151800863018 4.892012819250447 9.184058881719004 -0.600113732676573 -0.9980258854472941 -0.884855951589818
P 6.026472568721343 3.649213156145671 1.7404457950084262 -0.05735436954975284 0.04087951182318121 0.08670094103267005
P 1.269631978885854 8.071555742192482 3.385850380295372 0.8458505168608981 -0.8330042570258492 -1.34068246017882
P 0.6243971842348214 6.455115854212209 12.534182311253138 0.6181281669761226 -1.023921008046501 1.3916620365504806
Ni 5.347288111412386 3.477611983588503 6.050230139663849 -0.7345466896778833 0.17256447376570927 0.24113990884226214
Ni 1.4760596217051942 1.2765426431810145 8.288616156769251 0.36359923842146413 0.4947699797317349 0.24810734129903075
Ni 3.729182015835256 1.7663257320210273 9.978543994234505 0.9595372424537927 -0.7072251190447949 0.10815859668581372
Ni 0.5591692540496699 5.8031916457829755 2.9140960218517327 0.028806382708731034 0.7592081969803053 0.775809295872096
Ni 0.20214011736928614 4.423234872082286 9.569008376846172 -0.3272492390375203 -0.4794050672398905 -0.08664900474881206
Ni 4.3396968682508 9.105687942429684 2.533690812033806 -2.2710276544496892 -2.3258466591720977 0.19650452952107447
Ni 3.1440973154307565 1.895825571639035 1.2427841846735486 0.2579508097520138 -0.23117199899627283 -0.17546210702847845
Ni 7.060204150738536 2.326817936692682 4.57996946669329 -1.1715799768197823 1.4406469510896156 2.7509703393606046
Ni 6.857937474431566 7.770354575462304 10.891376281420523 -0.16080399079567145 1.5886687025189543 0.09749597476564499
Ni 5.3519862705379495 8.564543776792569 6.34626788383568 0.8459901277625559 -0.14134022564410498 -1.6651672490973257
Ni 7.959765048890794 5.729286689150803 4.792719593421141 -0.27349569946514835 -0.6992169040283377 -0.32645939614637326
Ni 8.10319547661367 7.860557409681217 3.480105832008061 0.21018459811132836 0.4300540276105883 0.2796588908530668
Ni 3.0029795474324787 -0.027413212200091287 6.8759907882187115 0.25007397810709836 -0.8766294499149677 0.6272884933191519
Ni 0.25161555704448074 8.588171146813572 12.288530502711069 0.10661953433346798 -0.2999315250591738 -0.8101841738075402
Ni 6.83038586684638 5.836351908448291 2.129965979827519 0.4787604916773561 0.718278034424847 -0.06984144627317004
Ni 4.018765254185164 5.149583019837793 12.925714692131821 -0.3172779867574213 0.14805414732917085 0.4222658990247372
Ni 6.017668072840684 6.964301611844036 8.603857171118847 -0.3272785496135589 -0.8324787235396824 0.5259381778044232
Ni 5.903965338034406 0.865758735838973 12.344499599534231 0.5738031198065021 -0.508828257597014 -1.243802007509987
Ni 1.9871210010034284 2.1195981623928692 5.701381809135246 -0.8615810402222774 -0.7898796579222331 1.6321805097586601
Ni 2.7878657732065735 4.155694740792436 6.794515968220274 -1.2291531472485606 0.6088112604505709 0.06167099464723573
Ni 2.3468215328145106 6.012605715333294 1.185615054182266 -0.628516452188982 0.4763953338792892 -0.4154745871345167
Ni 7.358291421304096 2.666414717826934 13.232426180379036 1.0823675822191683 -0.6092781727846605 2.3648042713822175
Ni 7.6241289251589075 3.881052741056965 6.468427305067972 0.09357427111373562 -1.306499643649524 -0.38494170865298216
Ni 2.7535127608407755 5.537026363384521 3.7233857985884846 -1.7730869902994557 1.0943054713073348 -3.104267167414796
Ni 2.0760764557645857 5.091784736641905 11.354456344905007 -1.2483556883189406 -0.34116070691228984 0.3557488891391099
P 5.572189717149882 2.8945667941222335 8.940445673619209 0.11270842084002525 0.39922778625835115 -0.05663394644396053
Ni 3.9296550151117304 6.673234265088184 7.069351903594066 -0.869607767181496 0.571895361260828 -0.45862001217373916
P 5.544738264119699 6.45404146898582 12.137040364798368 -1.3159296787141725 2.154081284268916 -1.0707456817095238
Ni 2.526043556511401 8.635780980277861 0.8957395466309421 0.1966492826290549 -0.7722462611111861 -0.19342203394100882
P 4.142246715543487 1.4114326188500566 5.325627412653246 0.8050864475696587 -0.6604523816656303 0.37487892510034143
P 0.10975573484323116 2.8352479826822194 1.347261774468157 -1.7574708810287538 -1.0675320598682323 0.26337789430485603
P 2.992208380289956 7.95998356791989 8.931651193194051 -0.2836626126958211 -0.04206530460116627 0.3023105668143116
Ni 6.302899140527764 1.1021735629219644 9.943323279224003 0.461004967466148 -0.17511757920486618 0.07740666021493765
Ni 4.6460969668815535 8.042110303021799 0.13811859432393542 1.7007006661172452 0.0012559838942881596 0.9193470433881523
Ni 8.124082253811428 4.022206928893426 3.1809359817525213 0.47231987825833494 -1.0552910377173501 -0.6698417933003302
Ni 3.755996121697242 4.1715737902400765 1.9001049026254984 0.744257489207744 0.09978631346171847 0.1288444071699394
Ni 5.871205693589101 7.037459961793463 4.396017416512427 -0.0547999785590153 -0.5933437609425911 -0.05370186039883009
Ni 1.4521682078573666 1.4569392066592954 12.912095493643417 -1.4850432178168038 -0.4391621605594437 0.31163647220092777
Ni 4.500727182775449 4.75452793011089 8.165271269804112 1.2344897289701258 -0.9880160666197758 1.6651374243006547
Ni 4.823871302010683 2.2155007012873695 3.059842751283027 0.9746512152770956 0.8436023442566697 0.19240464842008798
Ni 0.15246618957599595 1.708208775241041 4.1642242668948155 1.030433098133406 -0.25468859406097427 0.6799673117701064
Ni 3.616171257954449 7.8719386091133 4.647571970327951 -0.8961073561339212 -0.07700659656304157 -0.30208559528769907
Ni 0.7715524509078303 2.2749560871205685 10.496445929639396 0.08404961945275202 0.5803067252529748 0.8051368411916197
Ni 6.2026626408895265 5.876796138750139 6.620344465583365 0.24174951740180303 -0.4408184652159441 -1.0104481703710468
Ni 1.0209300088959865 7.082638771059058 10.488517330867031 0.0917241052788743 0.44137073817498823 -1.3464155060078553
Ni 9.293523257856775 7.44973253002122 1.274102514022776 1.278645340441417 -0.02728300408566914 0.05387052476621045
Ni 4.529617219413848 6.501915346276933 2.259934724862129 -0.40873238331467676 0.5794585183200666 -0.17700271204272097
Ni 8.827540533269133 5.542343659759188 7.301277985621044 0.4874716462981089 0.21170103475585478 1.031235282319727
Ni 7.422426756343768 6.976593307230685 -0.1611504999906522 -0.7763841945389597 0.3791245877505729 0.24090876666806255
Ni 0.8467794476660322 4.407355822634645 4.957216166044826 -0.4399928839908552 -2.050532932661604 0.10583200543516613
Ni 8.119438724443139 2.228138385136754 8.765128767071456 -0.1257716817818866 0.8030997561569331 -0.3101226066595627
Ni 0.07254012319627583 3.973031042387283 12.20734886241 -0.5225270952403452 -0.30155903336026774 -1.4563885301945885
Ni 3.485442248797776 3.400829859739902 4.531529260918438 -0.28040116833573 -0.15206352559888006 -1.0299127068535616
Ni 7.605946320946212 1.6529507757583939 2.6547448911772538 -0.006612363110195063 -0.4583785855868945 -3.8084077339969955
Ni 8.601473492709792 5.147834867605026 0.8189574227823405 0.8233006565848402 -0.8859108752168936 -0.31232604206878467
Ni 7.29586781865901 3.1502158482454443 10.956407544479491 -0.5187943676707903 1.1707744501993513 -2.2221566397805987
Ni -0.039060276450907275 0.20362968875095708 9.895509494665893 -2.373463489719112 -1.069590742169474 -0.6663414934565557
P 6.354760990099878 8.01301085231385 2.153312917094516 -0.7693324298985009 0.393127072677252 -0.8600437776421446
Ni 3.7881821536911717 2.036997969394587 7.571596040068278 1.209431243339601 0.8370267479216811 0.13682948225794497
P 0.6845673093923552 3.334645908802455 6.958825889173273 -0.4307672516275291 0.5805939174760903 1.1147992203853123
Ni 1.83724426192222 5.756983976088721 8.65144424218427 1.2794562663784868 0.21605056997380212 -0.9726393270533895
P 3.596868743717637 1.0141103941962826 12.342394532887274 0.45746995772969595 -0.9157192168275777 0.2897201317438107
P 8.108549192826523 7.160777533879963 9.182992690956207 1.1756124950179432 -0.9924658748610133 -0.3682328805387336
P 7.790330856705495 0.231373410982556 5.245418182031656 -0.5326533850410697 0.4313033266366572 -0.43422204294534894
Ni 5.993740239154675 0.29302855504198816 4.064504928958772 0.08369275033396555 -0.031168712293320515 0.46329299216937636
