# total energy = -381169.9245165264 ev
CRYSTAL
PRIMVEC
9.24321304226887 0.00000000000000 0.00000000000000

0.00000000000000 9.24321304226887 0.00000000000000

0.00000000000000 0.00000000000000 13.52837660564921

PRIMCOORD
 96 1
Ni 5.421735938688979 7.081927896292591 12.8409181715487 -0.6392081275748733 1.755195454731016 2.2441621975174124
Ni 5.54837719880037 6.000416526276288 1.7541030007925562 -1.3558717663247486 0.39523074928381613 0.8194630280063048
Ni 9.122820064115007 6.84155814450829 12.731973966879195 0.18720022140101308 0.2583205343866067 0.039391614423745065
Ni 8.761170115708449 2.22314059681419 0.261170678122136 -1.2009640864088542 -1.2018490601169687 2.1558046947179257
Ni 0.2183930887640223 5.112846249585815 8.204608536620267 -0.6724851444604483 -0.38306968844125 0.008195905547231045
Ni 5.718997665948473 5.655062362234109 6.740892161323038 -0.6604706364980755 -1.1661521209359917 0.27180365647470606
Ni 5.576707646376562 7.957713076519885 6.777865012972229 -0.5308060474196858 0.3094389503289768 0.7297770362033819
Ni 5.456129933935638 3.8633025120368525 3.359582532525695 -0.8300552016998545 0.3145983830427292 1.5814210198176055
Ni 7.412548378952566 6.972331120791477 0.9219725908287536 0.27995122528250493 -0.5072645126543199 -0.9259745760069987
Ni 1.1362496768829298 6.136698457455204 6.28015681913923 2.1143618541921065 1.8810072457222184 2.776906599610392
Ni 3.898472937168145 4.367223993589497 1.3760925655312302 1.0761735375933144 0.2511219597556385 0.24871155054193297
Ni 1.6068124030350925 0.1883517224777636 4.068875264491518 0.8101738893948949 0.32966067669249033 -0.5294001682110947
Ni 5.295029976087203 1.0996280673244063 7.566015291578027 0.9556237663319994 -0.14516936958220805 -0.945991385448558
Ni 6.743552357999197 2.340353779755037 12.33977335115491 -1.0199108584458434 0.318347051451884 0.2254502660211472
Ni 2.185603909177349 4.8764603225667145 4.755157017912175 1.1079760268158918 -0.3457313570021078 0.6298603678113861
Ni 7.536083919525424 4.9051789850852225 2.5018299363690035 1.1526689988478922 0.07297870635057109 -0.20799684643139016
Ni 0.7650126680437354 7.784458293691776 10.39228200116868 -0.3322099254769053 0.30654928748600757 0.07934835732234077
Ni 6.433747590817715 3.2392192626243372 6.354345618937205 -0.7071289597865629 1.4565037156162142 0.10519925694717365
Ni 5.773523378918116 9.356257406215084 12.024494753286767 1.359161492819614 -0.8327093514932496 0.02042792883704869
Ni 5.098722620255825 8.50238788380285 2.68931926708205 -1.603786017776367 -0.13579589878710804 -0.479374214001955
Ni 2.1291463647090345 7.210094286534511 4.343920929516304 0.19362720797327942 -0.29270004030774105 -1.0355061417809392
Ni 5.608411866665743 3.8441043588180097 10.429282582456608 0.5414470720732998 0.5444820022448816 2.4749269337729376
Ni 1.2796119091526668 4.837758990102923 12.562707630422745 -0.7588461856551963 -0.35166340621582665 0.3226729325207475
Ni 7.722861522844224 7.778709015260326 10.90465640092962 -0.7865997016193808 -0.9125616450352024 0.7842839090020106
P 8.457521328326557 7.286886899409879 8.843675958484909 0.23431774371410613 0.14137673530899522 0.591228514371801
Ni 8.053860977233605 4.354292738725193 13.252572977489502 -0.5141147028069339 1.662648082219898 0.37318045435199604
P 5.835711715392055 1.6981076169698566 9.887105291302545 -0.447050819278901 1.1914168090400514 0.13891027604637365
Ni 3.5188356964342544 9.06422733746395 13.69017625503899 -0.9361458601130459 -2.570820339938153 -1.5518623323238823
P 4.539147753758234 7.588659314570574 8.792376126821656 -0.3027291424089689 0.5045985357863826 -0.1355603857375343
P 2.1488066785734916 1.5262393160785934 8.289242167009139 0.3079785637333664 1.1054923411620898 1.176350144514916
P 1.578944116104515 4.640832339006421 10.500414651744485 0.036599139280272454 -1.1129400556893865 -1.677313911762189
Ni 5.2039935721139825 3.4220685004554103 8.355314501548825 -0.4455698638580004 -0.8012529327561813 -1.9921277532498336
Ni 3.120277598868891 1.1057470742723474 1.9249665644402525 -0.7596118601766272 0.9507759513213948 -0.04170380749668946
Ni 7.780113983622996 1.1127072135953076 10.462697721455855 1.475554304489762 0.9390951725493568 -0.11228598859062597
Ni 0.2745945962346659 2.751815402545968 7.0438874535520295 -0.2691029697140914 0.29072851840366704 -0.4928377957060286
Ni 7.7164652195089145 3.2020060874394267 4.449605052991641 0.7003715864580713 0.015069235628296629 -0.7069145297829117
Ni 4.013005588364426 0.6909967163272204 9.24895849344397 -1.0127588207820948 -0.013351224495925395 0.15614206654362786
Ni 3.726521447360671 1.2210746417790856 4.054535343979379 1.1126482354805807 0.009947341020698997 1.3025419445533568
Ni -0.3221481537045638 2.8309280618623243 11.717805873178019 1.4383692107990325 0.3202905483315 -2.411859315888491
Ni 2.4524092498908217 8.503423123649027 8.097815227595452 0.12756271224403837 -0.3555599130567554 0.5434183368670576
Ni 6.315702518714762 8.417110001473992 4.601772369881634 0.8428382123971356 -0.9258233951411152 0.04747284876998276
Ni 4.021989991315179 1.4136754692326323 11.495209895502775 -0.31489843078165125 2.2678664831128876 1.5289237212498379
Ni 2.7600973213153868 6.385608937970469 11.207367002200915 0.7867837926057288 -0.5012175351292916 0.8462397818795167
Ni 0.12960833145623812 0.4996196902632618 8.298536217592453 -0.6484407019167349 -0.8176879383837531 2.2461434896134995
Ni 8.550526536650096 5.2579831787347135 10.626972722939666 0.22401996133252386 0.12968850033778956 0.2621759035769549
Ni 0.5786999983344246 2.810685425584392 9.370970752528882 0.3634742828078257 0.23219298406161945 0.956062653641631
Ni 2.761345155058547 3.359769245426524 3.2072127892729245 1.8338989793805063 -0.9686451182923318 -1.0184646129176202
Ni 4.424864669310586 6.31368749829988 4.101831015809024 0.04335754105002855 0.1037147019818472 0.06297582950158832
Ni 3.58825222540561 6.570510169068072 7.106023103712368 -0.8891512365310622 -0.23622241693598672 -1.0217638524941821
Ni 5.435582271631601 4.805648068445602 13.089826803421383 -0.3898016078484448 -1.0436125729381576 -0.766363577078164
Ni 2.6351383259540344 4.067383409927473 7.438144684149302 -0.12082282241704355 0.22556159478803087 0.05178767409525275
Ni 1.6208436002359605 1.7028124123422164 13.347718913923526 1.7295263320996856 -0.6003633867935337 -1.874659706237636
Ni 0.6046863671160584 3.9917092258144917 3.093060034127339 -1.8121731576676403 -0.010541780071588297 -0.041276490151283755
Ni 3.6951222530975962 8.557810188424986 10.967171022819363 -0.9157960928121002 -2.2783385862888053 1.0473578989132026
Ni 3.0194064163569863 2.8777356920501993 9.88794457503498 -0.5091133929376006 0.6818586152555484 -1.593781084044855
Ni 0.8801063822637925 1.7076558559082602 2.5337430532700025 -0.5294945276971139 0.33353327227401913 -0.8589544012327078
P 0.11104703560705315 5.625474837701844 1.0795037441717519 0.14912218358236898 -0.4116153612894266 0.37723765514050517
Ni 1.5367303627340514 2.499900877834207 5.028064727790347 -0.748550203045827 0.34293502520389324 -0.7467098074029785
P 7.510480219758361 8.921530616523901 13.292008221058527 -1.4994717345373079 -0.37527076122212144 1.2637655951161075
Ni 5.2450888967220575 6.752971191956828 10.690853491697846 -0.023540506324101394 -0.24434787425659854 -0.8516961770083977
P 7.347078701894762 6.989181497930596 3.4610591454833552 -0.011407727616309385 0.0649514651707204 -1.3971901654575614
P 7.975312153904898 2.2313947859448717 2.254598947639904 -0.9532346972745326 0.09853418622217223 1.4817918007590416
P 9.118475754046226 4.524312397033997 5.889470241689979 -0.9463418268094412 -1.5359754858902968 0.30397664166282484
Ni 7.615316740609641 3.735949524531215 8.98332888941294 -0.5483959925873072 0.020607648948022573 0.1864710565444724
Ni 7.63052182585037 9.097632308928995 6.799131797240843 0.06834172179919197 0.1697311180819722 -1.1382235128465237
Ni 6.111982106127721 3.438059258793685 1.2319788600517232 1.224955307117129 -1.2927162167121866 -0.264315575627777
Ni 7.498833771488865 1.8272353013546554 7.779209073078882 -0.4381961971017485 0.1692850316834891 1.1773163650829275
Ni 3.325504655160636 8.547827518479705 5.800995132014756 0.6599484454460183 0.6253948758408648 -0.3250581449234724
Ni 7.220280307163862 9.002131433119136 2.037562762531407 1.3260611107212195 1.105780818936786 -0.17272388216170897
Ni 5.875170991314654 1.43651544833892 3.0500402725909233 0.9701522989654777 1.1573931437964389 0.25468859406097427
Ni -0.009894859422614671 6.001886197129344 4.40304051930336 -1.1958756161423532 0.6323772206959689 -2.288109035412008
Ni 6.460774745373274 5.932340263177215 8.880080352539991 2.2209682758994522 0.2416559292467322 -0.03680174220938178
Ni 3.4465445282471747 1.9740822248923289 6.2903835099053955 0.739460582039733 -0.5772090601642574 1.3713966014332253
Ni -0.027553093370268168 7.536083919525424 2.3434391642251615 0.837110565884739 -0.7280225154061204 1.253489667111396
Ni 6.833895521003995 5.449761360239066 4.841968349263183 0.2261102682026493 -0.38749429987150685 -0.1976594690611241
Ni 3.590849568233966 3.763559001500248 11.897111263178518 -0.5071022760448428 2.1024085384849727 0.057248954320140114
Ni 1.8914756310951244 3.6335716983146056 0.9420497735955553 -2.0228889456920904 0.01104211674677453 0.5334473416972748
Ni 1.9322566864641817 5.769262257765547 2.286512064540903 0.5292950100917981 0.4619125668820819 0.35342923986699776
Ni 1.9351128392540817 6.442630318426433 9.080449176125034 0.3879596695436996 -1.452720594424698 -1.591283257323666
Ni 4.17429965368402 5.348936393791722 8.998805725113291 -1.2666647710407732 -0.22039444876479464 0.7291252615519959
Ni 1.4518961546249833 0.6637089031675352 6.528740089917398 -0.025419211404052997 0.14030972749706158 -2.3018988901072484
Ni 0.34189720241297905 8.259448518828929 5.483524044043815 -1.2672764364828433 -0.6986489473400097 0.40099799078489645
Ni 8.098487209174177 6.9101427843175385 6.824836248028651 -0.6951208795820932 -1.647142530385131 -0.5100235634566957
Ni 8.600430643163591 0.9855298471350037 4.360588291039759 -0.6702146032587166 -0.24331171968260035 -0.11729141222501734
Ni 6.474279079438141 8.888994507072614 9.396188085996211 -1.7387198256734957 -1.2622427307136779 -2.375295143611212
Ni 1.6557459721927965 0.6351113267381774 10.742870596683092 0.8578804514422387 1.45842664367054 -0.8458379184554078
Ni 6.042316010407734 1.1763652209223017 5.448837963269127 -0.20550467613715573 0.840503650726688 -0.6105089598679678
Ni 9.122903253031218 0.1851129006732945 12.153988468902892 0.630405955902211 0.3801558572285647 0.26729008487506867
P 1.7443144383184328 8.042759878525935 12.48173985827489 0.9838825040673765 0.6093483639009635 -0.22539858684760536
Ni 2.9847536111487822 6.253227642640542 0.014585789975605746 0.6333912637827801 0.7501512289843596 0.7019924098909459
P 4.046687856216838 3.556455572987306 5.0839094472425765 0.2046577547558282 0.9577873496422213 -0.6031833727408322
Ni 0.850275761231934 9.06993039983084 0.8415705033111321 0.13624121385464277 -0.6186668130884119 0.11849828804892497
P 3.561825879689351 7.289567431154445 1.9692581920734005 -0.29083496207454423 -0.9799116923450867 -0.24632762369078864
P 3.63177851500962 2.55916835902786 0.01750756957718304 0.7719778379411479 -1.0583766186212094 1.375450974008257
P 6.908479005993325 5.822669541972804 12.015525139476672 0.976571315117944 0.23160908653369144 -1.0952588363595395
Ni 5.1952125198473 1.2194016202419597 0.7697710740509862 1.3997216736301636 0.37351958285896963 -0.6935656192798313
