# total energy = -381174.2558650153 ev
CRYSTAL
PRIMVEC
9.17971413983053 0.00000000000000 0.00000000000000
0.00000000000000 9.17971413983053 0.00000000000000
0.00000000000000 0.00000000000000 13.43543954336276
PRIMCOORD
 96 1
Ni 0.35213659420072263 5.50220141104706 5.591131729205112 1.465313086377728 1.9419920129357073 -0.3800630404044422
Ni 1.6988989039533566 4.578768051724487 3.2295299730269824 -0.6001168180003665 0.7328006535210542 0.7375263411314975
Ni 4.744893341288189 3.803779852236949 10.270749040125919 0.07793399347331739 0.3684725073533654 1.1363113834254752
Ni 4.089865648183944 0.44088056415862353 7.584467215197971 0.7344374177935288 0.8996624204750313 -0.5199745040218205
Ni 6.221496283917867 8.3847510353918 4.95564856580248 -0.4116899232811039 1.099516068973997 2.2644538578869127
Ni 5.53965464536324 1.7320284928374476 11.67855461398535 -0.3119825426864369 -0.5947545252471886 -0.9116591878255912
Ni 1.7604488882891371 7.326825681959828 1.7898285638844638 1.0793707043743732 -0.9312386526194156 0.14970273867618736
Ni 2.2226934015222817 4.72510187727209 0.9561608767206228 0.007875288983018695 -0.10704170947255115 0.47545431012225847
Ni 5.711581514360232 6.554554677903072 9.01655037944858 0.3660055338701116 0.6569999043406556 0.23281904768139255
Ni 6.204697406761346 5.927662809107426 11.367806597618294 0.032251918055170255 -1.4646762241246776 -0.31930735848262426
Ni 2.166311596333562 1.8679708818051697 4.3909969958574635 0.4828302908713556 1.3790047527977864 -0.03549767868597757
Ni 3.3758123921745438 2.993688425292286 8.495376690310357 -0.8373113690416355 -0.8274843556488847 -0.3009764213839204
Ni 5.173742053922741 7.737131371722152 12.024516932352478 -1.606059644301892 0.9510595440000846 1.054186234688946
Ni 5.479472438457143 2.08894496427063 8.923107313743998 1.3883545694438026 -1.2887713731318255 0.36242655826960163
Ni 1.1494287455064032 3.101265497094077 10.196571440808437 -0.45484151896791347 -0.8078791798234474 1.0177758143807116
Ni 0.7808861659209071 9.061387775942194 10.865025384037889 0.7564733145476457 0.2618889684641554 -0.6151847680770824
Ni 8.255362962429409 1.389303859701524 11.435534529673385 0.3560227116257868 -1.0168309339689392 0.9847865039388846
Ni 0.9695063453600499 3.7787008727879776 12.456278368332255 0.6954492094557895 -0.342292763634204 -0.9200610387360413
Ni 3.0415239164740533 1.631997146184651 10.408945966924046 0.22155015963579264 -0.7894808798219178 -0.14767388117161662
Ni 3.402103093910215 5.386582909524441 4.963629409408972 -0.6012504173841774 -0.7507654655295909 1.2079644289860871
Ni 7.015890399421191 6.6919658211577016 0.19449795050106675 -0.7620101852054747 0.9116501889645267 0.17815045249391898
Ni 0.18194101931942408 7.252075268470453 3.5584565776088253 -1.2751224148898233 -0.9315009051418667 0.7085255830237733
Ni 3.563271337755599 2.926336861523214 12.443367100178897 0.006945063859265459 -0.7378479861369744 -1.2721242514934479
Ni 7.2589875933332175 3.129942924545976 10.387663717306735 -0.028319672880299615 0.39618231456380804 -0.058474599197125096
P 5.788957326137457 6.700466236593188 6.549508588956109 0.06264672829694372 0.04064836964898161 0.8433395775135863
Ni 3.359426602161215 7.01132808141748 8.302430111524837 1.3749238978601934 -2.584368510936233 -0.8146656066176614
P 9.356148401896245 3.5068436339954134 0.8934726078124878 -1.3191538420784248 0.46992772387707454 1.9040373880688048
Ni 7.308576409944983 6.41136949435803 4.8991125414136345 0.264601482299312 -1.0990404148891588 1.6289442622095496
P 3.213478324613926 7.239774451317589 13.209334394430524 -0.9565640187580816 -0.3183372812598711 -0.9288105027938971
P 2.2731451112776058 6.879819494453364 3.9291811752818107 1.1058394400888634 -1.1756258647543818 -0.6962969021680653
P 3.990522780103136 1.7413275434164404 3.071663672412855 -1.1580724292516507 -0.8918174705093157 -0.9949554740520866
Ni 2.132153879448634 2.1959804329291237 0.7904798853287108 -1.4034541440894022 1.323276605997547 -0.19765278419290475
Ni 3.0119009784499573 0.34722452908244134 1.4995696698197885 0.7276633322944888 -0.19291166996349354 0.3401176103597562
Ni 4.717234862122834 4.956972280603557 7.657649733486071 -1.7202117395669794 0.2857940572165271 -1.2207350983881944
Ni 3.464782183104057 0.47708627530235986 12.518094564382539 -0.5644638446834472 -0.45381256348276683 -0.2997502622863031
Ni 3.141546083412557 3.369303974740678 6.256373690403381 1.2009538019962092 -0.6342093888087013 -0.7491101893143549
Ni 1.0814437814511026 6.929013583350523 9.473556947706035 0.5545854092274707 -1.072631328768011 2.433929922535286
Ni 6.031512916906187 1.9760252987502067 2.478113443901475 0.24408382196193446 0.3479250222193169 -1.0249702752466219
Ni 7.0592002914564205 1.9416197295793631 4.605064261288734 -0.7463742784404308 0.42778117241601166 1.0157114756525154
Ni 6.43915648952349 4.131945458503887 1.4213887970990513 1.0994641326901387 0.9788647391378109 0.571879420421228
Ni 1.1010241120384583 0.4438125649038656 2.9674583096709495 -0.29900618503142695 -0.5937229986588807 -1.0727053765390557
Ni 8.15927889292268 4.804690000193972 3.2267090468246877 1.6170081728935959 -1.6786675975766059 1.0104502272535758
Ni 2.312480187023888 4.862081573954941 9.400441441332273 0.735133929639921 0.6004965699372885 -1.14333486593116
Ni 8.798756150014276 8.352814809365821 8.707428090482844 -1.0104977926620597 2.6326720831376274 0.3837525734408875
Ni 8.353420670509172 2.1618961537585415 2.4159603523366324 0.7981480685786125 1.8219294657234557 0.7119014414745417
Ni 4.622353335188512 8.829003308610309 9.841983862891437 -0.688518286663911 0.08192820223437502 0.6077200842689211
Ni 7.113002596928756 2.4888775768816593 13.24633598680348 0.3838111945929648 -0.10760272418234372 1.0334263764337752
Ni 4.854260457377151 5.561089278237818 0.41902825428370544 -0.7601690182316779 -0.35570749437821314 -0.6135508320180852
Ni 6.206615967048621 8.56440722382365 8.127796144782787 1.043801806130828 1.0604643543881735 -1.4838296571246767
Ni 6.865792891013383 6.764054117502054 2.6612918887076202 0.7720901951492961 1.7072397527873437 -2.241847690451623
Ni 9.211384307492775 1.3452595905228402 5.06915114318052 0.9333081335539345 1.502386851301574 -0.9368135756040319
Ni 5.405750152968603 0.5989919631443782 0.5031722694092932 0.34455919107087757 -0.08920108174670444 0.23517237840491756
Ni 7.96871720391053 4.655023938357944 12.34480450781301 0.5165657354505878 0.5548808289807025 0.2734185663703097
Ni 7.979136179633291 6.761750009214466 7.450623308917671 -1.1838410535753225 -1.775250059389046 -1.2006954061284998
Ni 7.920643040157139 9.271052450398454 3.429597256189722 0.005540213091938846 -0.9161043680811385 -0.6538952972734029
Ni 2.6991022139098044 7.690645298541481 11.011954973043121 0.2185309131934946 0.6860687966821539 1.1569686546645106
P 0.47815387607465687 5.147093343329634 10.629891592275198 0.23455865608031862 -0.5322785182001543 1.2202710142675823
Ni 5.535101507073822 2.8917476980665073 6.679362073433164 0.3109021651380645 0.38296633009416625 -0.24708095691704543
P 0.2679980869037108 3.608940416364176 4.583567206356962 -0.16888162559748335 -1.6099039577486467 0.11556311668000097
Ni 1.207288484696325 8.459446370595417 13.28712604726523 -0.08014617063328777 1.122027105592319 -0.8331096722554618
P 2.2718507715622676 5.285257223156306 6.996961828548651 0.16208645705252084 0.31883967481758635 0.5137478063858184
P 5.763336743545189 4.076738656744695 12.482047662296075 -0.4181526481873121 -0.9554471315448192 -0.3879043908257319
P 1.4217174308707472 1.6013277207311325 12.191452790688269 0.41767108056520325 -0.9204019670152278 -1.0383073586751603
Ni 1.6695972559295218 0.8905543766386854 6.744778553429232 1.0305986771769928 0.18049015637068913 -0.2366466489575989
Ni 4.083228714749974 4.59008663944798 2.7211335282134397 -0.09656420697999499 0.9668276054676188 -0.938497648174674
Ni 8.368631457092974 7.46285986807048 11.8452481278638 1.3080579892755795 -0.33465401614202367 1.1361959408935336
Ni 5.70967213378725 8.948504829278944 2.9240088859784636 -0.6380734997497979 0.19360946736146656 -1.8627133325090373
Ni 4.034603768138993 6.009958947745797 10.45208695221628 0.6664201692132911 0.47117805134440793 -0.6300462585699471
Ni 3.562298288040522 8.704829313366446 3.667955881583609 -0.9835873414244609 0.5272448124309888 -0.025911320549123113
Ni 4.312767470650972 3.0242109753171134 1.0682158131546284 0.5743425372497398 -0.620764319047389 0.9488399106409464
Ni 1.1929405912560826 7.321978792813027 7.345490795032154 0.40694983749295727 -0.23742800720831367 -3.088328127587036
Ni 6.60617221137363 4.492744949083085 8.711337730800311 0.9619653922793112 -0.7163031700866631 -0.6406613150816322
Ni 0.881807026888713 1.4436018697456914 8.738665740251111 -1.1040787486440147 0.3446666631830193 0.21628813990590492
Ni 8.637128920454233 8.429483783142473 5.6583492691455035 -1.2685648162769636 -0.9058731772714333 1.241600628983294
Ni 1.6055412095917025 8.45406705801961 5.106904554154086 0.5244363964479162 0.7578033462129787 0.2686566262052922
Ni 4.335423005526544 7.608128846760076 1.455353739983822 1.2499754833105505 -0.1908085075775617 0.8605520847371307
Ni 8.805108512305159 5.773618023553552 1.3183079493580596 1.3109833904524908 -0.13231642487893988 -0.9356645496012532
Ni -0.04301705914927689 1.1037688466121196 0.5361696704075627 -0.40794176909258134 -0.16400527134178852 -0.5012175351292916
Ni 4.9933973869189 3.1800274457295727 4.286778781515547 0.07708270121661563 1.3280897111154741 1.4153341833564397
Ni 3.891381865736778 7.756867757452492 5.876956821266182 0.17172192325975588 -0.14823052500603506 0.5539416049958846
Ni 1.20577383183795 6.260858898807029 12.74598647953934 -1.1473851247411337 -0.5461976993844077 -0.6417321795483077
Ni 2.416321115108355 8.805539958876937 8.76352073467133 -2.1066066357267204 2.408444633779988 1.72875037316561
Ni 7.835850019231024 4.380623918706169 6.512009456068463 -1.622109498675903 -0.967911839670733 -0.029519092505039483
Ni 7.984754164780718 6.155650193292878 9.914588977150494 -0.2854693268872568 0.20693986592178557 -0.8544536851488768
Ni 6.927801861063823 8.449422122587261 10.442587783865696 -0.38621260494560583 0.8705315645473458 -1.3865967062124314
Ni 4.172051630250796 1.2309537881441464 5.339794823743526 0.7894037467270792 -0.8414829839208218 0.4720923356285612
Ni 4.8366721247914155 6.726775297757445 3.7579996990854245 -0.3741862699086911 0.512143438013176 0.022484297145445146
Ni 9.078443685098923 4.324067698945879 8.532592170026344 -0.6404569123803099 0.6203963941850089 1.021891122100666
P 6.866756761014168 8.970490245011112 12.550514561351768 0.6138750481267234 0.9463109735715057 0.3391382771656224
Ni 3.043231343332585 5.041251237529255 12.230952183320397 0.7926271387603833 1.0531721916021346 -1.0251931898907052
P 6.123007129266325 5.00208139664025 3.592663864950936 -1.4988852659062186 -1.480628890799192 0.3357544482950541
Ni 0.9316675630435565 3.4445959913733515 6.745262324372483 -0.09019738422170273 -1.2987225708072665 -0.4821587187256277
P 8.809496415737298 8.22255466354558 1.649468896398863 0.24908333205905492 -0.3685964345257394 -0.7286634914242289
P 7.867116126113599 1.1253411752010956 9.253510934355614 -0.417732529930758 0.33096062645083646 0.13219069793435298
P 6.2663667273829375 0.8736710461106664 6.476539958011041 -1.6622392768172531 -0.7524348828122137 -0.7004479482219614
Ni 8.02625565310019 1.8516218106490137 6.961734674948567 0.5696870407555996 0.5898097796474036 1.7653253440761663
