# total energy = -340859.8221475431 ev
CRYSTAL
PRIMVEC
9.34649448420615 0.00000000000000 0.00000000000000
0.00000000000000 9.34649448420615 0.00000000000000
0.00000000000000 0.00000000000000 13.67953943577474
PRIMCOORD
 96 1
Ni 5.574679285244447 5.360083770496737 11.80096906531544 -0.6064571583960975 -0.8442852292563073 0.25786724889927204
Ni 0.32341768538181515 0.8185772080236114 9.30196410615182 0.6702048330667039 -0.8394469273273993 -0.3443488748322844
Ni 5.313257832827484 4.0910354341981945 6.027615084130832 0.7169747422323909 -1.0259544935367622 0.018578020112503486
Ni 2.383963631059433 5.835119355734208 13.477492785684106 0.08094629793707994 0.561729990692052 -0.7310055092938443
Ni 3.5082254203650853 2.0059072732184005 6.33023401520219 1.548494958513546 0.07025359410992417 -1.0294262541354464
Ni 2.1863693898886436 8.489561192424476 5.573222166744919 1.0137708069863767 1.6501895447415709 -1.2949034541714926
Ni 2.930555978531594 0.9329455885205779 3.5807430022389757 -0.05374351227004292 -0.25041953437197517 0.6566911148509851
Ni 4.815837393155311 2.154740852349173 9.923986403198018 -0.004158245142747678 -0.9854346790458448 -0.9833330593218097
Ni 4.847222921836618 5.1085041768354085 3.6710824799108166 0.7166240437611916 -1.9614696620443444 2.2587478086410715
Ni 0.1811546919160098 8.639049026173383 12.810902664050671 -1.7230448381404002 0.9811856739615038 0.6722439749839196
Ni 5.138216682993203 0.176437516119269 8.596414056658 1.3173738673598667 -0.8141819821130237 -0.7633379028779628
Ni 0.7927621900909818 3.0217216863211918 9.917584054434856 0.6483856803090834 0.9485018105752376 1.1180244121908294
Ni 2.2616927894248717 4.706128240188908 9.130586782179083 0.04396534983735654 -0.19417690982916236 4.447085700100012
Ni 4.934154667597439 6.3127345734660345 5.527915969088644 -1.2515389711429283 0.1357989841109016 0.19643356707382298
Ni 8.609682340313743 9.175023755842695 1.8517031983222088 0.6356335228497375 1.8524165785687192 0.12249866745756967
Ni 1.1916219754897432 1.5111412379969387 6.266035748122591 -1.6095288337974152 -0.5679163220084219 -1.194497504847904
Ni 2.126364894911279 2.636421795207969 1.1774966182842463 0.9779255151529933 -0.8845430483350896 -1.047374353973435
Ni 0.49947853777093026 7.334979374815621 1.1894797589400843 1.531059793756234 -1.2218028775310765 -0.39943501717315083
Ni 1.8794585485223305 6.882020209692874 9.14308958793161 -2.1499325522078654 1.8982251522624018 -0.2300196305593845
Ni 2.7300736705464734 4.349269731975393 2.5946121211608904 -0.5111623050468294 1.4974698736159306 1.5317884443921426
Ni 0.6088932761591735 7.729887462320858 3.715048390249372 1.3210001512585443 0.6029596867658004 -0.43800876368129077
Ni 7.544453010552802 7.264076867199066 8.13683663874811 0.16797891127755588 0.20389670822008754 1.2657196335186847
Ni 7.675752565917603 5.634861363618162 10.96168843722573 0.10001308476054388 0.40560515053960466 -1.4508552590811852
Ni 7.199604747829304 1.1921921116569738 11.40274390689627 0.2137728296832189 -0.9738634292684777 1.2402330592118058
P 5.511403517176415 8.363037695772048 10.655307542100106 0.18112419041026226 -0.029384366699388105 0.3919564494079185
P 2.221035538155162 8.070118556739244 13.203929302204045 1.062398595296409 -0.6557999704952835 4.424684706696992
P 7.563033841707786 4.034769537038734 2.866164239014919 -0.44751336073761644 -0.7443222810074085 0.6216207535104132
P 7.434949480466383 0.26293464988375853 9.321867466284887 0.10088957382822623 -0.25563296025211457 -0.6235331400417777
P 7.790518172432721 7.847064464428525 0.5231139531757215 -1.6903491476795922 -1.220572090447769 -1.230353852424881
P 4.640964480222835 8.738168600820572 3.7271137800572034 -1.6626861345466848 -0.1539301464939736 -1.5328503099977535
P 8.503889368561595 1.6274209766283088 13.31385809779225 -1.4591789484555322 -0.3710340974329545 0.9891216409791287
P 2.6088122503227456 1.6529369067355062 9.84368692996616 -1.1130084470334765 0.9032995030069862 -0.5333866636626685
Ni 0.8041845410741342 5.489813114778018 11.288875563857449 1.156973539760517 -0.06338180669075535 -1.0234075587451923
Ni 8.235280461839713 5.497888486064691 6.843928571175701 0.6242054835184541 0.8699147568989534 0.2700905304383413
Ni 8.394843816707871 0.15456765353398302 7.023869153450347 -1.1439645290953588 -0.30182231432398343 0.9790686276185009
Ni 4.579763633943741 2.5617246108062406 2.815454832862318 -1.0675600848926905 0.2832098414291187 -0.8840627662645614
Ni 7.060388711585091 6.602588062288159 2.750654651534037 -0.9250425511110327 0.10665347289519696 -0.3896745953522773
Ni 1.7015293318737177 0.02151376114313059 1.6857842271636136 -0.2622422380385161 0.4084297644725933 0.17027927727595835
Ni 6.326062674686864 1.659152325607772 6.873175621905168 0.040086069387608385 0.49781519431596205 0.2624947203689544
Ni 5.833390254243428 9.31512770906866 13.347605485645019 1.04857608759102 0.6339962443566308 0.9839079579886731
Ni 2.5358441674117973 0.8414686424626397 13.204927507821425 0.39408635126672775 0.8992021930091612 -0.7420566249016833
Ni 3.9882613801840034 6.794443555808465 9.990933474323231 1.3101999753192468 -0.6005405358013464 0.0915577549043391
Ni 3.634216166828462 4.582745165703519 7.488603967050037 1.6903041533742695 0.6126763998329319 -1.250958158938794
Ni 4.009431190327887 4.285863112983735 0.6187743901918946 1.09296027013335 -0.14015109043201024 0.46673981306739615
Ni 6.190622622238734 6.110887677277378 0.2760842330587826 0.17054667200473209 2.203911577527482 0.5746770377710232
Ni 8.70875518248821 6.056995789732287 13.04108813169904 0.2425735559649951 1.7567658845419292 -2.8656248281834067
Ni 0.2820267342903416 3.444080428304391 2.31879145924827 -0.5953726184471617 0.6942968410189011 -0.11881890461313731
Ni 0.594572577217691 1.5833148688715821 11.879586169529244 1.0468097397192164 -0.11331391563450807 -1.0229360184254126
Ni 6.539162750307411 9.177379072467975 2.6948009347840007 -1.4518993840749834 -0.46725017704491145 -0.46626081654844864
Ni 4.720297525918765 4.372533156897303 9.746070271641768 -0.14775255692835199 1.7668811185990603 0.44722051208754593
Ni 7.28108748727053 7.8435782219633285 11.90724618548501 -0.787521956323334 0.03308032749373658 0.38123340656345955
Ni 2.39777774999659 5.969213512967892 5.132973299553592 0.08041022292795183 -0.3101814849219561 -1.1388068961538194
Ni 1.9760545696424343 2.8968525192031866 7.893381952794542 0.36393785270780543 -1.0615056511684946 0.3704877380111813
Ni 6.663302890850925 1.9558007159639375 1.4218513716624748 0.5267339342328412 -0.8144684030051909 0.029585426966600662
Ni 6.388768306587664 3.8550271004484378 0.20421342860738936 0.29486182384575027 -0.2416549008054677 -1.0442923726140017
Ni 1.3367169568026114 2.947959151373939 4.27339208531266 1.0671417664083493 -0.49026206455905247 0.5382954138181956
P 0.622575609523249 8.400012428191124 7.9779621205279 1.2459043985649705 -0.20746514229763627 1.0476530615561184
P 1.1254955265855602 5.978391770610848 2.765045449184605 0.9069684672181413 -1.975707402910281 -0.5107974655082429
P 4.784489250452182 5.9010775677365865 1.9265583384817442 -0.5843490136431485 1.9860247256758894 -3.178850499248325
P 5.25621617662081 6.505094777691758 7.936061785483738 -0.3948682237380748 -1.6748505378233607 1.1583202835963986
P 6.17121929956381 3.100391130904444 11.813322327155253 1.6331780977852388 2.6563282891039863 -0.7820617045397112
P 8.31527710864832 1.78840499866727 5.694600418150455 -0.754976418287145 0.8863788159922477 -0.4100379894999777
P 4.537424013655974 1.8946839881357462 0.7201268423858271 -0.523374530842305 -0.5919373675133676 -0.8417424082297955
P 3.1405904039414607 4.9779336480450995 11.208070445270717 -0.07464349564750371 1.949881185875797 -0.6860867944042829
Ni 8.54616356338755 3.7016791644525457 11.838998082319165 -0.2820772704865723 -1.275419891525584 1.0606263338873345
Ni 8.923145074355935 3.0733704151755408 7.597602786431039 0.007832865780857479 0.07725187980462823 -0.9468771304876209
Ni 8.717522194371195 5.633580893865529 4.205350539676256 1.5732708799066453 -1.4043434886728912 -0.03831226531663725
Ni 8.39500270711513 8.989897738394616 4.608391012084889 -0.6544689103886858 2.857978110271427 0.3736239696473178
Ni 3.3170054884738223 7.360392493482825 7.208132489451945 0.6758540609326812 -1.313331578969693 1.0444463816933625
Ni 2.467409134355058 0.31038493338860057 7.847582260226305 0.38287531304225675 -0.2026049859918575 1.2122257753656025
Ni 3.1047372508677578 3.340381071330269 12.436124121846484 -1.1533811944235683 -0.9372735459595858 0.14413347211852595
Ni 7.034816702510626 4.6049430902473265 8.809062696592038 -0.20669509690083113 -0.0378486954166574 -0.41018119994606134
Ni 6.123561523880074 7.809547635325855 6.545700623241471 0.5627242362845212 2.8204924546211423 -0.4017916903307854
Ni 3.789928765944178 8.645563532871082 0.8434052361323142 1.3185275213483356 -0.11471490974709275 0.9188747317374238
Ni 3.540517559017234 9.155844749036845 10.245715177015596 -0.2018853342170136 0.2819913956409853 0.606160453091285
Ni 1.8197998738431218 8.037891843548907 11.360091179041254 -0.5033749477919266 -0.702016835370978 -4.467029233101474
Ni 2.975867784084595 7.4967111164181635 2.8621975867301224 0.7137873456433449 -0.7672506076688077 0.4855731437238153
Ni 7.976186286564396 2.4498470711054527 9.628576423369033 -1.8199044648736271 0.5314105137729042 -0.014274507641143158
Ni 8.442669829293411 5.202520565461158 1.1945586440757074 -0.5427629626712458 -1.3965003384793884 2.855361755694502
Ni 4.76681502926804 1.7068568337642316 12.058253759246893 -1.8491631046284283 -2.2702938616074575 2.2143962791088896
Ni 7.6224588540233755 3.9433140879182487 5.484113622404622 0.17459204571869932 -2.12976070524568 -1.3606110807819471
Ni 1.5189642539309036 5.374552144052027 7.204438754807854 -1.3275790900276425 1.922938595848682 0.3021614428309571
Ni 8.752702399837675 7.801229255181017 10.044270180092365 1.4714860479576592 0.28322783915124766 0.258580987136845
Ni 4.608373253745254 7.528601355804887 12.449529798972035 -1.0484878987525879 -0.42082351015125585 -0.27556955127504157
Ni 0.3061313437212799 7.472307419161792 6.1259168405053535 -1.1642286786610336 -1.47707794022314 -0.11372837746410736
Ni 6.104410556557859 2.526245317514328 4.396276056989358 0.32640257476650886 0.2621867022102323 0.08846857445605409
Ni 8.058659754427365 1.6740132519339417 3.3714319955068737 -0.04739031635850548 1.5124732890032984 0.43577396081350117
Ni 6.099774695263657 0.1984279484841824 4.941501012309621 -0.43568705752664966 0.40601755548667495 1.1967076251253455
P 9.1460215832703 5.636758702010748 8.920236445253604 -0.08816852671713202 0.04779192267229834 1.1456036073606786
P 0.5656638695907454 4.280292602235058 5.829768487607333 -1.0671697914328073 -0.8232718602294339 -1.4071148807704412
P 0.9405097065556528 4.271254542010274 0.06789200172368855 -0.8607703713955239 -0.7264047772970393 0.11319153112403085
P 7.523769218125246 7.2121197040247385 4.910927694004254 -1.3254864691646722 -1.6244512594352023 0.7176668832034092
P 5.304715136813574 3.2084459543364248 8.074567488142549 0.7746358443892852 -0.29442833585275746 -1.0077881070403802
P 4.277965325093412 9.197922667477359 6.513499145586406 0.18475381674304955 0.8734201989490508 -0.29547400350845243
P 0.6160629721244595 0.8016535103514129 3.4963806078285096 2.27821208801327 -0.15372548668233524 -0.5695021784383031
P 3.6406745945588916 3.610915355928373 4.717157103751726 -0.8553988226709656 -0.7139539531281962 -0.6670827424979543
