# total energy = -340864.98066454945 ev
CRYSTAL
PRIMVEC
9.37617574130085 0.00000000000000 0.00000000000000

0.00000000000000 9.37617574130085 0.00000000000000

0.00000000000000 0.00000000000000 13.72298095576552

PRIMCOORD
 96 1
Ni 6.100149198894828 8.96100788734872 13.638254935760344 -0.5433031514454321 0.01051015550270448 -0.05112458658995711
Ni 8.891792959326411 2.646144268010806 1.8054913687158585 -0.6213405032658332 0.05124825665201496 1.5082726206583894
Ni 0.5259312526558803 6.657572212421546 6.823765861932276 0.029139854788749812 0.6459950685897197 -0.9886958662956199
Ni 6.29203263183665 5.965779226869944 9.081250775649517 -1.1238371622178644 -0.05915079932854329 0.42596211692940184
Ni 1.815574507918675 9.274115894173015 12.664925401747588 0.16546591504771502 0.4064001356370743 0.9331795783958703
Ni 6.497155224676535 4.994773109162243 0.7449521505360617 0.7336771425887364 -0.9941481476594428 0.8174624526365083
Ni 4.170513515225492 4.159712160974382 1.7101581660391287 -0.523506428434479 0.14433478949605466 -1.9695858633935759
Ni 9.310111032167818 0.8649737610935201 8.182258374370337 -0.569794255757425 -1.6659267529711697 0.1787045252251761
Ni 0.5299639457664729 9.49093995411827 10.510733126144377 -0.06607400881093783 -1.3805582133278353 -1.0750738767712325
Ni 6.7082598175270185 4.827624027361419 5.053295446569996 -0.8716157987504601 -1.1165406285564514 0.6282598560934858
Ni 7.3606916180559105 4.1683288663188005 10.619926191541584 -1.4686691473341544 0.5543774069817227 -2.822351619317068
Ni 7.789717283392776 3.556899081536529 12.5540024319586 0.3039434744320443 -0.6946570525717972 3.2470148149293885
Ni 1.2799698549321774 9.018999533219482 5.0908282773574935 0.08995827162770315 -0.7294823877810985 -0.8725740488986714
Ni 7.6166612109858765 5.3537306145003685 7.497358753094269 1.7968601814596539 -1.3731902029985383 -1.8608066024046275
Ni 8.140133092791006 7.54840265287122 8.240539744066064 0.21905284713523562 0.9850330727320519 0.5260261095325393
Ni 5.618888859484231 8.080735020585461 10.312573281279208 -0.5833257145849567 0.19206526280279826 -0.1744272380060609
Ni 2.1780293267426196 6.639804359725492 1.4190794837052705 -0.5862068927874936 -0.8540459081874968 -2.1752759160686597
Ni 1.4883647330443175 9.859611177341943 2.387373073821958 -0.6791939239391915 -2.4099569566594563 -1.0936382700369809
Ni 6.850899576400409 0.20537387434503257 8.917302720186651 -0.5432270467918581 1.8167749181057098 -2.1359871457713666
Ni 6.322842744743897 0.7738420226875566 4.844514270024571 -2.331776137282655 -2.4945925305226653 1.1242752781965477
Ni 7.495642912965837 2.4339426626191942 4.325304797631382 2.4472289536370373 0.4919242827528238 0.5261880890317003
Ni 3.6880811538692453 8.467811676443622 1.0084836290593617 -0.4838957560213924 -0.2533007125745122 -0.40950525692495926
Ni 3.694766367047233 4.158118211128298 7.6983455148923445 0.7608822422486187 0.643820172425588 0.5235118277511178
Ni 3.3665439652118345 8.87628476494157 10.835816384400546 -0.08428616094359033 1.218542718722566 -0.8094071864321994
P 0.7872237004542104 8.209826205767138 0.6085981797615809 -0.44258147065363773 -0.3655792449659704 0.909995169859607
P 4.331671220840153 8.995802874871176 3.5101054021432843 -0.12074003289525012 -0.6354052088890153 0.5074416616621326
P 7.097127322918133 8.899828341785787 6.667927260715754 1.083710726510624 0.269997970724535 -1.3812480403060083
P 2.3523418066752573 7.032544225625034 10.867585680068114 -2.0695174441839064 -0.35539150579969114 0.17666821152143766
P 4.4514612398611515 4.285952988784238 9.722265207192663 1.497882278563001 -2.1920518499754187 0.8295162984772488
P 8.607516692365104 5.83824448683209 9.697207377994665 -0.5654148957428068 -0.8484591581283387 -0.09336601175767147
P 8.38201967002204 2.267562427214717 9.660718115547576 -0.9914274062941699 0.09520923561399731 1.0386634564629984
P 7.6975963584646845 8.483769927255592 10.42932823226975 1.6484928737654385 -0.5926801592166632 2.1227009701854214
Ni 9.021849890591303 3.9925349506468617 4.218581416878047 1.9035915587806376 1.2634444643312628 -0.1149794762623891
Ni 4.644994879702449 1.7942249561567138 7.567262830020619 -1.6233847658439007 -1.478543726135389 0.28117892704201897
Ni 3.7120747871405926 8.541836582530877 5.821206100595009 -0.43514918274530867 0.9226347130004884 -1.2302852039704746
Ni 3.0994354757104103 7.630256665555416 7.935409925030197 -0.9433567760391882 1.0774302928185506 1.0867045190316251
Ni 5.492010451735941 6.012894509085074 11.240012999223206 -0.3512245189061951 -1.803096906397985 1.7906491675529357
Ni 0.3198485394381186 4.254580305343077 11.063206456590224 -0.3667154154529426 2.000806254860438 1.158852759061101
Ni -0.09309604718687298 5.140450748918759 1.8195162521262849 -0.14849432019038297 -2.80043733574248 -1.8775223724974117
Ni 2.18459264963826 2.1991444741154504 11.705661068700188 4.112397745396259 -0.059411509189097676 0.18347315025841304
Ni 3.7385156022344574 7.279672084997015 12.459464328969798 0.4851028889556161 -0.7762242719223277 1.9692963571776148
Ni 6.244598559652302 2.855945572457726 8.771633518988144 0.21828717261380468 0.850079210230265 1.0864659206582579
Ni 8.027881518924428 1.272272014793148 13.756465069198606 -1.5814989242433923 0.20573093321534894 -0.02226832447989713
Ni 1.4296886263572945 3.5957820816054147 13.463396762409811 -1.2649151353395183 1.8150689911581968 -0.7770377689625586
Ni 8.39436809324141 6.317863995518777 4.86291688980639 1.877784882130179 -1.2391069160271628 2.1251651154551983
Ni 5.610797219971463 2.7639090331097202 3.1874646376218494 -0.7261497238634397 -0.06253874196416973 -0.9548146401671427
Ni 7.989326685000324 7.013979398005936 0.43633064371971386 -0.1630007413366741 0.0035992873154841237 0.8376623246231508
Ni 6.811472758148742 1.2291041024909664 11.22419070295693 0.3059772170326215 0.3551256537328142 0.3118151638706372
Ni 1.605407532624712 5.4694701256772005 8.462193472044953 -0.022492010454929007 -0.6862186919964569 1.7771886711726552
Ni 7.982407067433207 8.364214312623725 4.335309176959451 -0.070939050212723 2.445078225842621 0.33171421678740937
Ni 3.9733700477915925 1.2209562059248074 1.463816967797067 1.3229976413045474 1.1407704476380933 -0.4977712284519041
Ni 0.49197730808162066 1.6615333195580004 5.945165704889851 -0.5914231468811105 0.7037567008802202 -1.5181713678293403
Ni 5.687897511644104 7.466876806331803 4.569945157625917 -0.7590130502503638 -0.11720065228342395 1.9623286676105303
Ni 4.723023412756046 6.621736469411351 1.8522456681717294 0.06937479104939664 -1.020749809407371 -0.3218054423141296
Ni 4.292385045221965 1.558114103073842 10.183659305815715 0.5627556037430889 1.8363489835828952 -0.6714744438077468
Ni 6.055677998189084 8.420940174793186 2.4766277018797687 0.7484722986200399 1.786196016877588 -1.4410750397659697
P 1.0159555033672698 8.19751528725003 8.521299007572862 -0.9677516599437851 -1.08603011867242 -0.4330269941959833
P 6.353896638215842 2.577407524942323 6.41143166433658 1.6424132432302618 -0.02990270109670334 -0.37715666539092463
P 0.3529051840107884 4.318816484140265 7.02538364034589 -0.1528528542693948 0.013938464457963092 -0.5531430203539892
P 9.087473743372138 5.210340761581762 13.33489440105363 -0.435459772007192 -0.7758751161130251 0.05306602658704408
P 5.086828400861379 5.7803841074192395 6.368424084636562 0.7202351581512177 0.2904737220803836 -0.3311524307466684
P 3.4718571691601627 3.5168065548197327 3.6451532716615325 -0.40680868392940267 -0.722761267007181 0.159975324246789
P 4.5484296475564525 9.359514101220858 8.761217525552762 -1.0982441442401085 -1.107986054118221 0.1557826263216801
P 6.40841909912748 1.2299760868185299 1.6478553546434862 0.21888546831943592 -0.8604906353715761 0.2867001139705643
Ni 9.49431537732174 1.8490568308620048 11.900102322336197 -3.1722972715108395 0.17223460123011627 -0.0013187188114235353
Ni 3.8168816776084005 6.211697559594015 9.657918389523807 0.05565846990456866 1.5691622570549104 -1.4815079509700355
Ni 1.862511642798067 2.73226444057717 7.56339328236486 0.1177513825805714 0.23408300199548074 -0.7110141537735819
Ni 2.0938875272205126 0.558789122306568 8.633126778303893 3.346929940659488 0.977792846229871 0.49531068272655343
Ni 2.2384400259092048 5.192947955908315 3.34350857708325 -0.5915786986223683 -0.16847179175357438 -1.66061305406774
Ni 7.1037375266915985 6.403721635169315 3.040765932346283 -0.6503088654737252 -0.0894039417861299 -1.6769634704013057
Ni 8.253659826534449 2.6495103150387127 7.465850115107413 -0.5114564392484804 2.0072790070689757 -0.7600977986741103
Ni 2.6685158229093737 4.805186839233895 11.254244158496068 -0.2657757051130713 -0.1188934666048146 0.10835271497449082
Ni 2.8798548201489864 5.959872236263867 6.395539984371121 0.33476637335017184 0.29507111164307886 -1.5086464590580406
Ni 8.383032296983082 8.997171796503697 2.0170722712850537 0.3616801670218803 0.6186734979566312 -0.7235379972722055
Ni 5.774589630919945 2.6859273809339506 0.18093205988166863 -0.21843963903126898 -0.32384792666545514 -0.45676676101508434
Ni 1.9561327558165913 2.581111114290577 1.811680582206447 1.1308387903466783 2.104753641678382 0.5494156921010732
Ni 2.708805249313039 7.537957593291585 3.4088436436566787 0.7955070314113396 1.1721343066613554 0.5413485988222224
Ni 3.1701974727009765 1.4034353347747341 3.6160880650269687 0.47660899255199213 0.30456619561770776 1.9850304800834198
Ni 0.07051821642587085 6.930709582811394 2.852280425429289 1.4560182913393633 3.1073789735708996 0.9564539755427787
Ni 4.7364782246921076 5.222332890129652 3.820491505201003 0.21065999508585012 0.6918905455702535 0.795793709413823
Ni 8.600643955675812 8.672193551413857 12.511488976710867 -0.4353954944281598 0.8910461395609299 -0.7302640031421295
Ni 1.1526976478101498 2.726329321444398 9.767688089718275 -0.002500654934666661 -1.3856207154524072 -1.344629103531394
Ni 5.413616247835303 7.857610170660392 7.38793128330793 0.6983141897084102 -1.0082581046982637 0.22828156482235523
Ni 0.8067383346580617 6.8781561187684455 12.489860952534622 0.8343677130322792 -0.2967878372238695 -0.3362604413971951
Ni 1.8751319751088267 4.022641850386719 5.316707847663619 -0.023518137726598207 -0.972276544397332 1.215315212924204
Ni 7.729850402408974 6.420814403224675 11.797083468548673 0.662497180009801 -0.11095827091813795 -0.6020109496992858
Ni 4.490859929586122 3.053754748356755 5.706632985658488 -1.707400446734924 0.9216371249739095 -2.6903874355712247
Ni 4.630958744881345 3.525648288377717 11.912617641480626 0.2950155758147951 -0.4121074704344967 -0.23286815575177314
P 9.222781332953543 0.9885020613123635 3.6255430004669167 -0.6963097576838718 -0.05760788032145563 1.5785938347814554
P 0.7447702527300968 1.6331703884732698 0.26024419137014076 0.859404601396249 -1.1613611273052515 0.032533453851331065
P 1.3159462405758509 6.507844064820864 4.700464334346174 -1.0678161667675548 0.5575555475993881 1.4645111593017228
P 2.7189033903967594 1.4331578113164185 5.8091023955578915 -0.27557495059168025 -0.43236210691847476 1.1728863543360317
P 7.381656746619698 4.335290424608321 2.8378851830840373 -0.5467823682432841 -1.2284833748750457 -0.1983878625867164
P 3.275838842794087 4.692419575711232 13.372371912405292 0.8234248408675303 0.09956057060415757 0.6091922979390734
P 4.383793380807102 1.183714036579832 12.284894941826673 0.1156001405655235 -0.04072678829540083 0.8115530291306087
P 5.750989797022337 6.620639456870222 13.361434603608485 0.004147703619786405 1.487324814762129 0.023591157056378726
