# total energy = -340872.1046328732 ev
CRYSTAL
PRIMVEC
9.25156480889870 0.00000000000000 0.00000000000000
0.00000000000000 9.25156480889870 0.00000000000000
0.00000000000000 0.00000000000000 13.54060026032237
PRIMCOORD
 96 1
Ni 7.127618397415932 1.2661321681683373 3.1446827778409188 -2.591895672551214 -0.5644946979213826 1.5815624304914762
Ni 5.36221627698118 4.376869104018819 13.695911234068577 -0.3150886924155864 0.36745409339118 -1.808661802080272
Ni 8.080039250841619 1.464023141725366 12.32583218312804 -0.8772909947583666 0.2810184902047547 0.6429341702762089
Ni 5.245165477661708 2.631071049641446 9.417216961470755 1.4067117317947515 -0.3008622644035593 -1.1041857065355243
Ni 7.135472976029766 7.484812067264615 3.0482324381202974 1.373023595513687 -0.5636668027034486 0.31711729280984097
Ni 1.7627746759985579 8.584101513734613 10.19471847702628 0.5399607173357603 -0.3930028883945618 -0.10651489043480364
Ni 5.7390140128872424 4.946238163655107 10.983186797633444 -1.0842619710284036 1.6179875060877296 -0.06633317600959544
Ni 8.697211146399795 6.3979659756068745 5.941155155366763 -0.8847955306655277 0.8003887849836732 -0.07739046226502155
Ni 9.120488744444732 1.4420044172248645 2.169014592093862 1.9502665942396733 -1.593560997614249 -0.2003827815295581
Ni 5.023266693147199 6.6416244408042315 3.784056578884937 -0.6399989989072848 -0.5937913900029709 0.5962820176353085
Ni 8.057789237218213 3.5421281563269047 2.7098259211468956 -1.5125869317630272 -0.38625528525808317 0.8134425328438378
Ni 1.2724139807464214 4.663741628939639 5.388441688049068 1.00865482591605 0.2417222637082934 0.12929794976759024
Ni 6.177704718082529 5.0147367502944835 2.286249497555167 2.0868389661814897 0.5304756606634606 0.8680522497689178
Ni 1.3440766025871294 7.298282015424651 12.401199131561187 0.7799510859546116 -0.5063258028901344 -0.01597246416885636
Ni 3.3073696965789106 4.12372778478238 9.561315635979165 -0.7823134155392011 0.9402637389361613 -1.740623727564428
Ni 3.1834912423512987 5.3498561862531675 12.53537365238401 1.7572477092743544 0.954405320543866 -1.203092959826399
Ni 9.397184547957758 2.5612032313944764 6.919274080660116 -0.9958378766570398 -2.203743941601366 -1.4537099549211607
Ni 5.87166295065539 4.047208091360679 5.761904234802848 -0.47072630851896996 0.4286563759321133 0.22284085342275817
Ni 8.68439772899089 6.459766429246938 1.1736868308999286 1.2515754808078188 -2.0622538206429577 0.6344616140288235
Ni 5.104412169026988 6.544307229450965 6.448359249705291 -1.0011744583786049 0.3183424234661937 -0.6594586502937932
Ni 2.790484764712094 -0.20330406418948405 7.440072424486473 1.6659558064368925 1.565895927598813 1.4036801440572793
Ni 3.017203614547931 1.609642773505994 9.515169755333766 0.16897855618666383 -0.41740754249117146 0.4528165181180847
Ni 7.653708636374345 4.51292261767612 9.641042846957305 -0.4049397490414639 0.4656992876180238 -0.1899430742534729
Ni 0.9861243044153202 7.600364113067667 7.735216773598848 -0.4435124671083394 -1.1794172134760141 -0.2806680488438715
P 5.538976676269661 2.734660822007881 3.9854455691367723 0.23517957749376917 0.015162823783367434 0.41254790040602496
P 0.37783298602018234 -0.09674361432846423 12.505895391091597 -0.3868566662875079 0.913752322909194 -0.3938462102314637
P 0.43170022274462366 7.952302894043961 2.7050197331729415 -0.8352244046056196 -1.1235535695391747 -1.4661353251687073
P 6.904701940760644 5.567712036899307 4.51669725616192 0.6722285483649519 0.6356448357036473 -0.5869319438789763
P 0.1458388938691414 5.891849865302488 8.786157541816905 -0.1986406020274708 -0.5998008294218444 -0.2619668728899424
P 2.797108885192077 7.227276254692992 6.328700434235947 0.31533628965001825 -0.6514936298104458 -0.032398470935363556
P 3.73240509195792 4.261973919324815 7.01217552007889 2.4980699475483044 1.7149713171036463 0.4314241684852376
P 6.4539564464795784 3.077653339710232 11.328038879883946 1.8335891614495712 -1.7701225083544931 0.012183943660701597
Ni 3.7186942727521455 1.6172568114320076 3.3760375868562518 -1.6641349511780696 -1.0581717016992551 3.0510088223112874
Ni 9.328445420630562 5.642279650123694 3.6378587242970477 -1.564148348780087 -0.7426922016031532 -1.796626725292609
Ni 6.657888691926871 0.7348814062996811 10.499679661671212 -0.9432732151864465 -0.4848928298273391 0.2644762695753574
Ni 8.667245327636298 8.864118629052546 8.93347853638562 0.07212998519703061 0.4936854884183046 0.3540591601415128
Ni 3.8301571268622476 8.824373906172651 4.9132748378587685 -1.171826802723266 -1.41326675930445 -0.4895077028915312
Ni 0.8124400504614689 1.4886970653568103 10.772874673019954 0.10503367790358685 0.29046112367489335 0.4721334732791417
Ni 4.803486516998495 1.000269947172155 6.416105518938022 -1.1189890900969437 0.6782086772077869 1.391794191252971
Ni 1.6202265637701008 0.26340130472847906 3.633078440704859 0.49023223976238156 1.2934284122878628 -1.1157996366253686
Ni 6.850247229664026 1.7508679119514379 5.8315981236293934 1.4392667829126373 0.8604299573369697 -1.6416190294637405
Ni 0.6307078601870351 3.6423781137586 8.900791832380273 0.7168855249526944 1.3522668225823098 1.7353483380981016
Ni 4.0240606759404045 0.24719811393428642 1.2173162858881283 0.022684071861077064 0.8508556833849734 -0.47498019869931746
Ni 4.327743294313918 9.166395009558801 11.03461439668949 -0.5115867941787576 0.16317326235879642 -0.8905823125506339
Ni 4.872447681883679 2.588458341637534 1.8770389039652784 2.6052903486905645 1.7626372557210417 -1.9887097287072202
Ni 3.48282562521421 7.329219248504348 0.34338663436778 0.5779752489063207 0.06988309814438286 -0.857813088539413
Ni 2.3151578624487454 2.830414518890315 7.420546996730882 1.375679030858663 -0.8420851362811949 -1.1514459250740685
Ni 5.939606443399795 9.22680772846144 12.870868701878292 0.2101987391787154 1.5704796903147535 1.461850067529792
Ni 7.0359353890966165 6.539357642220809 7.924013458843275 1.672017953470572 1.4424328393454446 -0.18548041049642894
Ni 1.473792794276849 8.918545585454417 0.8832654056772629 -0.20266360714393483 -0.22663400191660324 0.4846303201945718
Ni 3.050462990421588 7.69127924149894 2.774969890347665 0.3795439346761786 0.3161392451672878 0.05435389216053219
Ni 5.37255027499255 7.247213377087354 9.60781400124787 1.4029828608799386 0.909065458956486 0.7997768624312871
Ni 8.126833666187643 8.5503518049204 0.8799579712197296 -0.3458123467516883 2.612947093904874 0.00917601007231323
Ni 1.8744318129718998 6.236609431903829 1.3778235359318687 -1.4276703363242897 -0.8584682056249086 -0.08478829739098946
Ni 5.667601183299271 7.670157918795307 1.151547836055517 0.30654594505189786 -1.4296040630118927 -1.2862843450439136
Ni 7.684932667966443 8.148806132863564 12.024323682509827 0.7467239484703656 0.2981682625111639 -0.8164612650655035
P 1.0624959727983625 1.4940907277029416 8.592337256822995 -1.0172741921539448 -2.184232096820683 0.6198389790196422
P 2.0009377116357054 3.502309420927679 11.677873854998301 -0.6469574325029891 -0.5494791983491568 -0.4928748195915512
P 3.3160846707299494 7.075957658924 11.020342932649793 0.0026148119150277553 -0.1069856594236351 -0.22756139882687904
P 7.711586426489949 7.137804370388643 10.015481433809741 -1.1553419176943651 0.1569195681396007 0.28685052350549956
P 4.518177506548509 1.4521256292431621 12.6905890072957 -0.7935254822049366 0.287987208213104 1.0067498955838532
P 8.944542482868874 1.5646339101887923 4.726725357732481 -0.2511450996840901 1.5736115510755158 0.33653194989102686
P 2.272091827763941 1.535685763566074 1.7603183855133129 -0.6990587811839187 1.1296362853981448 -0.4327097200658806
P 4.653305863714191 0.3867635216337681 8.652078312112717 0.8467074655445547 -0.21797041270433426 0.5536945219820851
Ni 1.0384881618408828 4.916642407488257 13.002605435345703 -1.536276047849851 -0.5773643547951992 1.8342859304062797
Ni 8.43868541638214 3.8332286464144185 5.183409431533242 -1.488384623485211 -0.36549157034817054 -2.358098577227268
Ni 4.109341601337725 3.1359104439873993 11.381863559409773 0.38532403169306545 -0.7610115687376313 1.759442402932828
Ni 2.5648575995363663 5.234748215566091 3.3670191613759624 0.6959328339604273 0.14564965165273625 -0.25419777046748476
Ni 5.297927152378666 5.149994629368993 8.367292015080494 -0.5725443076987365 -2.058185049890223 0.16054868025175578
Ni 8.273646749842458 2.061230160194432 9.547355949677144 -0.7059799337837841 0.7842232309674042 -0.36060827411394025
Ni 0.9734311573503253 2.8994959541194096 3.6514798033231353 1.6823393900012382 0.8592513636478364 -0.14064911311435133
Ni 6.869296201826434 0.9819611002030405 8.02788355362667 -1.6377279219394505 -0.24094347656073986 0.21603745734767954
Ni 8.568790173798341 8.822449580670085 4.428832368683511 -1.0114491008317354 -1.4358693271953142 0.3320669721411378
Ni 2.3753855500530587 0.9544839524019944 12.31497269622943 1.031379006986443 -0.18377396932828352 0.7308422442431026
Ni 8.984694274605083 3.5951211201667674 11.465868694005152 -0.07946791361934055 0.028730792275789233 -0.10301459059102903
Ni 3.3857489545487627 6.817098872569363 8.711913733364584 -1.382133271124439 -0.0753268948677735 -0.22650930341328088
Ni 7.731255253501741 4.092355728151624 13.805860532158393 0.6676712680115726 -0.38734363322625553 -0.6044054180733914
Ni 8.200235582232592 4.4506410826604155 7.274240898833473 1.1024754087126367 2.1715575866768084 0.9195581309576937
Ni 1.505923479230732 5.478008863472053 10.510268077717775 0.05188666156696225 0.5568582644220474 -0.09508890798604913
Ni 6.1485715401614875 8.703474455848047 5.204234704159557 0.9339575942124754 -0.551458690673031 -0.22887497543198
Ni 3.184083342505934 3.225918919056887 0.15803523189813773 -0.3000425967157413 -0.9827383631606044 0.6083021820246363
Ni 8.54863101384599 6.0539095279391635 11.75092606188942 -0.4531674736996002 -1.299107464950511 -0.11689571944849546
Ni 1.327229502874771 7.248453086786121 4.5856732235509705 1.448539723574131 -0.4895748086840408 1.0155759785159153
Ni 1.9137417123007363 5.269025263580528 7.468534863951093 -0.3601881558573861 1.0284803452824094 0.60008802164496
Ni 0.7381361068371922 2.3407939488314726 13.72096077123562 0.4490737632462008 0.6848356956060012 -0.43207080093030104
Ni 5.321731428907989 7.195108563479445 12.081939653338303 -0.11777606517091974 -1.654864067399105 0.7140447130697896
Ni 3.4975078587361828 3.7982484794663525 4.9497935400523945 0.10980975913599153 -1.5555996878791274 -0.09926180841681614
Ni 1.1238153450627844 -0.009998166204912623 5.865422770119428 -0.9933500772381797 0.9538386494071185 1.525055753653999
P 0.3088921745778136 4.324273957470352 1.593701401998929 1.8527865603136282 0.9914770285851826 -0.8288087308872629
P 7.381139030813935 1.672738446234322 1.008132852194414 -0.5597396997349006 0.45406350315130833 -1.2061574576843357
P 4.229445417079536 5.200406406597242 1.7612935004554777 -3.055258341616261 0.46927980588043056 0.19582447273491435
P 5.283004378168871 8.67677443949996 2.9301584157210954 -0.8536918672821879 1.173319070998076 1.911612115092269
P 6.954355089665767 6.222315764108335 13.572827489267265 -0.9861252773549661 -0.12526208913531975 -1.3967682474287946
P 2.6429038011692367 1.4908341768524473 5.557915554809566 1.3124754016169848 -0.00785806259183808 -0.45603065418000815
P 6.65772216375838 3.215436896006858 7.651861098860584 -1.1683817815974589 -1.4294634236689703 1.2350510007902344
P 7.796090220434311 8.607332193239134 6.850731086509143 -0.039495486991461014 -1.0003509340360448 -0.67035318571911
