# total energy = -340856.16369358316 ev
CRYSTAL
PRIMVEC
9.41314493768568 0.00000000000000 0.00000000000000

0.00000000000000 9.41314493768568 0.00000000000000

0.00000000000000 0.00000000000000 13.77708911156986

PRIMCOORD
 96 1
Ni 8.880087958334368 0.7765129179231733 3.5238211639951036 0.38231506966341255 -1.4935941927106084 -0.07118304790272902
Ni 7.512941613054974 3.6713242039425937 1.3924639399189747 -2.0801942071714623 -0.2423061612362214 0.2600768549560811
Ni 7.6196207846977355 7.911729498579159 6.227217088906398 0.4251787017961581 0.9728167331715181 0.2749548005091781
Ni 5.010626466479617 7.984926113658494 9.42924612775578 -1.9797954569367258 -0.7170549606510231 0.6638570364718052
Ni 4.986557054859521 3.8208237719325644 8.243989982216357 1.4197816776048322 0.11102049161464106 -0.27799153045297287
Ni 7.534497714975201 1.9725621754546196 5.103254636665469 -1.3832835826787986 -1.0205811450399909 -0.4252440078164547
Ni 4.869099832256647 8.597364149961445 1.8120181645026399 -3.0603727800246907 1.0870513608480827 0.9419470401758552
Ni 1.3779997013990535 6.1859329178139415 5.529889428875507 1.4907392397603165 0.846702323338232 -0.05297629508671522
Ni 4.018735144366081 2.4657921441952366 4.593157253500899 0.42381858822383783 -0.5282040910204645 1.71857728928735
Ni 5.686716188889366 3.7775044789033587 5.980027902694546 -0.6145844154889222 0.21576800573637678 -0.18812864675255342
Ni 7.715051248133217 6.100358017134125 1.3520005950655756 -0.2913538106924917 0.8592732180247071 0.3907642288720302
Ni 6.785531424414188 5.962671946048035 7.062342836448206 -0.44218886320090944 -2.3744996442931106 1.3131012081264417
Ni 8.289968488692054 3.148894659587767 10.505127176940674 -0.12064670185049545 -0.19314615457180287 1.4187105560278406
Ni 0.019987871972667378 4.661022263284333 0.6868075292422251 0.2817504832747728 0.5436831604926702 -1.4272021384386195
Ni 0.22137363620476833 7.876336073592237 7.2482646861674045 1.1423647887084067 -0.5293770282826431 1.054612780703403
Ni 4.571475015438432 2.5717276773874747 12.105005059113457 -0.8757056525491176 0.3325814498837111 -1.09827525458836
Ni 5.076283152459345 8.747174351734547 12.100788911493341 -1.3263907261464962 -1.3014718514176298 -0.3004133497915988
Ni 2.8767135735513736 8.799304348430708 10.704839284001851 -0.30366065308430285 0.6598844249773023 0.20970611581301304
Ni 5.593601359109944 6.054261846346638 2.7195695905529247 0.35409644113735145 0.9119427805042811 1.0581830145531648
Ni 9.345379712883181 2.212898592147727 8.597757619420076 -0.28255909521899725 1.1966680301366617 0.1515441627603003
Ni 0.8355107451699899 0.11685948789897295 9.587476387680692 1.025222243356428 -0.31306729111018344 -1.7109655383783628
Ni -0.012898832515845395 4.526564900913804 6.205324937711695 1.0388454905668174 -0.18375905692994804 0.6472248272317628
Ni 1.7186425906082872 5.095052963476346 8.492183550993662 -2.215958481389687 2.9772495290409497 -0.8145478500928746
Ni 4.103340491116734 6.100141514800429 7.225917880071938 -0.39597508364900835 -0.09047917712817966 0.23281339125443778
P 4.015233454447163 4.60906170319715 2.462723458943711 -1.2872487658397123 -0.6164469226189577 0.5068433659565013
P 6.425949287578974 6.649445587968464 5.133274097204243 0.762948380749028 -3.2947974816303063 -3.608047835285573
P 6.1553119573132875 1.5225008894241157 2.1657443838686086 -0.17248631222960617 0.8470975018941218 -0.7883089710010036
P 3.049162388913183 7.719870778344202 5.53207986770382 -0.3848074970679631 -0.8236307862307494 0.6487880579538245
P 0.9344607834997827 6.35038055997392 1.8536110867492388 -2.6634322471386196 1.4264513763155242 -4.0043831304874775
P 1.8346407757449454 1.4397781716621296 8.094301210013025 0.4915676707443534 -1.090063408201529 0.32542349868269116
P 8.831036060034675 3.2424424940345826 3.9049641093230156 -0.2036524534197654 -0.5198184380599306 1.1104000628763522
P 0.8671031422287947 8.119054015956007 11.879033101603872 0.015392937516302524 0.14098849873164107 0.36324853995026474
Ni 1.6841057618112087 3.180174540234453 10.107864220897309 -0.8142799411434687 0.12766041416416726 1.057535610777153
Ni 4.172084688637875 9.17349568621797 4.155060074693368 -1.7813921677310418 0.23215287485230343 -0.81312294472089
Ni 3.828053067249042 1.759250897893814 9.717903982700978 -1.081566940694744 0.7254154168005765 -0.907795848215443
Ni 5.442040312377384 5.356493651132399 11.814804389712048 1.253831623831847 -1.0142690867790338 0.36128421713504233
Ni 3.6709100255650875 5.549510188195384 4.688205543251682 0.42939839630446053 -0.4204162474105082 0.05294209941467011
Ni 2.480768457800075 8.255836425127539 8.015923599956881 1.1607407201124331 -0.7476276912315576 1.0257598610274528
Ni 8.033121415768345 5.977676499087703 12.641112844385438 -0.2737533240019092 0.6288288412230784 0.7655300254332751
Ni 8.672377502014843 5.686537339135443 10.482325715944445 -0.45722030361273513 -0.5036228021366745 -2.2977496438255653
Ni 7.812938542398909 5.044702051174472 4.389504803966444 -2.6428701067165514 0.29708968473500447 1.1639150040753568
Ni 1.1296150457793992 8.558356077316285 2.0632295875487765 -0.4673622771427435 1.5507246191750133 0.35508708718539495
Ni 0.009000849194812352 1.150022744016539 11.344041715322172 -0.193158495866977 -0.07719377287318319 1.3454798815674636
Ni 2.572085376895321 6.930531509121248 2.654418390456653 4.3406767391154535 -0.2531065942858351 2.235367739154234
Ni 9.016070250185717 8.14274690177837 0.20338699884705294 -0.32107679167822123 0.011097395464742178 -0.7668538864510213
Ni 5.215748307939726 8.032396603607708 5.813490542357149 -1.750750531585785 1.1940100236885243 3.0125672305056375
Ni 1.0883007526231228 0.6544865547648064 0.15136431200324418 -0.4097831931766942 -1.7023490003539459 -0.7951712453384757
Ni 8.210662742544496 0.6383797224522741 7.419940682329367 1.3896421779069745 -1.7088127537014184 -1.5167369493756588
Ni 5.815949255816347 3.866270435718963 3.61389554795783 -0.2388547123525112 -1.0788978785030128 -1.0335896414845167
Ni 5.552400023692988 0.6096978698099471 10.38762194729859 1.7301940475906716 0.8784189377152226 -0.24001119455445763
Ni 6.539114116087691 1.6516021723218894 8.279479421281701 -2.605568542052616 2.5084080962495183 0.02668239438719276
Ni 5.8506366949325175 5.838164277882607 9.375818999686429 0.037189721676419825 -0.5099065782628573 -0.0401230932731309
Ni 4.071608779512768 1.846087159996035 7.236732642297331 1.9478425581792131 -2.6192103012057664 -1.624292622370151
Ni 3.703432441344293 6.657136127387164 11.591767450795793 -0.6994884125221695 1.118529633962022 0.38858701871505336
Ni 9.229221504282487 2.512424864244494 2.052483541281471 1.5717315604439834 -0.8816438724104235 -1.1840225734585093
Ni 5.208217791985061 3.326718380712218 0.6332834457799552 -0.8420486266163045 -3.40443112019975 1.0562405461148132
P 2.885646648102594 6.723978869629753 9.529791694153468 1.7738076705155645 1.3992966702776028 -1.9692575335198794
P 7.88652109642092 0.9142742941688111 13.530148614332191 1.8895574492850749 0.3254443246182976 0.7200567235918244
P 2.486077471548113 1.6586055521597272 11.400375622550026 0.03836085916638555 -1.1105831254214356 1.4271861975990197
P 7.737972256070226 0.7813569223110111 9.726019054956625 1.8037700212056096 -0.7292908405955826 1.6006934948939724
P 2.3669635354352123 4.165900252410107 6.19373829760095 -0.46211105604613323 1.3814719833913565 -2.4474158728368627
P 8.879786737696183 5.898078945446903 8.144353725620196 -0.24225705316584084 0.03128698303873967 -0.21462129372644326
P 5.487552868178385 0.9595571692331955 5.380476461819016 0.19471581305176788 1.0780974940889045 0.22043172976063327
P 9.134073435195305 9.18717298582063 5.53207986770382 0.9680766473833715 1.2324019932031614 -1.0481199738902078
Ni 1.9831896160956397 2.4096803871880454 1.207759209840949 0.49775708738451685 0.38227444623346424 0.6485494595804573
Ni 1.850727840453097 6.6142498390253515 13.441492791312426 -0.12622625282080197 1.1478327538015134 -0.5338461197975903
Ni 2.2470683082920155 4.688951064331193 0.9212673195472111 2.4131872906712957 -0.18225367602901515 1.6046365387021204
Ni 3.0995133012150564 4.5005752077252685 12.505670867053837 -0.5719496115375311 -0.3391279927529773 0.5056205492929937
Ni 2.74687806534802 3.3562756558342746 8.022467618321484 0.6053693246485574 -0.7045645414934962 0.6581772124782084
Ni 0.038369861418002624 2.520002445923875 13.330188000244512 -0.8070623403491067 1.4277757515539022 -0.5385139575869048
Ni 7.213801279900883 7.893712739157625 8.494512363052642 -0.02042612906483579 0.2692916886861298 0.40290189267582865
Ni 2.2488568058312484 3.543107756669493 3.6532434351354452 -0.45644228779613 0.2919896445042778 -0.5703969223384305
Ni 6.863076912457343 8.860197983069112 4.224331408331334 0.015216816949754441 0.7247471870889584 -1.166390462199043
Ni 9.031008911210781 7.034283192686633 4.144451460342234 -0.6207815454385696 2.572949470466014 0.09148190736108115
Ni 0.28180132016847664 5.118510520675124 3.237698268983144 0.9114984938780109 -2.1491859038498276 0.32142260505341413
Ni 7.353379393120584 9.100694423226255 11.968639652262915 0.20498325641604695 -0.18478775530477853 -0.7857206414485371
Ni 6.320672674532769 8.0504039498843 0.24687290454175556 1.8558209762645783 -0.9150972669728626 -2.085821580660569
Ni 3.996416577705446 4.328032260914026 10.252468953516747 -2.057609637002727 0.47174343692957466 -0.2406866233549274
Ni 3.9425639754846538 1.4870792250023641 2.474696037997133 0.537386785960997 0.7661707443410676 -1.5855203866979597
Ni 0.6511844235186862 2.036543321634435 5.21986373490895 0.7806997911951781 -0.012018364617114786 0.3524082548016511
Ni 8.64088111903446 8.041828574840926 10.372467725254321 0.6154567907915465 -0.33607737885211153 0.29282371036979893
Ni 1.6788908795126036 5.638398515895251 10.74997343137613 -0.66081567854232 -0.5272291287017049 1.760382141138278
Ni 7.71523009788714 3.245708855329918 6.860260499490298 0.49104162303755433 -0.7722984545053602 -0.3795359642563786
Ni 2.0473025463046617 0.28437393268148875 6.354696486930436 -0.3432037054842476 -0.03844776245323701 -2.387273141908695
Ni 5.745670715669443 1.1691126019616127 13.395615005487624 1.5324664442957736 -0.6250130670214139 1.652198861862116
Ni 3.4694028317632175 0.9057770482284668 0.14857613847102977 0.17376337916981688 -0.4670108073405957 -0.603153033723529
Ni 7.364260988675073 4.174400322293934 8.716419724575697 0.10449914555635552 1.034600342137218 1.195421045103438
Ni 4.880565042797622 5.427214609091639 0.46670278497581774 -1.6382120606647206 3.7203438511785283 -0.17093105192734434
P 5.340500717873681 -0.07010345565095744 7.879489477148253 -0.3979826009973404 -0.017984352392562575 -0.3689139657661582
P 4.064812488863684 7.6945776578814735 13.626698300701436 -0.6884537519745627 -0.17756655496599097 0.7158779096237864
P 6.601024370379973 7.007700471366668 11.065868221214854 0.8204397900972773 1.618533865509503 -0.30708330561260666
P 5.927570328554356 3.536791536412518 10.557852084397254 1.0407571057672336 -0.5888031927597601 -0.9763746257261056
P 0.3698575258553535 4.43630225405221 11.939597276169259 -0.7486851859617945 -1.1834618158590327 1.3439518749587112
P 6.608818454393051 4.575033184227011 13.382541088475833 1.3691584561313257 -0.34242131879226834 1.45011709536358
P 2.2543634956230965 0.9280758472847219 3.624408148230542 -1.3351949547016877 0.1558530745482993 0.5336265475876164
P 6.734154479313492 7.898767597992193 2.2967235891825766 2.0878236986922625 -0.7766104516171529 0.7309929108883539
