# total energy = -340887.9398987949 ev
CRYSTAL
PRIMVEC
9.09890388565518 0.00000000000000 0.00000000000000
0.00000000000000 9.09890388565518 0.00000000000000
0.00000000000000 0.00000000000000 13.31716556795962
PRIMCOORD
 96 1
Ni 6.503177509694915 2.297154707900183 11.243163102469888 0.23293731842681173 -1.2397869728133228 1.3783920589144518
Ni 4.9586750121319865 0.23261984083244688 5.856529346564118 -0.8228954507266215 -0.9965981518618319 -1.3947612443010946
Ni 2.598737869104118 1.5903973675316299 4.558093049635333 1.0686312064696821 0.3302049792317346 1.0964708543897697
Ni 3.693991098262064 4.148972675961312 4.250865838502454 0.015751606407301905 1.049371844019438 0.8254624401228494
Ni 3.923510942623786 2.8097687412659185 2.3197172592604907 -1.3635979313244129 -0.6909567209020745 -0.023161782828443982
Ni 5.084167091158226 4.754850471654407 2.0637077767267056 0.4601742440347365 1.1692888667927603 1.2649189919942603
Ni 5.4753562554255595 4.817496423227468 11.426233953631128 0.737237349136169 -0.1749499432787503 -0.4708738898404278
Ni 5.785910935620205 8.158959598795754 12.38243318788489 -0.5130844617702067 0.6664065423665362 -0.36788963826670185
Ni 1.753413325176213 6.836843405139461 0.3540155934391949 1.0642449044765283 0.7005448788111419 -0.48093744472401695
Ni 2.8954167212451805 1.9130990840879363 13.450336932476633 0.1912841616623996 -1.2847907912175227 -0.5290744094405598
Ni 8.06448568228405 8.643230547317614 7.18964429494249 -0.6609663451875715 0.37320153739791856 -0.4238319579602765
Ni 8.815709364749559 2.8760724521029397 1.2441640663771754 -0.46943792872484963 -1.4574527097930448 0.6961300375728978
Ni 7.25712176434929 0.5338026502761478 4.956901635812221 -1.2247501330848587 -0.37887107697887007 -0.36068772120162396
Ni 0.7997499553673901 7.500717612644713 2.4318739851094624 0.7910639080383216 1.0337570203003164 -0.034334254505495716
Ni 7.944616725708378 3.9174601717020594 3.6089918701124546 0.39526494495586123 1.0086843936024048 -0.4335846664716661
Ni 7.8338648705816825 4.160628371526322 12.557993803980276 -0.3044198998478305 -0.4806052581955787 -0.10709750241115104
Ni 8.495000308090784 7.107217326852387 9.142660269306537 -0.8567280830053503 -1.0665419280408213 -0.3997944573950986
Ni 7.105597722004166 0.9734553050102348 0.3439239994101926 -0.4295421209711764 0.19167882599765698 -0.29722389632002355
Ni 1.8552391558304064 6.457955958595697 9.177284327334274 -0.39518781186102264 0.19686319841207386 -0.41337708117553973
Ni 0.41687354946710703 5.114393649055931 1.3719472493403924 -0.6601435921759599 0.08737534139187532 0.028474710400925154
Ni 6.453424704582133 1.90758514848107 7.0056944896894615 2.3334010744805878 -0.637119877587277 -0.5341798489879251
Ni 3.669132893512957 4.595929020648587 0.16003879637302096 -0.6901010577699985 -0.5000427980949 0.5920353265438126
Ni 6.188992366947232 5.612949876295251 4.400244359368867 -0.7184790946920594 0.7146574069531241 0.8139480117253465
Ni 5.510541715807989 2.8618053711927645 8.846765742659388 -0.8573757438916783 1.1690605528320384 1.0979872910342963
P 0.3711415498735907 5.702046340754714 12.365573829327197 0.28175254015730183 0.05441174198166113 0.8176254605769337
P 4.271416622267584 6.384837168931046 12.46484013838698 -0.28274087221250016 1.0588093352832542 -0.025945002000535962
P 2.3619389018290415 8.985604093547263 1.0909048631075804 1.1709721680324543 -1.206044586255555 0.01665997715418421
P 6.403699196180277 7.651486445987575 6.037030667336943 1.5736359765555479 -0.5074033522250294 -1.8671410292630874
P 4.7431674793784735 1.2564676038814735 12.28452534513881 0.22949461129384993 -0.811051664014158 0.3453660032428891
P 4.179508596582836 6.045329777348533 8.11755776744532 0.9854472774513352 1.540840527292082 -1.6385594167018105
P 4.716353010346402 1.2076792825547125 3.6583980069964865 0.1787081247696019 -0.6187979393496376 -0.5366486222433919
P 0.21534921183014819 5.873915531642666 3.523748791345248 0.23136534595400154 -1.2339963342734748 -0.5367080147264176
Ni 0.4108801016383235 9.06542877519584 4.591065656652102 1.261673488473769 1.349715774025682 -0.7557084113571629
Ni 2.192835777648165 6.4196404753605245 4.67160824179801 -0.4810608576757587 1.3390310406183261 -0.03986315474352489
Ni 6.1542891484578135 5.99181002612809 9.340406742151465 0.6368864214202322 -1.6176661181925691 -1.0697231539822802
Ni 8.79154267667722 2.596363055253636 10.152074441508745 1.0106731418976593 -1.0897726164339876 0.23329804420034012
Ni 2.514391032345618 5.352493759551771 6.817895848195999 0.10090448622656169 -0.024372515307093508 -0.04133202597956753
Ni 0.35014582972038266 -0.019823781364157914 9.147107813406596 1.7484229118938728 1.3979704952670118 0.013375135755325352
Ni 1.477834830580238 0.9955565419559087 11.192691483969414 -0.09555376343760963 1.3383700099955596 0.15417362996334738
Ni 4.205140208141487 7.1223579025121655 1.2850572690140392 0.09789115332153463 0.852936477173402 -0.11554640450945262
Ni 5.6924197007018025 8.00684412771392 8.00991500769299 -0.696690280951742 0.24910955731130005 0.9598876838146759
Ni 5.159742584806133 2.5345724006228942 5.247189418035358 -0.391129582631249 0.7625614297232545 -0.6310320195219843
Ni 0.854709153143948 7.294327181340176 6.923979965754504 0.6210034316413886 -0.4954400092155661 0.036704811620201304
Ni 5.454692645255274 4.485914176716869 6.893737029830243 -1.7936802410697754 0.8682898197010207 1.3539231272388104
Ni 0.8465865618630081 7.710829495538701 11.453054791895747 1.0953251708211007 -1.8810928634574895 -0.5119696314394732
Ni 4.7336591250729025 0.9959659926197849 10.059080916619543 1.5355314563743425 -1.8220965874289394 1.5621593433745162
Ni 8.487684789562861 7.137835137606686 5.049735929887692 -1.9359203528203304 -0.36297831700801353 -0.12547703335960325
Ni 7.50242820652935 5.799067950286094 7.021076186295746 -0.6634245769200767 1.8090549237536329 -1.2728757849474917
Ni 2.630602229657329 5.552287485716079 2.4038948564112546 -0.07786431657764654 -0.3671591878585806 -0.28827799998064546
Ni 2.4636828423504595 5.545781769612269 11.591460034970277 -0.8570936938748852 -0.3862660838913605 -0.8748049951117192
Ni 1.3518059162391396 3.5542683339402164 3.5016284467019263 -0.5000937059374936 0.826825381908647 0.44846364046602766
Ni 1.5810254967806854 1.4339326205090663 2.524774701181519 -0.7175452700238804 -0.1968932803190609 -0.68985191787367
Ni 1.4423946008958413 3.5715744486667176 7.985478082182496 -2.1067246493618232 -0.5850282990983602 1.2846267548358328
Ni 3.5448327708637803 3.0503983469741485 7.331845600616335 1.853487443035395 -0.6130546091079571 -0.7603682787266776
Ni 4.322925515783211 6.874112514455839 5.890648415439741 0.28400611207816895 -0.08829039700697697 0.4121172406265097
Ni 0.3380952417373236 0.48665850083744056 0.8453227241471768 -0.14234861230396129 -0.6862199775480375 -1.6438816002456722
P 0.21523547553462702 5.332066720876168 8.00193799887032 1.1344697022310462 1.5069572442810757 -0.20310352289483088
P 8.723783141257528 1.5751476050281512 7.800849498717797 0.32112847085176305 0.6209167854648532 -0.22271846891228095
P 2.057616970628956 3.102425877997353 10.340126032523449 -1.0097907392927061 -0.24035623659870217 -0.2620648319203874
P 4.192010490186523 6.470039302631866 3.71544904272027 -0.22431923774049756 -0.8857800060659842 -1.2287957639091418
P 7.034526185658897 3.858290001320126 10.028184679413808 0.1574831539525546 2.344832199135665 -0.18353151430017423
P 6.610835737583433 7.952141519020058 10.149677790289521 -0.21777269487123138 0.5345850548461438 0.26499280420045973
P 2.2376114824689397 8.757449084731794 5.626541818555213 0.6666631384620324 -1.304973179702669 0.2929826045451664
P 7.058538192369327 4.266221148288176 1.4139769050421038 0.48741791024203796 0.32445727811467995 -0.3837721138249133
Ni 5.425139406227053 2.8771097271180928 0.17945039740221014 0.42214685694836973 0.9591551765240255 0.42940765227584105
Ni 1.8724997760386992 1.3954624559119855 6.988502111258482 -1.9401089369803814 -0.8802487918351098 -1.2071653301235596
Ni 7.145086963809116 0.8103110528243038 9.279546905363269 -0.41397049178516443 -0.1539247471773349 -0.2322526336549613
Ni 2.851478115559442 1.3770007804229891 9.046536721564593 -1.6870465656689204 0.10845530199062613 0.28448485148680036
Ni 6.331526692494364 2.535627873445331 2.6409931776161435 0.08511791281626631 -1.1331764373409194 -0.1951117629386059
Ni 4.112877325214714 6.756700261863424 10.236305722190995 -0.12262670839500171 1.6382981926206235 0.5260729036100746
Ni 8.28002961065213 7.387927603102277 0.24455123317779975 0.597556513472358 0.14726404732770768 0.0748268153029034
Ni 7.843500609538236 3.702280199479647 7.926190535943584 0.32086133323330546 -1.209867302435755 0.22719450240576358
Ni 3.0670584395420892 8.538056320123278 12.141313151270372 1.65453033820877 -0.34057963759783927 0.7806907923341135
Ni 0.04725515606313588 4.999501792772266 10.248037848546595 0.6921923930813886 -1.2283694750050007 -0.36080727749862374
Ni 8.823161366832105 2.494227861875625 5.462634168353743 0.12644479658951127 -0.6022953137089241 1.126065537327751
Ni 3.928842900157818 3.1744982937432074 11.393114854265727 -0.8067244973937139 -1.0544528580867711 -0.14121861246457615
Ni 1.1467894193844985 3.405455764880317 12.498239483984547 0.42775134761934075 0.8791439888067053 -0.7030306213474732
Ni 3.0497068302973798 8.247273557542032 7.693219477430567 0.5055580714861745 -0.11799486604994518 0.12560044631134495
Ni 5.680873191980494 8.135229658098218 3.23710966948243 -0.9197517350257387 0.32680006731524364 1.7365315597729254
Ni 3.06442885638964 8.828247653967813 3.3108335362392527 0.7375947324755877 -2.2290952758819613 -0.4362578424284551
Ni 3.326904929741576 4.606083397112717 9.278455036926264 0.34563802595735316 -1.9656541324393373 1.1077055467633246
Ni 7.658556294117171 6.397757612102251 11.31366413755682 -1.10465287597993 0.2597788640996881 0.8610423941099881
Ni 7.944243670659068 8.850467176660828 2.5362811747268044 0.214100902446599 0.6737418996856849 0.9807951233913043
Ni 4.799744462222524 0.6880600032752365 1.3832144217199018 -0.08558559648130422 -1.0124060654283662 -0.28454887195551637
Ni 6.207444943532588 5.92884561292757 0.10029630495202474 0.41126312015633043 0.17279484460896047 0.819811412484659
Ni 8.164391644269847 -0.18158954964837232 11.52949559127998 -1.7244082941468304 1.80848928105815 -0.170864460355467
Ni 0.3875314050033734 4.862517798446568 5.347533947176683 -0.0077585608994963145 -0.22950592414775955 2.104575464229305
Ni 7.335263148824155 6.387302971817945 2.41204474440312 0.38284137448052774 -1.2170800181341104 0.03559512349579031
P 8.457840385618105 1.6707224888805012 3.396982865809172 0.39934991365851225 0.6002803401614243 -0.19078999563480042
P 1.9435895101912515 3.3412629996881686 1.424669936601822 0.20445798004019625 1.685839946955329 -0.4543419536236756
P 4.717090021541379 0.947669012089675 7.783936456628617 -1.0536709856154243 1.0561945233682262 1.7020710641022108
P 8.862113773322196 1.7568800074636983 12.43024155728944 -1.4291335511333774 -0.1850070704044362 -0.1407262462091899
P 6.4562271669037745 8.087951754775977 1.2713552300200126 -0.9800574738943315 -0.38817101422355726 -1.7653641677339014
P 2.077962119171783 3.267134231719291 5.697323099874311 -0.3980965008673854 1.6466378228345704 0.39478851954007493
P 6.8900992881542935 3.9060410476317338 5.607818094641336 2.208957881702138 -0.782309301774143 -0.8361679994658116
P 2.388826162090246 8.365350030100291 9.987594470268213 0.14335519919160472 1.2289451450028124 -0.008277409517443808
