# total energy = -340873.2433249323 ev
CRYSTAL
PRIMVEC
9.24257953786118 0.00000000000000 0.00000000000000

0.00000000000000 9.24257953786118 0.00000000000000

0.00000000000000 0.00000000000000 13.52744940791966

PRIMCOORD
 96 1
Ni 8.199619090107513 2.29590295751277 0.7361002882917788 0.7147515093288271 -1.219277025785429 0.3139016140860207
Ni 1.1838542787743331 6.052761969404995 8.266921705417255 0.26454157559565405 -1.2238628453838987 -0.10395741412027257
Ni 4.481329362415286 3.224033547035827 0.8744043992220321 -1.561855181870536 2.7266469321238915 -0.23847830284969895
Ni 3.338438195928132 3.214236412779417 3.285749947303518 0.12395931116349618 -1.1859886960459447 0.08337624753481124
Ni 6.813703538584466 8.125447389722899 3.866645143814787 0.9266435770495655 -0.5635061087558683 0.0676845478311673
Ni 8.24363225362546 1.4042158589076617 8.748674524543398 0.9373131409482696 1.277886865008838 -0.2483791069031787
Ni 3.317439055333261 7.56683512809727 1.7468539928825257 0.6915465319672736 -0.49024689505040075 -1.7975808616757623
Ni 0.0944545410692287 8.368896933415202 8.745265861228527 0.15975446648523453 -0.0735741738427249 -1.1234687231348524
Ni 1.6099279505538109 7.758470771184446 10.432518156030028 0.8149309444639061 -1.179651440974007 0.29209300285136147
Ni 0.2896162282307629 5.454841017220393 10.32163308140644 -0.21735051973214825 0.8212419742835986 1.0099789440441123
Ni 1.2018680661948455 8.150827512994693 0.5445422828722958 0.30862211085463626 1.8572260841422206 -2.1029081038292103
Ni 7.84964881782547 9.07164722214339 6.367153856209091 1.6090745198688161 0.9163208549673185 1.864760701956369
Ni 4.175871352943498 2.1747234978563625 12.434147549508445 -0.8375612802689123 0.5271406827529568 -1.556794736628493
Ni 1.7585763564461152 5.625976619005004 12.137787935283836 0.035797983535215766 0.44194717950374857 -0.34144404248066357
Ni 0.0882989831307673 0.02680995031846095 12.129103607597683 -0.2156019124721577 -0.41894377663003984 0.2796534915364281
Ni 8.69967961068186 6.885620049574208 4.568314050742977 1.580477939178046 -0.6560542525979347 0.24672305935699446
Ni 6.100897323374225 4.018313100425553 6.077531158172688 0.30484798852418465 0.4052462245382891 -0.5315714648308006
Ni 1.1422349433435648 2.061427958502519 4.428860162924519 0.6842302008115183 1.8467465247671355 0.8831132578670985
Ni 2.559926483143534 0.4875497649805022 2.225251755654823 -0.5300478290974227 0.9748684734942245 0.6011732842893388
Ni 2.6753940286768643 2.5520702905794312 6.2621267284644775 0.09761707372454156 -1.2509733284474456 -0.523004549097396
Ni 5.926868794210126 3.869479842943505 3.223645358697365 -1.6014781955787967 0.380540494261493 0.32566955325522623
Ni 6.2593705912614 3.6565400541383815 12.582786712821264 0.11668154655516035 -0.08712928681934028 0.7101793165771124
Ni 2.0081167600204686 1.4766407117691982 8.855609320694164 -1.033254112521969 -1.2742222716730571 0.7062956652519901
Ni 6.066986299235765 1.151366611876898 7.2023928248542015 -0.37492803317072204 1.4242186303302633 0.9040541217848237
P 0.531631323586655 2.503629931487125 7.176609725116766 -0.6639866200711338 0.35367272333637156 0.28639106737057773
P 3.094018181389676 0.26776492180717365 0.1703509067861501 0.45393674776545695 -0.45019862087926343 -1.6794031901910498
P 0.5153616109153732 1.1978567866974097 2.669844783952762 -1.9925136758343427 -1.0024913774178152 -1.494559384837355
P 7.574423285856244 4.951998480220404 4.685137482687077 0.8343707983560728 -0.40319551265684755 -0.1586733176059138
P 5.491755879692188 6.9712987614203605 2.633604629783532 -1.3448761865451935 -0.2687026489518792 -0.1263794905692146
P 1.0771117282768994 6.6437232592357525 1.845333677318421 0.8573803718773686 -0.45596689082160824 2.359961598577936
P 7.8109131671947 4.348800015148623 0.8288236942230588 -1.791486061631934 -0.1755415541161622 -0.16039929915808504
P 0.5961343615697305 1.8568527041332925 10.99166094171822 -0.16137580413874142 0.7156118004465933 -0.764256300927174
Ni 8.71429212885109 6.167841326599865 0.33717022395024904 0.7939222034227229 1.4991390337882375 -0.2618378035112458
Ni 7.394821481261376 5.913337657840896 2.5136572059727653 0.4679657150546973 -0.7637145694910912 0.4448962348297435
Ni 5.110490233266555 8.099919385179309 7.742287014502394 -1.1424707181586518 0.9782008803015669 -1.4620053621607336
Ni 1.1734194065333075 0.5823610696179359 6.6745380192460075 -1.2715557805844873 -0.8838398516204778 -0.9590896133934127
Ni 6.342082435092169 0.6262679434717812 10.267942937165415 -1.0298476579435811 -0.3189957407794764 -1.2292621620225992
Ni 4.8329725415845095 2.0919377133896977 4.995253752220403 0.8917999870078189 0.27233356083624716 -0.22820957393383925
Ni 3.4680838583947957 0.3976601339199913 6.9017862453552326 1.8799548931983043 1.179699263492807 0.20615362257506434
Ni 4.157792867466576 5.117921267174247 12.309586230017679 -0.40748205584734337 -0.40908822399219874 1.3171779492989768
Ni 4.715582539517846 7.470749271748555 9.966672740459268 -0.5244507946256194 -0.3401170961391239 1.469616084628456
Ni 2.707853967835838 5.49626625848193 0.8622790591928016 -0.1260485895923571 -0.07088171461222631 0.3906091913514047
Ni 5.802426703994745 8.045526804897259 0.7284437354445995 -0.35634049997652184 -0.20912478938824627 -0.8531167115050082
Ni 0.37883669653640195 4.655921688928102 2.0509237669153397 0.6906160497332042 0.12852867570173349 0.7757596735810833
Ni 1.5691404472768888 1.986424425964059 13.003355504258176 -0.8414079077085121 -1.7643683794795355 -0.17746962437681046
Ni 8.352426656769047 5.312496050538345 7.085677531090101 -0.13082081417001987 -0.4410889452685114 0.11462749223960904
Ni 7.036348035851128 7.109345928640869 6.170586372707557 -1.4525028219869374 -1.4387193950495998 0.8737996937756564
Ni 6.363155516322937 6.56676029984601 8.564417232660839 2.3970155660074397 -2.0756271566260702 0.4273237731636189
Ni 8.120576550333155 3.2061953686255706 3.194006254797879 0.8694128775618705 -0.7407615602393436 -0.28175254015730183
Ni 4.793238692369125 9.200562720830566 11.91789957522025 0.32446190610037023 -1.061457057318746 0.6744731214247546
Ni 5.338393758261421 5.456744988594752 1.0564813666035666 1.0454218582327544 0.2619488751678134 -0.9239367196413637
Ni 1.3196092862820226 4.294906534158881 6.203403999692684 -2.07497435353342 -0.8490047462191637 1.3518575029590332
Ni 7.395320580553683 5.729345627989619 11.916709130982303 -0.34337211274131185 -0.33058524538928874 -0.5724257798430012
Ni 6.145622165512686 3.887077714287094 8.421757094018277 -0.16001414790452442 -1.156892807121253 0.5928655357545919
Ni 4.712689612138359 9.019731653163905 2.883402901325578 0.5314169415308073 1.4356248152846758 0.8639166303339896
Ni 4.397739473533237 1.9381596758820088 9.297523849456718 -0.47453694051431167 -0.42887106304608075 -0.7423726134802053
P 5.526591161779366 6.98784297870241 12.005314043494096 -0.1469215763866244 0.0056502563072418814 0.7045072058929996
P 7.734661886425472 4.946831878287071 9.381164572525948 -0.1891509173694807 1.2423110247867573 -1.183502182178665
P 0.582174369512295 7.45909437901522 6.610864040642931 -2.5228024172979775 0.5151631986761064 -0.27224151534307306
P -0.06395772579333193 7.097312090148563 11.887422169361278 0.9834297328006741 -0.41169018039142 0.5491400698421832
P 7.072135303625486 1.0523785855692078 4.781817636896818 -0.38331857122726243 0.6339877597161985 0.4558272799199504
P 1.7399618013589362 4.6783072164460515 4.130511545594268 0.03235861883636363 -1.5811420551246058 -2.1803551303637803
P 7.2633827583742 8.76174353193827 8.685042137548015 -1.5102996783907472 -0.5114721229777642 -2.0580302694799135
P 4.092706622717859 6.731592462420365 6.062745803767047 0.0955139113386097 0.5737594110527602 0.7287930750235577
Ni 8.223298578753667 2.9692526008922426 5.603042082265518 0.2530711130622093 -0.9386773682856479 0.46072600277314846
Ni 6.981114380835745 0.884444613318955 2.6384745449153266 0.7459757574504313 0.675933765130681 -1.2628363984336186
Ni 3.8040885930717114 5.494898356717829 2.9204000227548077 0.057614050969042714 0.4909894296433802 0.753916866674379
Ni 8.005561891194695 3.2896373762358255 10.697844885368484 -0.23784966812676459 -0.3457580964749852 -0.2688731130914724
Ni 3.733549226425559 4.638601094969129 5.184692434163476 0.456610180832562 -0.3276696144043905 1.6569862559484303
Ni 1.9283532990461114 6.227335810758838 5.5052934858670595 1.0764062224294106 3.0441267504794736 0.3718982452054627
Ni 2.4412332773691774 7.768471242189573 3.7746860992070967 -0.569004155755962 0.8533493963411045 0.8981536971399886
Ni 7.680592796425473 7.809776329917778 10.53983097368182 -0.7658902369861713 -0.459601402250402 0.40917589860999853
Ni 3.8725298941742743 5.567369422476801 8.126222842141873 0.8464308148444003 1.3402916524983046 -0.6516293840573617
Ni 5.341868968148601 8.99254922689211 5.390512663989625 -0.957284441863874 -0.9452732763356108 0.5061540531989606
Ni 2.5202480894050727 0.6086386473579354 11.35044955908898 -0.058971593438201665 -0.2019465264722522 -1.0015053593554621
Ni 0.10771209708563867 3.948864358158888 12.613399984598697 -0.3305752180869597 -0.26055456592344806 0.4299388421889628
Ni 7.444971717558811 1.42774746628202 12.022804700915634 0.3820746715178323 0.11692785823801152 1.4037809313012017
Ni 9.178066282358774 0.048894169745127135 4.455103543120415 -0.2567141091314353 -0.43498823168741213 -0.7192306281461033
Ni 0.6075674323953713 3.504490378994795 9.068653550647493 -1.170613756251771 -0.2979733728915384 0.48630847922794307
Ni 1.6452900596717588 2.705413926851223 1.7089899174973986 -0.1428170672999476 0.8896649429426872 -0.0544546794044546
Ni 3.171350843958905 7.413343610553683 12.718575917873055 1.018358169246743 1.080499675772494 -0.1163133645824642
Ni 2.8690353115127576 3.5090100003640257 10.695045308041816 -0.6195561576719008 -0.10399880888116926 1.1028225076394103
Ni 5.327709336374243 5.112412689799888 10.420112765842335 0.9142251487805545 -0.3586637487930597 -0.6379071493752627
Ni 5.7863353731075655 1.3462279152050987 0.351210626449223 1.0839598664069525 -1.2157906098987254 0.10422789417283984
Ni 2.754482781348657 3.6152811793076127 8.394215131404431 0.7159666126828508 0.8121477252918142 -0.7537494878585793
Ni 5.659536425122953 5.988572254866535 4.69741994656759 -0.6662741305537299 0.7863474763992586 -1.289765875834611
Ni 8.696324554328015 8.093218515051104 2.2084237911825157 -0.4018189440242951 0.6257543160628126 0.2690379208041108
Ni 2.2841556389845654 7.987095217379312 7.769246694608547 1.7604654448807038 -0.5807019038088643 0.5549602760683862
P 5.804265977312693 2.722540426640966 10.652122768903356 0.13063826584556856 0.585434019177211 0.8892435391345523
P 2.4078952931589215 3.8044952665691474 13.287864283064325 0.8121775500884851 0.14970016757302607 -0.9925481501621747
P 5.134493212194759 2.019993474661494 2.3196730234378977 0.12497849645662992 -1.1344475907438591 2.158274753524973
P 7.660480943461371 9.150135207148518 0.4546508032958875 0.6515931315027875 1.144152219626133 -0.5419790333173697
P 3.413173693661464 9.02865998494852 9.414374084881333 -0.24707812870356802 1.1514320411169976 -0.1347736281701808
P 4.490599669640927 3.076956379656343 7.1088505263803565 0.8181751624328167 -0.18304686135427184 0.8689269390643873
P 3.0359008415742927 0.8665916467815196 4.835278565166561 -0.1927113810272294 -1.3563085967518511 -1.2591314387782058
P 2.844902936471733 5.630625636487056 10.103665329360291 -0.3366972718242976 0.16995788938079762 -0.1793223613148331
