# total energy = -381169.664080181 ev
CRYSTAL
PRIMVEC
9.19716470551640 0.00000000000000 0.00000000000000
0.00000000000000 9.19716470551640 0.00000000000000
0.00000000000000 0.00000000000000 13.46098021017729
PRIMCOORD
 96 1
Ni 0.5935141748432938 0.2645877054988248 8.312599559216324 -0.39825410949117224 1.0869382323089862 -1.1048367098559617
Ni 7.912384948574738 4.344188651969345 4.835183874223885 1.4239242390182962 0.7529853559990451 0.6777294235785232
Ni 2.601638694027981 3.618909461331986 0.3107105654530127 -1.0341426857745093 -4.00806083644938 1.3477869324340852
Ni 6.529609669228743 0.6473479374646517 11.057817946479027 -0.44631085578908297 2.004141232770942 -0.8653657040756902
Ni 4.6311677740157515 4.427055103580989 1.6525777770827554 -0.5516435529903273 -0.062222239165015424 1.3436999068489053
Ni 9.143333437331941 8.599302766329505 0.7771640741137116 -0.8883086860251087 0.7342211880176646 0.300253941395599
Ni 8.80367295736861 7.386316339725193 5.0671299234058536 -1.2903829405933198 -1.6021117153977378 0.2952297487081303
Ni 5.640722120353922 5.861233334986638 6.102279058666337 -0.03114325837202378 0.10011875710047273 0.48505840887092594
Ni 2.494712460239194 4.3973022766149885 4.9915062387913425 -1.8338976938289255 -0.32825505459421533 -0.45346289345283197
Ni 8.10789827025735 6.831433014682607 9.625812085314296 0.6445858469470189 -0.9225789200618886 -1.0357732793993968
Ni 6.3651459746982875 2.7393202457068164 2.515789601988185 -0.20081935484634444 -0.08138878479113724 -0.6529481028687852
Ni 3.867582393482443 0.5902381448694795 5.696646398452675 -1.3110947192193743 -0.5159990643138403 0.3800499277783197
Ni 4.180239998647574 4.2020740670300425 11.120775296225661 -0.6941639149854626 2.1766167463672703 -0.726416090150949
Ni 7.356232414839322 1.1600659424119266 0.4673327575812397 0.898870006480723 2.4987021818156645 -0.6517743942756582
Ni 0.9145743094415432 8.7472759450176 10.922938770805306 -0.7135299782169002 -0.18383104781846404 1.8498189930448725
Ni 1.3183859310959263 2.021104477359994 4.939412579682185 0.5540616755135167 -0.2084817564876087 -0.9520969841256636
Ni 4.557176586089484 4.90592386452033 4.397002449054218 0.012682994784307188 1.2806451444802653 -2.120363580301497
Ni 2.9831922580191743 0.44589232783683747 3.36442392125494 -0.6736570532813624 -0.9418531949104683 1.0953333983512166
Ni 1.8841862903297453 2.3632941775445464 2.369469153750102 0.2689579594957948 0.4184467823889632 -0.43654297776904166
Ni 4.42294397107595 6.399754904489032 7.972938159536548 0.14918389005823984 -1.9931387110128511 1.6748929610255217
Ni 6.51824197397991 2.956446903825317 9.883710693115326 -1.497346717774505 -0.3694263866262025 0.1806102268883212
Ni 8.341763767658113 1.5969956335012006 6.377381882270332 0.5620544639110062 -0.43386723070909156 -1.5880236127357876
Ni 6.682411359248261 5.011093439900923 2.87278857635532 0.4211868070279456 -1.1283296507715794 -1.9414073440768305
Ni 0.9577375218786803 5.018120073533697 1.2703463820722747 -0.6182140418217095 -1.5622395617931482 -2.8994698017573097
P 2.7689719038639686 -0.02750779912600058 7.649444455227261 0.6830693477341978 0.19830327329271008 1.745382325295336
Ni 1.9308986885245887 7.787634610099674 9.27670151888804 2.0457591654220444 -0.9465290031195827 -1.7833135531234705
P 4.837322214956373 6.340837869081242 10.527926996087883 0.27757064086547034 0.06637071411575021 -0.9117471195537071
Ni 2.8013643170244804 5.419511921223704 9.314809969748511 0.5342389843606347 1.090883075889347 2.3929375392833236
P 8.882179953035314 2.6050876306932826 8.439859803867284 1.3091378526033197 1.0247221637915578 0.7315274432355854
P 5.135806989718224 1.1342770933199124 4.138605354940498 2.159477258473507 -1.196003142859153 -0.6917704750526216
P 3.562438871665449 1.3852677109094527 0.43415582629392757 -0.8861430458323578 1.0747159792111813 -0.08001761547522347
Ni 4.772978852528508 3.215071167900724 13.055670152699781 1.5890595101994696 -0.4104118278996287 1.7552265650792673
Ni 2.302123836848759 2.45485194955275 11.771088399506029 -1.2296272586715018 1.0268692920415476 -0.5123321569852145
Ni 2.5398521433146604 6.649540693536826 2.064900454710658 0.43505225215612814 1.4095142342405533 0.13355441105109903
Ni 4.1236590430077475 7.674941754206501 0.10925127695942216 -0.09935642501315146 1.2995700064092264 0.026313441083548234
Ni 8.301333032776338 4.258737797149836 10.225687019084852 0.602921120218381 0.5249004805685282 -0.5804201109023875
Ni 2.124922069567789 9.058416018049998 1.1940844142455724 1.6586862693586724 0.25598725826773977 -0.8866050730704408
Ni 1.1047174068071683 6.814317091658271 13.066263446702699 0.3583768136802602 0.47044837226723496 0.17348775691092702
Ni 4.458159913719788 7.584827937015505 4.607302971724753 0.4379293165936071 -0.10542217159125714 -0.2907753124812024
Ni 8.225438031810823 0.019722399426860025 9.834215232960695 0.5896071767182942 -1.68589831099709 0.5897642711214488
Ni 6.070183713917262 7.702772373804375 11.89743352629513 -1.5963935819670378 -0.8046848412558658 0.5357806178161418
Ni 6.714022013431304 8.432723723977663 0.7730317881304583 -1.4596139791104217 -2.8493723708802863 -0.01825354689354921
Ni 0.1192522735723524 2.1922361161100334 10.613511209791783 0.2796025836938346 -0.46503517167146363 -0.11296296005299256
Ni 8.87138248198181 4.658970802120302 12.409516007179546 0.4232776281187033 0.22492884630003843 1.1228439450666596
Ni 4.972704475525007 0.5557726908440107 1.9894119684134277 -0.7676028488019038 -0.030319476919147784 -1.13374953623557
Ni 4.4905615240447405 3.7144863942008204 8.690664638735118 -0.33537289658591923 -0.29976183225052894 -1.2910069473305636
Ni 7.0636614168129075 3.489818061240861 7.413230921744761 0.07968542894678535 0.6461830162308096 -0.5379105196749511
Ni 7.240375734378515 2.8355593744153897 12.212016097977722 -0.1539939098523735 0.3656432654346864 0.2559301797775593
Ni 0.4265332164053892 7.272786541867908 7.252708212177189 0.16254514185649427 -0.35888692054745935 1.0229064507390575
Ni 7.281827354513218 1.308066712593344 8.389044550615397 -2.238455119830306 -1.440259742953526 -0.17325712895735967
Ni 0.5626917176528274 3.4603043605503214 6.642656615952886 -0.998839382487525 -1.415798010366736 -1.1317332771364896
Ni 2.4344250473297246 1.016019952940055 9.726621285033504 -0.011493859572212462 -0.7916578328685786 0.6477120512808264
Ni 6.760706820132825 9.181271740650258 5.607978375511772 -1.0398327941807513 0.1591847100246936 -1.1109240537006224
Ni 1.9448507869812885 7.115386269627988 4.525999118351602 0.0648524776990109 -0.41471431192972447 -0.6785889433653409
Ni 8.775042184464388 2.255218298200659 2.0252855083147834 -0.6381619456985461 0.6936502085738376 0.4406508292898282
Ni 5.571338711812497 5.798343124540421 -0.028157118935521343 1.3356736941103189 -0.11779252023115198 0.9347530935305771
P 1.8468090140423181 4.8407711516216745 12.038692774941437 -0.5366712479512111 -0.7283986677986165 -0.6970507496149544
Ni 3.2544718203651284 5.562353082153831 0.006429737660566053 1.3000567162376577 2.0754942305926316 0.6717050717613142
P 2.5672780876771375 4.620287528482281 2.6257656155055424 0.8035342725911903 -1.6067255600206651 1.1586835804730884
Ni 5.166295589839489 0.5250964685681531 12.702359241273408 -0.6656889474742212 -0.10309789433345469 2.9621047029797114
P 0.44625469611580515 5.365874058204936 5.931809615756035 0.7587217442621901 2.378251655136375 -1.1872421088370715
P 8.47535258116079 0.6649779819812288 11.94217773129964 0.3163297639115391 0.16599736207115284 1.9644218026941327
P 7.278902656221043 8.182772385969933 7.362563742840372 0.9101815748388001 -0.7537690282426052 1.4444352144874544
Ni 7.594503354007231 7.3645006656716046 2.7780770966603643 1.441603401465614 1.4798459898865803 -0.1475142156653008
Ni 8.883127260972715 0.16004813588242656 4.112854214222692 2.1449165870505125 0.4991020314481856 0.1243570608225471
Ni 0.8699101197676669 6.1646937757109646 10.470259855327598 -0.48034120590091467 -1.214397843316257 1.0862244940714132
Ni 1.3396589724475059 9.069802107627714 6.000231920613396 -0.318211040094652 0.7166713520593593 -1.0745478290644332
Ni 0.16141667395121817 4.954558470083301 8.317054665671447 -0.03736764201518081 0.7167806239437139 1.6297014520905482
Ni 2.9085664657464916 6.7909287024853064 11.580911272631973 0.8804632218387611 0.8664825912889529 -1.8069281072186172
Ni 6.6172586463496055 5.3402415609084155 11.461808912840006 -0.14875734404378252 -0.48752743923670877 -0.9091706170757826
Ni 4.2723312061933445 8.688919936640698 10.532422570066549 -1.0837914591498885 -0.8610812177677235 0.609955144247027
Ni 4.397808120659232 1.9859345205383598 11.23694284084457 0.8555626019423395 -1.1237034648534776 -2.237895390672094
Ni 2.6243740845256487 9.252531370737605 12.270760226694023 0.9047020397814677 0.2949898647831823 0.558657008193683
Ni 4.625631081022387 1.214522353065927 9.073117685408624 0.8166731239659935 0.11929404447734294 -0.5551767629545665
Ni 5.367897434381913 1.7862548833640648 7.004649650611376 0.4031993693115895 0.9336302927800437 -0.7520682435014144
Ni 2.2504081811981185 4.842150726287795 7.319138411216671 1.8702924304078756 0.28272930224827436 -1.3969860198665551
Ni 5.99040750955773 3.2563848305688157 4.939883474501554 -0.6621056009983372 -1.9740467273784066 0.7994161366577587
Ni 7.704483046390364 5.848320516111748 6.953592511934697 -0.03756844517207723 0.9854799304614835 -0.08348989029454008
Ni 5.236663094976081 7.094223594249699 2.0721432217077917 -0.28953089855114006 -0.5639650506701578 1.0673716230309682
Ni 2.0680008188436534 3.202075574545868 9.269311597259854 -0.7476456889536865 1.2271407448042222 0.9075783328879983
Ni 0.2603137831831832 5.648843216555152 3.127981378377863 -0.6516864625475421 1.142091480442362 2.743350103811185
Ni 6.383770232690915 5.219418411649573 8.850365121801683 -0.4183457380347247 0.7525626666393297 0.8481498544180361
Ni 6.280246949745225 8.052614114803676 9.54907094522023 -1.006031786470906 -0.47396204184744817 -1.4042239323758912
Ni 0.8290048112007471 1.670499371712106 0.1331390721615223 -0.16504682523242545 -0.17965917582896154 -0.8143796999461265
Ni 7.0690693495041 0.5325811209900794 3.0219500286891665 -1.3055344515227776 0.2157968020917832 -0.3641250290179471
Ni 2.95373374031528 7.42335332092831 6.573951958147192 0.40711207410243433 -1.2879889864398464 -0.046620528072016484
Ni 8.215661446010248 6.509118386854632 0.7654643612285649 -0.6223476043741089 -2.0722628681395276 -0.21165732600211293
Ni 2.154196643982868 1.9870289831068153 7.340218312114994 1.4223923757548018 -0.056262679147470844 -0.9067440099121611
P 7.457263266221554 4.399160103832031 0.8553188183823314 -0.25845088931688387 -0.8404915665418298 -0.8584077847006184
Ni 3.920714412456968 2.6958360522306952 3.615027338221522 -0.6362912110383945 1.2460044144779445 -0.33393950657350235
P 1.1010937240174916 8.252073020031391 2.818715687458501 -0.6018068041082797 -0.5603536791698156 0.864989037462562
Ni 8.198370776861537 7.261630381401212 12.003196318782155 1.3797295467789528 0.5178782836144242 -0.20061958013071257
P 3.9907232281803675 3.3903139391558033 6.397640476384091 -0.22955246111497882 0.4819347756402796 0.07234338675941734
P 8.482839073015604 2.3087917810683423 4.179998113222781 -0.40887893619487004 0.461356951488928 0.12045412622371514
P 6.487661402214236 6.477378972369418 4.192394971172541 -1.8152062880670092 1.4770812826572495 3.0439318608598485
Ni 5.036128121508791 8.431160206022726 7.6382312723410335 0.1871536844337938 1.9407391143652126 -1.4744268757535381
