# total energy = -340868.41905106837 ev
CRYSTAL
PRIMVEC
9.26595658234947 0.00000000000000 0.00000000000000
0.00000000000000 9.26595658234947 0.00000000000000
0.00000000000000 0.00000000000000 13.56166407551257
PRIMCOORD
 96 1
Ni 4.182726855429686 7.468221884799329 12.759247007782733 0.7758424631028767 -1.7818552234103893 0.008552774666017528
Ni 9.204504596561152 1.1284823004223907 1.8658819378192981 -3.2462799936458926 1.9560716309572248 0.2874359636953243
Ni 0.9753901684588251 5.507110006473897 12.851547979464652 0.3314391087491518 -0.44435527472460895 -3.2163035018884605
Ni 0.6030543884613457 2.1520832401320593 8.88287583647394 3.1013376524728264 -0.6108984819969028 -1.0043091473528445
Ni 5.039383058328584 7.6288101755063 2.019454046325396 -0.22210423236704976 1.2858138331653985 0.7037878112284718
Ni 4.711257009599992 8.853389709955692 10.960183734895988 1.3389582783988618 -0.3976506715792184 0.5227402396924158
Ni 1.8848808548619136 7.559222842795587 0.28703801817744523 -0.9350631685718283 -0.9430600707343758 0.7814855203212671
Ni 9.148176847486795 5.646006693202734 7.0679325674753954 -0.1654250345074506 0.49359987068303374 -0.8378757261855376
Ni 0.14716099325942106 0.4670848173654397 13.249298424729632 0.6443138242325548 -0.328376410663428 -2.3730850233337715
Ni 4.694309575308662 2.2074102659131056 2.7947199412263766 1.7368902286639245 -0.8710059330806033 0.887229336918001
Ni 0.46365548689456965 5.681374848856102 1.3414695746818341 0.6665443534959812 1.0490093184736966 1.5192404325238027
Ni 7.033259358553494 6.532378818339081 1.9921815567957768 0.20328350011612087 -1.4237905416539092 -0.4513371053590807
Ni 9.153124868214828 0.030365465782459824 3.9784634791392355 0.38654427725341167 -0.6392127555605637 1.2231133688123839
Ni 6.624083989023224 8.994538024094478 8.09083485407103 2.3351779638753523 1.5072284956645912 0.886133532750661
Ni 6.212897906949917 3.814238300537598 4.2150872816292715 -0.914496143053754 0.7245170733560232 -0.3388670257821067
Ni 7.560807321343328 3.7798986660467992 1.9001650499759375 -0.5934892853815198 0.526853490529841 -0.7083278651906704
Ni 5.789564156010598 7.240455410050727 6.968051116846654 0.12358675831542587 -2.2857631608876505 -0.9105536134662382
Ni 7.730652302513414 1.9846752055003112 8.863998303460418 -1.3998900808872277 -0.13745400321582135 0.3321860142175053
Ni 0.5448614023597369 3.500613473605579 0.49444348028976026 -0.8754590837559504 -0.9781047210433349 -0.8021484479872573
Ni 4.916201433687278 3.9102428750004052 6.945091003434687 -1.6491171376129987 -0.8413474867842221 -0.9283672446088914
Ni 0.0697467071611277 2.0431341245511607 11.13628231005362 -0.4724466336441863 0.22404387259192382 1.014788963838246
Ni 7.352091652993291 0.3977624910083268 10.535310908595385 -0.25563167470053394 -1.3933052285808585 1.2703841288738895
Ni 3.947668072978909 1.7258492448334257 11.30542307853582 -0.6584021840048209 2.6076691333353863 1.895864108229393
Ni 8.503636918943906 7.420205698633296 12.281768567101498 0.7499522255996761 -0.42821491751932056 -0.108707012990116
P 8.551745764674134 5.600084613187517 3.0143777775122436 -0.03990017862904741 -0.9401133294012262 1.7644264864109807
P 5.595757411539593 1.074915806361056 12.57884995544208 0.6768897012860472 -0.7932380328715049 -0.5184333847869459
P 1.4464157970894933 7.774823116765339 4.577346334020507 0.23832892175602827 0.6987407357228675 0.3489951153550441
P 1.966847505349125 2.364180982575227 12.662525248293052 -0.0531434167921988 -1.6848809254761692 -0.2924244180488512
P 2.8691478095706535 5.755067000260667 1.551969866238274 -0.9211409020637813 -0.47710058747642997 -0.1885978730794881
P 1.3854087400232715 4.04381163678801 7.4960744232008105 1.6735585584848145 -0.8715710615554538 -0.8732363650730187
P 3.624110140765149 8.752918944498669 0.9231070093615961 -0.8078879215741956 1.4095551147808176 0.4360899493920231
P 8.80957100204771 4.309874309418552 11.14379514751858 0.8137459230168694 -0.04682415944239033 1.0666923375757567
Ni 1.5146039703808551 3.509008430121679 5.274619747142615 -0.49000238313976263 -0.15388206686485756 -0.44557834849843264
Ni 4.229223424742916 1.9083051926904995 0.5831798385370841 0.6835185194564745 -0.13965589596314656 -1.513894080610225
Ni 0.7896753837290008 6.109665886479871 10.50548842785911 -1.885465024383256 -0.02264987618903196 -0.11006404123864272
Ni 6.886940640732608 5.178075894016191 10.57425942980926 0.10364553930680859 0.2969341329937467 0.5250169515417346
Ni 2.0462474859081246 1.7807685685320127 1.2861406957095036 0.7568636080075288 1.2849741108729225 -1.4084950489474195
Ni 2.903181667499608 4.1221738302280215 13.527882184269894 0.31884790234770244 0.26995349063984475 0.5753023300598479
Ni 2.9326103450880527 3.5117140893961833 2.6817781250243002 -1.4667374775290805 1.6366760836361682 0.6324335278552011
Ni 2.955960555265282 7.031786071482787 3.2666119367822715 1.4379082120022137 1.6169621501470086 -0.309293425890048
Ni 1.445943233312097 5.490060646661951 3.8653993523124215 -1.4715266713876076 -0.6615199036981962 -1.4805556143590954
Ni 7.1320159220729025 1.9400781572530867 3.359142704183395 0.3029235178079622 -1.6425554252350807 -1.0595235877414593
Ni 6.765723398852244 8.07983987018361 0.20128066491900212 -0.498667000793296 -0.6134451596781564 -0.5692286130619423
Ni 8.610566056025345 7.07023979062386 4.827464148844312 -0.39243081794117574 -0.4279706627189984 -0.009765564027196085
Ni 5.132468856519237 1.4938482280010956 5.179619602355685 -2.215556875075894 2.57067044462385 -0.0693184838901645
Ni 2.601269009481882 5.342676343852819 9.03883578194935 -0.34423266096939426 -0.8422599712961625 -1.3689813071235133
Ni 4.46872060031865 8.353815669596436 8.64309234284484 -1.5871036720246796 -2.7342165169410326 1.1128505812993739
Ni 1.7148412886070177 9.152661570393851 2.3054959741877408 1.2257094116743341 -3.6586263195640734 -0.11865306845923437
Ni 2.6934652758562607 7.169802492351768 10.399666572569803 1.9493237707104296 2.179806456949162 0.9848212138315621
Ni 2.587249617419125 0.051774458089796624 12.523871329622407 0.09197298806488677 1.4132292211982953 -0.9145527073233024
Ni 5.21619603872616 4.338172540323813 12.689784765483683 -0.5947560679090853 -0.09670664609513023 -0.517453794482496
Ni 8.205745686012259 6.935605443848008 8.947673596311391 -0.8055315055268772 -1.0165632821298494 0.8751880894827507
Ni 4.29197248161601 5.616337100747382 5.14374923186438 -0.1817152870270419 -1.142659180020374 1.093030204139337
Ni 1.4613339869249453 7.581044170163594 7.557101865371156 -0.13514618101825113 2.0740616119111634 1.787041138486703
Ni 7.54640802506737 8.711917087342224 2.607039847139969 -1.7204372253142244 -0.3811979253398338 -0.004261089269199113
Ni 5.099139211278168 5.8363850337985115 9.067572292593256 -0.8985928415599364 0.3091728411517837 -0.1841958873570505
P 3.617447918099503 6.571230973606194 7.285271134869451 1.0522537935529235 -0.7121418396201219 1.76835616048269
P 6.512531139688437 5.0638637151889965 5.930488234004029 0.5190607339582997 1.1523856632795184 0.48575672048953117
P 6.231615138917379 6.315509108339853 12.491635067238843 -0.043791543263653615 1.1454915072628467 0.17247242827253523
P 0.912313096728479 8.469575263145693 11.229423703982789 -0.17572975886756834 -0.2905292579086674 -0.3850661500459885
P 6.426765447069216 2.1346632420633327 7.192997961056792 -0.33505048024949396 -0.5590336748068114 -0.7354036383615399
P 4.0818576538466225 3.3062693036622415 4.84204320467481 -1.7656356762277334 1.2300376067360428 -0.33935527827243495
P 5.684460412343806 0.19395870615628513 3.6021674293680466 -0.28361247618417607 -0.9801011826480733 -0.8067391526817332
P 1.3259490976791122 1.6446053389469384 3.5839950356380537 0.6067674905476647 1.1045947690484847 0.3613364105292164
Ni 6.653614592132285 4.284179812267181 8.188302523052483 1.3784347392269292 0.8446212724394873 1.743506705539178
Ni 3.6678454550653563 8.248155968544472 5.957801493741894 0.04912323988921217 -0.17726496456517213 0.9103810924441159
Ni 3.471648093838111 2.888143020230702 9.01868232673686 -0.34842638733576764 0.5774957381667409 0.46225812314695874
Ni 2.923594569491845 2.42456722056134 6.757560091246633 -0.3876408527517001 0.42776754556925684 -0.5131299702961614
Ni 5.688148262998781 7.295068957187469 4.55429170785306 0.7387555855529084 0.9196887429982871 -1.4367982667674866
Ni 1.9919675132024857 3.737293798429775 10.978193974388638 -0.29176647274987816 0.4134783826400943 -0.09965801541397029
Ni 6.723646690751133 0.96452120157871 0.918940108759731 -0.22347720145517644 1.7215111751046934 0.4212677967775261
Ni 8.90810518261305 0.5610360558856781 6.940683187965914 -0.5447234288317263 -0.7723051393735796 1.3316296059479327
Ni 2.7618109704067546 0.4921436699064316 9.79462648964775 -1.2374611528936235 -0.5684549681207113 -0.47251708187080554
Ni 8.351832754922654 1.8903477691494397 5.188312922668493 0.21292847940505266 1.3440912287500528 0.25806650939427167
Ni -0.016896471531023007 4.357139953114603 9.0171636364797 -1.1058705504371147 1.2065444087101092 1.8502666221052522
Ni 0.31314021741127673 3.437577172083479 2.820717435152668 1.3557925763473813 -0.08971504526864549 1.6550219331332077
Ni 9.192069683046135 9.031842764639528 9.199961498128653 1.362828914368872 0.4517286843705446 0.7152963260887036
Ni 8.41757471571926 3.434908576634653 7.053991009446562 0.676437444239977 -1.595640248740781 -1.388691126847615
Ni 1.4883164520186327 0.6991525490839906 5.618190292031288 0.6381915133849008 0.19642996752939718 0.3614433684207259
Ni 7.548715248215833 4.754649483512677 13.159615085736233 1.5129036916724976 -0.6342728950567851 -0.41626751534945733
Ni 4.42322475429873 0.9213742755111428 7.5442314519044205 0.19636851816384246 0.9647982337424158 -1.9043636610599721
Ni 4.6462285274476915 5.410262229976912 2.8336962603095106 0.9075351383548886 -1.2045998833892286 -0.958844330151826
Ni 3.1733491588240046 0.1173644572011207 4.099270239150213 1.4480879807486933 1.2794500957308996 -1.319107819331838
Ni 6.3987822586822185 9.278094822445102 5.821412174820184 3.1321111862102575 -2.003879237358807 0.13664564838191304
Ni 5.370409351416489 1.4714153475094 9.511052085979928 0.5654943428304906 -0.2977987949868871 -0.4664263955920354
Ni 2.016791010450421 6.105746386914408 5.981805880442343 -0.22183066699068893 -1.2457100231659772 -0.9968390642280445
Ni 8.515775321853496 4.550872569934252 4.858886860254241 -0.5750416201992935 -0.34627925908577784 0.43288069842610616
Ni 6.629495307572233 2.582403522211708 11.159201653257341 2.3756139604032116 -0.326796724881134 2.4752064126865694
P 5.139844557829187 3.5751024972622254 10.28691563506997 -1.7357178056223783 2.3211657087566606 -1.7073333409424143
P 8.123686375960851 2.209346850804789 13.276516245116376 -0.30525396571335167 0.7931123059269178 -0.1258207898522672
P 8.405288057506956 7.6580998637484505 6.964945168254825 -0.6012445038469064 1.7813461449844545 -0.20791020025485485
P 6.312099236377463 7.7292809409633225 9.810873417633767 -0.5598011491004552 -0.8493266483349566 0.4976745549730397
P 5.53935553481388 3.7800098575238334 1.2963313945797088 -1.376416937465952 -0.06472083721715305 -0.08829296811013826
P 3.243140342575946 5.468480234160854 11.73978980378388 -0.541485381510403 0.3257412870334261 -0.12120900211186869
P 1.9810800144095313 0.668783376918963 7.819737060722113 -0.44056932531961535 -0.4237499397694315 -0.4622797204135135
P 9.08464018431804 8.215391546644994 1.116628362374879 -0.39747018013729607 -1.3426704371431264 0.014144666931498219
