# total energy = -381176.2142820539 ev
CRYSTAL
PRIMVEC
9.13653308077605 0.00000000000000 0.00000000000000

0.00000000000000 9.13653308077605 0.00000000000000

0.00000000000000 0.00000000000000 13.37223969863240

PRIMCOORD
 96 1
Ni 4.24861571172879 2.35104919293806 7.130132005061619 -0.02617254463030977 1.2611788082255377 -0.4600629152678528
Ni 2.7957516589648366 9.04444578866502 12.309761333341168 -0.47142847679231714 -1.9603082947463915 -0.5062779803713345
Ni 4.5747807998616326 2.5471100525207566 9.663542740146415 -0.17046825335831287 1.2566762923694939 0.38695745353143035
Ni 3.5963038085289103 7.489142928983632 7.847498763496443 -0.29826236488686697 -1.4124627753459158 -1.830783059459344
Ni 2.3895048599301645 6.347715873311593 4.803576029532072 0.5532967723230342 -1.1156993636020787 -1.0221477181961622
Ni 5.568817306729532 3.679053387038649 2.9784923672270796 0.1492239992675559 -0.6902738359024371 0.7831860479521415
Ni 8.082122187506219 6.865428373772655 12.703213331697356 -0.3288044993397821 -0.651580018876665 -1.8453956671661962
Ni 6.684433656948329 0.9813458626645167 9.631756742174085 0.08350248870003038 -0.46681643194160244 -0.9686623446835124
Ni 0.8322559187402684 5.233835464344518 11.865696597311077 1.1989200593956322 0.7261576942832397 0.2332322239594112
Ni 8.817439492137144 1.0013274601251325 6.336930196218654 -0.5887381438497795 -1.021797791055911 0.48278529656603303
Ni 8.63657268677347 3.4901372961867256 6.51189297401989 -0.8474913948984307 -0.42080628376007534 -0.9568725511374359
Ni 7.336425781496575 5.917257262081845 8.780960970865422 0.4753252407435621 0.17851580625313773 -1.89856196677653
Ni 4.578197863167654 0.5800245685182848 0.41856193173570716 0.4535492825190512 -0.4552706360855321 -0.2897545845261719
Ni 5.769419023165417 8.252454570431807 2.476258067158349 -0.6078180432993661 -1.0066151697782018 -0.08235114870440656
Ni 8.06960513742801 9.148593127235463 11.871031418873606 0.5293060658353916 0.4922605830463199 0.5222841259916038
Ni 1.0086915056455974 1.4610960689102792 12.012523422035054 -0.5953047413237038 0.7465087471357659 -0.652855543154979
Ni 3.2991106662340246 5.08181269335815 7.36789017351069 0.2763632508209305 0.7916033254815593 -1.486099684105776
Ni 0.2549586052937687 6.767640062103258 9.71288641339998 0.49935271400641096 0.9576716499999636 1.3521315825560263
Ni 8.226351495925643 7.631691115348758 1.4139807960319506 -0.918264866067567 -0.1946592487822196 1.709891588587894
Ni 2.5204496495074613 3.2419433798549324 8.376223527066458 -0.8072441173426098 -0.7715397219624648 -0.385535119262607
Ni 8.042113309920467 4.131083352454275 12.59507150094137 -0.8702178899616692 -0.4718951320160905 -1.0681072156454121
Ni 6.957186573725543 1.161737568317192 2.2164086758011754 -0.3899877557173219 0.8187893989780479 -0.5289597382395664
Ni 6.523740316236251 1.7242464896055971 12.409090978111436 -0.1658909184002756 -0.5957086616303418 0.17923211559387198
Ni 4.304120149119389 0.536260575909071 8.565507820194403 0.02580487687824588 -0.28155327966230226 1.2521984591037982
P 1.9891785342171566 3.350046837172723 12.668979656560097 -1.128343277618334 0.8972975197872803 0.286917372187693
Ni 3.2357579470790583 6.598732978310662 11.75173753605524 -0.247292044486587 0.006126938833344286 -0.4068891594583509
P 4.790704481977196 5.097061566774595 1.4107044353326472 -0.99854550539619 -0.9211954094508006 -0.2673859870229846
Ni 3.534559119165013 2.1397120503402056 11.876568157813312 0.22853636114563866 0.12659109235938845 -0.21889112474639077
P 0.5194256003805247 4.724144839772995 8.49113096043771 0.5406574862924689 0.0855899673566784 -0.8602214408705895
P 0.12007962464809475 1.4027501697865967 2.4912748726390395 -1.8559603300559198 -0.8797818795010204 -1.3884425011719186
P 2.5989050575524124 3.8014463818179864 5.705546435288225 -0.32302157410941784 0.45139906894526777 0.13563006263320512
Ni 6.418743280105754 4.542556248309922 6.6727745273097865 0.25871802693534157 -3.2645795632860293 -0.33424263963621786
Ni 2.2720730025175917 5.44271487959125 9.70236204114809 1.5429945975206072 0.8372082678048679 -0.6376513246107147
Ni 0.018276720420766408 2.558156120801454 8.458062193245688 0.7430166748221075 -1.0213805010128345 0.5774468872066765
Ni 8.52690688232913 8.127284069649715 7.9581540544542655 0.1161012485716581 0.29752831493431986 0.3694682956077315
Ni 1.2426507037132664 6.618805941100315 7.415067574812763 0.11098912415607337 -0.039266915920422696 0.6690506648576026
Ni 3.9539990717127758 2.3472392587171744 4.786098755740389 -0.21618246756597606 -0.7272568408846896 -0.7046223913146252
Ni 7.1751568392115574 7.875152307636381 10.149529543752312 0.5250470334487215 -0.0851402814137695 -0.8019407028518254
Ni 6.5152159310370035 1.6930178201404003 7.1234851773741035 0.5477174784630439 0.055177930723724324 -0.4312591036622831
Ni 3.5988346281432633 9.040708946707364 3.8472204116660365 -0.6565221933732887 -1.1428031617974062 1.2523272713721787
Ni 8.690670098096884 6.293600188922371 3.4006677977262405 2.8072587295396874 0.5965478697021855 -1.2840004341057436
Ni 0.9851101142208832 3.251454510607791 1.679299315985341 0.8474412583867856 0.2101876834351219 -1.8865502870276347
Ni 7.599950800040949 6.446746753455908 6.141856082189568 1.9569072394846425 -1.519372330115977 0.3720712804482173
Ni 0.45223279644609027 0.2886486567232498 9.878835087838326 0.028673199564976423 0.2564857951707131 -0.1167360539421796
Ni 5.701452354894031 7.973150759562567 12.11095677292746 0.4537937944296894 -1.4293441244822869 1.2059198877522328
Ni 8.201966089605396 2.2959376264623237 10.601952380082803 0.8745949359834421 -0.40976211013077174 2.2362216025140973
Ni 4.970401811129182 0.5469859518848447 11.036951848165739 -1.2463098615335053 -0.07119487497727094 -0.992494928326736
Ni 2.6416731680751115 8.237863527384436 9.66593651176721 -1.2547117124439553 -0.5471808892332835 2.090891538984309
Ni 7.073841825841292 8.44569224134723 6.2080758453697475 -1.0266111532841544 2.6619824020659704 -2.037669446435374
Ni 4.407134557609762 1.68249253423522 2.470240746587905 -0.4596196570828472 -0.29161709165620747 0.17384668291224253
Ni 6.78943982961173 5.560877659636127 2.155658041217212 -0.34292268390871905 1.5119035325427574 -0.671942641693417
Ni 6.389771334267796 3.4951989354154325 0.6315948148405072 -0.3596736781148128 -0.25105048308775474 1.1542216880469929
Ni 7.908710792992048 3.552293129531294 2.4408348154370167 0.7431269751477266 -0.49522969297697295 0.3194521115906047
Ni 4.157634117072725 6.284819980801817 3.0825154489500317 0.11680753061006334 0.7501059775687211 -0.681326396901162
Ni 0.7720242392252411 3.4608455716971354 3.993164647311506 0.1588088147425136 1.6767264146898349 1.8344453388022794
Ni 6.4699444104986625 5.670360733422391 10.90316285589549 0.34151037694222475 0.3646014544337334 0.16019669622897573
P 6.102920747220015 2.7073648396534513 5.092951040621174 0.3972151267036965 0.38508466198874974 0.418906238523885
Ni 2.313077762189857 1.5792314393564448 0.6764021995073353 -0.1241716842846184 -1.2248244379662196 1.2859760697748757
P 6.648234713583463 6.862376771782785 4.042508320565072 -1.1031991742525387 1.1804711086618251 0.20061212393154482
Ni 8.127576438702636 8.679980354599437 3.701262471221212 -0.8305858773923437 0.31756132232579504 -0.1268011514876655
P 3.0461840258580613 8.65747707405737 1.86344796396806 0.24064985657972102 -0.0018005435438485122 -1.477298283764062
P 2.5261051633749148 8.078951810588599 5.945391387852524 0.2602059243347777 0.2845730403252325 -0.8031637766256491
P 1.3517683161833791 5.1507112879857235 2.621694311574367 -0.1557612861654414 1.6452314294053472 0.007645432360399735
Ni 1.6339866810489327 3.371334958838583 10.416760340042469 -0.8772082052365731 -1.6546478376232407 1.5939651750312032
Ni 4.532067508536357 4.73910134413652 4.942312454369732 -0.25771092582706584 -0.22568655040166938 0.7007803918607156
Ni 5.713914585774817 0.3746444453737096 4.506056713012521 1.7572420528473995 1.6520867617642838 -0.38738374243557155
Ni 5.179226407178491 4.861850663699105 8.747048901686378 -0.9607366620785324 -1.9186754496969536 1.0752384273735547
Ni 9.114130125122319 5.366909066088401 0.8318740116648894 -0.40882520013879914 -0.4557041240785249 1.242908034940808
Ni 0.5395278000754707 -0.10741273543026304 0.45729169471492576 0.6676581553854501 0.8329338087992301 -0.3244907024557766
Ni 4.892174816406826 7.23374028819074 9.744444911703004 0.2543605212975942 -0.16349310759206037 0.6148448682391605
Ni 5.9111083754375855 5.7488526875989585 13.099124884711246 0.7620577506139584 -0.16173293036784403 0.2248578838527869
Ni 5.4011071087473335 3.6633294139112045 11.885313647108832 0.28214463338939794 -0.1334407682913702 -0.6258913558613091
Ni 4.007411243068405 3.1404913184911103 0.5097034157175885 1.025124541436299 0.5400026263172893 0.7025547101523191
Ni 4.383443527790202 0.05784156250739251 6.3595431151555655 -0.3026334973713691 1.0106967960467432 -0.592360056873083
Ni 1.8605726970632332 1.523772684630364 3.494126306452526 1.752418149096195 -0.5229289586644542 0.42401476339504396
Ni 5.613896960076892 6.388583584990302 7.347844620319747 -1.1314928789909093 3.999303401971725 -1.111553202644189
Ni 1.7700662021181663 -0.007305571709880434 7.541809559254311 -0.9441959841110319 0.1443864686695965 1.4880580933837275
Ni 4.131467086836234 7.0460759023466375 0.5922300628244744 -0.18418483161345697 1.3247729880374153 0.6766960972180023
Ni 8.159316754010446 1.918123717824285 4.3081210368779645 -1.2545939559191686 0.35500121233980797 1.0120353123525088
Ni 1.6310721270526196 7.007967423604877 1.0093758319600923 0.15247053122931162 1.1637820780419184 0.0539150048509007
Ni 1.3462407137765786 8.076174304585843 3.1847998484613904 0.4527260152868074 0.4586493227497779 -1.2746233637662177
Ni 0.5188965951253944 5.2931406994231 5.682960925950025 0.29984847842706425 -0.6070593107564706 -0.4401090978537453
Ni 7.4751731701737185 4.921694954219012 4.49430256343178 -1.5884149346369354 -3.9529530968419597 0.5031150092623207
Ni 6.835067674933319 3.216671729843015 9.04764357518135 -0.41995653416527035 0.701293069831076 -0.8792360342998793
Ni 8.379772156446295 4.551034950844651 10.189138241196877 1.1662235976038753 -0.7380598450374644 0.8995305228828573
Ni 1.708942796991728 1.8793482721805472 6.361602489672083 0.9385812090274159 2.053215107479457 -1.1758981445791619
Ni 4.649554185146353 7.181570685310026 5.219813627297053 1.274268037309328 -0.3053002455702548 0.08648831080123169
Ni 2.6306453728602226 5.099135559743759 0.41796805709696 0.029347342813865585 -0.7902552960940971 -0.019365806121121487
P 4.422036242775864 5.038359342867666 10.678348413611237 -1.7644779084742064 0.783940923840295 0.17184019400517503
Ni 0.43371943982311545 7.674578000799206 5.149863417732251 -0.2574777267703372 0.7155272111525871 3.099404954226488
P 0.9612272172103437 7.5184894726706455 12.017617952782215 0.46455977469694193 0.4995550598252042 -0.38853508243119533
Ni 8.416153830469236 2.013399482945137 0.4364805000666445 0.482325326210479 -0.23588894485596795 -0.23171193066014287
P 6.628846990761594 -0.3323952899199463 0.531282079129789 0.43130101264381204 0.5416170219922607 -0.9401837776278453
P 6.15380209896129 8.65747707405737 8.011576275996088 -0.13019500766056288 -0.5211350999888251 1.7128509283265343
P 2.7257201342571906 1.182422678811401 10.144193808536492 -0.7451889998830779 0.4183475378069376 -0.3802188492560162
Ni 3.1505597777511003 4.032125564573191 2.689518449932454 0.36474877864487504 -0.7961271814938418 0.9472748801466719
