# total energy = -340867.07618628175 ev
CRYSTAL
PRIMVEC
9.30774021965524 0.00000000000000 0.00000000000000

0.00000000000000 9.30774021965524 0.00000000000000

0.00000000000000 0.00000000000000 13.62281865226563

PRIMCOORD
 96 1
Ni 7.553957218162266 4.998200668832604 13.593134625994134 -0.35964796708319996 0.8174976767498179 -1.5800969016895434
Ni 3.1527270858662266 6.039736803021009 4.39999313361656 1.3313969211118362 -0.2093273923173556 -0.6671935570442058
Ni 2.8580254140103443 8.046215676864877 7.600157117676631 -0.9519645723128574 1.0661068973859318 0.9085633225090868
Ni 6.094224314455674 2.6405314475440305 9.697008564722365 -0.053435751221637 0.7232706025434318 -1.8013755528315043
Ni 4.931389709304415 7.7609334381439234 3.9146940723002994 -0.10974213912284972 -0.35292761764023084 -0.08950755724352973
Ni 5.956469758727448 5.774661668386948 2.5517449132810888 0.13039889614125286 -0.7890011119720218 0.8990512692535935
Ni 4.345662922992153 3.672508532493727 7.809157771163079 -1.285695048199347 -0.5245623805028192 0.6625506589555558
Ni 6.072118431357394 0.40092346515869703 10.633495680879696 -0.8400794187050757 -0.7294672182724469 -0.5333930914205717
Ni 2.754216186980824 3.333381016415492 12.16301150557691 -1.4843917002757336 0.5142694832172433 1.4662960191162875
Ni 4.499101021044842 6.3785013172294205 9.781824416993844 -3.962706062463666 0.991297565584525 -0.7833326008323348
Ni 1.710176270664656 4.045115990258073 6.811354985322285 0.6099518018129173 -0.32754517301138425 -0.16486710512145156
Ni 8.35268233239917 6.529817250504674 10.358818681401766 0.11438812253529332 0.9265859843387527 -2.1194891481163434
Ni 1.4951209321443422 5.288797627237396 10.613919641581886 0.6946454826075714 -0.818881444471222 0.41811151053673157
Ni 4.153123008141202 8.998267196271447 12.334686259105162 3.4311937330055744 -0.7639971337285165 0.2546816520824388
Ni 2.2401124619069868 7.427102026269023 0.3485953494624753 -0.410894423963002 2.115263797181086 0.0858247090753038
Ni 3.7975952537391064 5.937723969860108 6.8892775251632 -0.06076853743762438 -0.6233991855670749 0.03381514877723209
Ni 8.678537010878186 4.157879263409927 7.707423239435709 0.5959639721742575 0.9100972426551102 -0.4314563072747537
Ni 6.374703759206643 0.5569621458377685 7.707655002167981 -0.43696489579780873 0.18472450616701092 0.2279738037739493
Ni 0.5944611697646519 1.99390411676354 13.078968539060611 -1.258136678965104 0.7546126071898229 -0.8362813851152242
Ni 9.296673348747587 8.291344324139102 6.519199911199324 1.1312604512651292 -0.3590370729720785 0.9537044378220993
Ni 7.129356723350766 4.556334315853818 4.737947874423055 0.8305221140339438 0.6237480842660612 -0.012824405458177915
Ni 4.520359899780197 7.118466667256035 1.1734789369033396 0.8001329602191252 1.6412405630783993 0.5327958241562051
Ni 8.002739222148218 -0.11795513066436837 3.6502071868501575 -1.8871992334655436 0.6546542869266144 1.6149404917312897
Ni 0.1189529204193728 6.573265782000577 0.1531309426243757 -0.9312504796939576 1.2954266736648141 2.310582019703543
P 3.0675798780417805 4.163696601067369 0.8586939539059167 -1.4686974294689286 -2.2483749500471792 1.1267286248330466
P 8.000840443136829 8.723446857593636 11.307116389164742 0.06356615478741956 -0.9987717624743832 0.13454557131977474
P 6.5364722847847885 9.343202742266874 5.5037961885421725 -0.5289970192354051 -0.5802748435737749 -0.8340326982903636
P 3.1925549064041374 7.26890767294761 11.742815433452614 -1.3635485661437161 -0.45424579436544343 -1.4387420207574189
P 0.3683482358250726 1.7719331272360597 3.2618072862004017 0.7330878457441697 0.7680448214353288 0.9162822884198994
P 5.433421295271528 9.294234720801589 1.570138526252638 -0.27718163295716775 -2.1861740510384027 -0.39809624375706926
P 4.780111006990169 8.527826080719306 8.937141404489122 0.12705774758316182 0.08396734415159086 -0.42947141563424107
P 7.087192660009628 2.635002649834398 7.581057634679718 -1.8331073367171462 0.6842366285694216 -0.5173162404633671
Ni 1.746541611828857 1.0795024066759342 6.435719719653994 -1.09685137765764 -1.803422922278836 -0.2037864078944684
Ni 8.133996975180612 4.723864332647894 2.1038806524839737 0.6597669255628315 0.09706325810360059 1.3142193808912852
Ni 7.065421855560416 7.40521952893679 6.707494565721379 0.32681909347863713 0.21569010131058983 2.1499245817880652
Ni 6.355529814287714 8.656375281338395 13.147600092582072 0.21249601985332434 0.320880359396699 0.26420913195689977
Ni 4.475636207869783 4.884208773967497 11.532791859312482 1.9657268946588018 -1.469917417918959 -1.8258383138595586
Ni 0.2953578675436422 9.214895542894332 2.1669405926906444 1.8872084894369239 -2.0166961866178172 -2.0279175092549333
Ni 3.8080664615225026 2.725334268979156 2.78999420973513 0.766173315444229 1.2044407321035449 -0.5885147149850638
Ni 7.273179925723236 7.189261339612041 4.653513639501905 0.39296097941303293 -1.0720050080379215 -3.2204100678576664
Ni 0.8928710453368944 4.3787240163669265 -0.2534385977711282 0.342234656702759 -0.6025143716982656 1.0557646349196592
Ni 6.455885869683776 7.114957649181067 8.91170707347676 1.0726742661908042 0.6386250013778937 -0.9467768574643307
Ni 5.84231963227806 2.016326463030384 1.3452560755743606 1.4243068191686954 0.526789470061125 0.20887950614665962
Ni 0.7418073518224674 7.021619629934942 4.559475678188837 -0.8678190507121892 -0.4094831454377722 -1.7036080695720275
Ni 1.5390813893540995 2.347346937349209 1.528766551606936 0.7239740563683597 0.6313325814815385 0.744957343488246
Ni 3.7232729478276285 1.1439305846996353 8.674683606413895 3.603692643640671 -0.7882647480266295 -0.7473998914914677
Ni 6.016960762624593 2.466700090599413 5.594918965608344 1.148967381626589 -1.9309329269080682 1.0299548729454069
Ni 7.868903225066046 4.126177100111931 10.884768367494205 -0.09980971050048618 -0.2953104813473946 0.04598777958402403
Ni 8.41764105161723 1.7302996050892792 1.4898732281903169 -1.2418307427162292 0.6005184243141594 -0.8315469557540324
Ni 4.855941166822456 8.143528101198566 6.6466545215647885 1.7650450938315858 -0.013649215352318429 -0.2511926650925739
Ni 8.896384671474072 2.1481426804778927 8.405197533674455 0.13967183680274656 -3.0262951216146914 2.196748741230455
Ni 3.413688199308946 3.057955674621309 10.035426830993405 0.11744310731153322 1.111747320932866 -1.3478730643899883
Ni 3.419300766680846 5.754938566793156 13.184191611834393 -1.4704856317176032 -1.03164485905332 0.9407954430699152
Ni 8.2737713105435 8.827665625194241 8.825993024270973 0.7403432417550024 -0.2429160269060784 0.9388231498348927
Ni 7.740791488238797 2.519465670087475 3.7773211339224027 0.4293449173587057 -0.5041383083205124 0.13834977555721334
Ni 2.21094200395751 7.649743173094641 2.7458150206294527 0.021930738634820295 0.4146142960167505 0.19773711637659494
P 2.527135248055046 4.926456606970905 8.756325519259473 0.9807879243024528 0.18752006663427706 -1.4364439687518615
P 9.224454592133041 3.9492276501829253 5.330445110994554 0.6940839536771466 -2.4560925746752535 -0.818441528720326
P 9.194511591742655 6.80681560040143 2.379933335971135 -0.8607657434098337 0.4228389979193879 0.6646821034762617
P 5.8556297008382865 3.4449901297761096 3.2156120405561612 -0.3804646467182351 0.14371412519292023 -0.49164326117729523
P 3.463130915527077 2.27228931995783 6.477037709406235 -0.27905622427206134 -1.2685308777152347 0.8210280585005796
P 0.5222191437994749 3.0584582925949118 10.476233963131524 0.2864003233419584 -0.6710522686686636 -0.15175705010205476
P 7.490524968345518 2.9036891876862003 13.53941965700038 0.25051286541672985 -0.8174832785721146 -0.05751300661480417
P 1.0986856593351149 0.002653636745818716 8.340271391547276 -0.7712964956034072 -1.1770690249588116 0.7075688755374588
Ni 3.4654578505900533 0.2541320244198953 2.686937978891989 1.7775923343689775 0.8414580442201572 0.9037417327507274
Ni 8.098729947366136 1.540030778859794 11.365585751879173 -0.5887126899284829 1.6249076302463306 0.6661226925775302
Ni 1.1523820128483668 7.017570762925362 8.794701332318086 -0.6002083492729082 -0.3100231049672209 0.505750904223271
Ni 1.777192000478387 4.3178979338207135 4.1258066520499055 -1.2736448019030324 -1.0285968162556156 0.16468661367952928
Ni 8.896608057240117 5.7756669043341535 6.047345880676944 -0.5996771593597866 2.1288068259728434 -0.8632684552270294
Ni 0.8442678872894859 9.44139940192449 4.525950128575492 1.360781030700908 -1.0406316359329626 -0.19568049095788234
Ni 1.8218039995057778 1.9424136976899902 8.401233367101169 -1.0296507114414266 3.577656110367593 2.047893181045912
Ni 4.2457164081671745 3.724836648189949 5.225522678230907 -1.7347950366977931 1.1515765371146618 -1.5023588262771157
Ni 3.7028610734551965 1.9969663633064176 0.37217092474653085 -0.03602861148878311 -0.7951203374958822 -0.4768781870529787
Ni 8.851670287303909 9.156331241229333 -0.23383277370451108 0.15003801052841903 -0.4129803599577533 -0.4830331509107811
Ni 5.248485804206387 4.020050245759687 0.38026493566958924 -0.20296751153759884 0.9459893285660289 -0.06717238408143916
Ni 1.6123798438378678 5.536253209574599 2.043559049459414 0.5250853428858248 -1.2875269592017633 -0.6018546266270796
Ni 2.369006048915397 2.0324381614064357 4.464797344346438 -0.6106362294744515 0.9104088603582579 -1.1292300510986615
Ni 2.2372270624288957 0.48116363232233783 12.528374749103195 -2.4718130707343042 0.4826765389023106 0.40843824911302556
Ni 3.678000099242352 0.22818390614562864 5.182842035305786 0.13511558489063183 -0.11896237216953705 -0.12821165868194692
Ni 6.008276640969564 2.674551238164751 11.998120233144249 -0.7307841373116576 -0.14119187299169875 0.7940044787238841
Ni 0.8393254772157233 0.8762362519586862 10.652022737851116 0.5704460304088111 -0.5372651727814682 -1.2404536598630442
Ni 6.306487330900415 4.775913216136559 7.514128466850329 0.8067972596131782 0.5129286529186328 -0.17418581141921616
Ni 5.733940304784854 0.8809580685884785 3.4915688543187287 0.10169098668359906 0.2618799696030909 1.4034382032498023
Ni 7.304351547826872 8.070704341467643 1.601198455473252 0.6182796049523223 -0.8390815735681807 0.6385856634995261
Ni 8.427246639557199 1.1534896339383438 5.908107671152565 -0.7989050013492951 1.0400891331659312 0.4643237474267358
Ni 0.9313045663850692 7.614569222682684 11.822903884450149 0.26139763065003374 0.7636070973789495 -1.1585938489727594
Ni 6.251515816972652 7.1118302484564255 11.318995858048252 -0.268844316736066 -0.04240957531446245 0.909617474805214
Ni 2.780445399010698 8.70091281844377 10.070314103005602 -0.0362425272718021 -0.730343193119497 0.37822881540918085
P 4.027971132714059 1.6812478139617286 11.531933685661256 0.5582070651404579 -0.24117230474209436 0.236003101836329
P 2.223665684881867 0.18373851566874705 1.0974123604686539 -0.8500514423161232 0.3531034810964629 -1.5892335738834888
P 8.565392120376002 6.2741801644860455 7.982999366621974 -1.0285325386765836 1.8373126330477454 2.180078736773942
P 2.4801125443024117 7.6289589891121325 5.553750830474158 0.7592855871854601 1.2925724920454706 0.36613537457975653
P 6.1809910690839525 5.172059948997977 9.866135789743668 0.8865045429368346 -1.6790434928587856 0.15390803500678654
P 5.5248326122855085 6.032495381105026 13.168783578621387 1.6195489370375784 1.1220713285666934 0.26483879512109876
P 9.175644802252041 5.635892568971264 11.983925929260092 -0.5315683795070071 -1.0229301048881414 0.48099066655945555
P 5.296160049776654 5.498733708619161 4.946799604065473 -0.7110519489900528 3.672820094565952 -0.03457053888601788
