# total energy = -340866.4740333234 ev
CRYSTAL
PRIMVEC
9.23406137515632 0.00000000000000 0.00000000000000

0.00000000000000 9.23406137515632 0.00000000000000

0.00000000000000 0.00000000000000 13.51498221577079

PRIMCOORD
 96 1
Ni 8.050153085545526 3.6265021369154464 12.023225241766985 -0.980876113140885 -0.8282567150385349 -0.5970595192312814
Ni 4.443310265183887 3.2573058971529796 2.507947969808579 -3.519147315498423 -3.76542326001567 0.6479884448706648
Ni 8.22934004549227 8.562523446100275 12.937662330170902 0.5476789119156246 -0.3408861130946645 0.40987858110397796
Ni 1.2221372499825485 8.580123566979353 4.111635710195839 0.48273798826786546 2.3251352349273695 -0.78948936446235
Ni 3.7700640882832386 3.8766620921804402 -0.04913074666800513 -0.6899465344700053 -0.291030365914802 0.40400746703518164
Ni 8.618389517096297 1.7438709487174577 -0.010880494455307756 -0.08361921678355275 -0.07373769600378267 0.9400004579724456
Ni 0.6291498404652097 0.8828639859329093 2.366122021969258 -0.23472192113106027 2.3235797175147916 -0.35812844511488
Ni 5.535431931757513 7.185789541470555 8.802051303159516 -0.9833973369008419 0.6225337522429858 -0.14308369069777294
Ni 3.930589010298914 4.954674113054575 4.341390236752236 -0.6873011264273582 -0.5143358176788047 -1.7995948067819976
Ni 3.2441935300762275 1.641040441839492 0.9558712449603214 1.2291770585079604 -0.7962832474557319 -1.0914952555520494
Ni 5.299344685946724 6.439409598902389 5.2735059355564635 0.0558063083363426 1.3482566729816523 -0.32518335764742706
Ni 0.8163316507042425 1.2253322351998417 6.449308512639205 -1.4074519523948856 0.2542191106237235 0.4628075678925255
Ni 3.0524113104867454 9.128183574542305 9.867058995474363 -0.6905258040122431 -0.9433655177899366 -0.7812844600540545
Ni 4.167922854388127 4.350424842349344 6.69759303004977 0.08015799770782969 -1.5406286683915917 -1.0220646715640527
Ni 3.100206811887639 7.447288924038545 7.807889176116681 0.4334016039265826 -0.26903663525253024 -0.5510437146227994
Ni 8.625555148681903 3.238172922094508 2.3276039819782324 -4.026736301371698 -0.719567956880864 -0.007846492627612294
Ni 8.863535377063632 8.122732807533746 2.2969385877351436 -0.9229321896362492 -1.2810503503384842 0.17446400478126728
Ni 5.257560558466229 3.5648740116547115 11.356395814078756 -0.3085375215606299 -1.611354059931612 -1.410212031638526
Ni 1.3095930447599564 4.596207852547874 11.166983978030544 -0.6577146710194931 -1.4595815832105894 1.0832160462623925
Ni 2.1888788319307237 6.040784405707804 13.490533283682437 -1.7603068078156523 -0.9504064837971181 -0.07483015773701306
Ni 0.3673457338736069 5.79436424527808 7.618313897183075 1.134365572553014 -0.48624780119333677 -1.4510162101390818
Ni 4.3763725546632 7.055764724000311 2.7056048992108988 -0.2878961911611945 0.17014172325682958 2.0757991634275603
Ni 6.2662063106920805 3.376545330999529 3.886922057714933 0.22387572244517573 2.216358802151899 0.04829945843633618
Ni 1.1019005375132604 8.178829730062809 8.793185680884593 -1.3981419878478696 0.8564457758782411 0.6617708433667377
P 6.705489075885919 7.036086939323861 12.765670550805995 -0.6751963727440243 -0.9818328206271995 -0.6595635513027738
P 5.747658363113143 8.408416196703152 4.450700284459608 0.41954670032136127 0.3109289046109419 -0.29508371004856926
P 2.6186782161472215 0.40992214381550035 7.386789201071315 -0.146490916607109 -0.38273904457470864 0.6864200093739856
P 7.221867019054267 2.7808837373234385 10.286361098780402 -1.640086651979614 0.08309882550370849 -1.0060760094452803
P 1.247872578886005 0.21697643249948953 11.264142924444748 -0.06432077356525698 -1.0714360229083288 -0.31416283816720736
P 2.42182649689215 5.29508778367744 6.811523802042499 -2.142446528243465 2.174416139171526 0.5864192659086159
P 9.553098140319648 3.523985588122417 6.320510901918609 -1.3330056603598526 -1.1565449368635308 1.409803740456514
P 3.035355999225646 3.283262843528156 10.355962835992386 -0.5450054788485194 2.0006859272324897 -0.36203729325098294
Ni 1.6563505155107983 2.236471183982541 11.689986436791047 -0.378878790288354 0.4247313298460943 2.1834443108120656
Ni 1.8470985202322547 3.7428051392617094 8.282426664030472 -0.17801032737162892 0.9441928987872383 -0.31921377032755344
Ni 0.3235005639061179 4.223290286072779 0.08940510512240961 1.498158672152839 0.8661658313794824 0.44973222276580604
Ni 6.866798893113935 1.1826801059551106 11.819946615832041 -0.3161058208261911 1.3086223464194817 0.6143717852574839
Ni 4.557424794996916 2.1817593706517266 7.649952561489466 0.8847425659404053 -1.207538140081946 0.9444932036364766
Ni 2.1071389211114213 8.291272894776618 1.9275604369646402 -0.17830317602169937 -2.814101206382818 0.05551037436247859
Ni 8.413116333915875 1.0568752545088635 10.078473752839818 1.5498607285128212 -1.7601952219384525 1.800519632589112
Ni 8.646950468764182 2.0349193275147464 8.182605537737235 -0.7229114194318003 1.52432118948082 -1.8767824090075935
Ni 8.447282360806005 4.22959714995547 9.434322256351443 2.01584592280238 0.6037672702687602 0.6555824551678386
Ni 8.349105820834152 5.746836531655515 1.8389162184951353 -0.3942555298547404 -0.44154454474869115 -0.49419533817518757
Ni 6.742102129026287 8.298207674829182 10.816905015422302 0.40495286166758643 -0.6849526807998397 -0.42826608247223014
Ni 5.440127184856697 4.962042893989258 2.0505202741176847 3.3274468922342115 3.2240101265040995 -1.2119329267155323
Ni 3.2138781067572295 8.259267638235757 12.22116565685188 -1.2261670680370431 -0.4093625606995078 -0.666132205659227
Ni 6.3735799757403 5.640580188027214 10.567756189872028 -0.1495253325580586 0.01453496039138142 0.12229863563162163
Ni 0.11881374361962097 6.702007834767654 4.792790860618485 -1.2728876120220338 -1.807569854567674 -0.027355766305133533
Ni 5.815297862294276 4.965376390126376 12.93908160539604 1.6288987536835946 1.4308271367857164 1.4701709286906615
Ni 6.407542853281353 3.645302685766339 8.33075681758189 0.2545510400418455 -0.28620389106043614 0.1159464681613487
Ni 1.296360634886023 5.747224362231024 3.1397064325971566 1.656593905606018 1.3118454813424696 -1.1779331727313196
Ni 8.168201325481583 8.986726989155851 4.661790002866542 0.11298712842270864 -1.1345517204218911 -1.0184489291883363
Ni 0.37924566869882553 2.223349582844467 4.303115975980102 -0.3125088475035521 -0.4527506978771557 1.1836749603111034
Ni 7.408265780893224 1.792589856250517 5.944267226555454 0.8784672744546549 1.3200688976935264 0.3706607732539358
Ni 4.861437795889811 1.1803069521954448 4.908384687055244 1.8394440775684515 3.7399099462359136 -0.9936385550128759
Ni 6.437147253878583 7.526609510791573 1.4730793302414869 0.5115600547058803 0.19534316222312165 -1.3668958853493944
Ni 0.7636771862358934 8.155910789862457 6.4193190516848615 0.9807403588939692 -0.8294723326131909 1.2147778523634951
P 5.423635151336218 0.26063138080375237 8.954756822048012 0.8657940498623605 -1.3440359500320853 0.2735746323321998
P 8.113203256249797 9.166098630329026 6.673981535250295 0.6034839347003864 0.4786843870237821 1.2379414349641518
P 7.4387381832546895 3.9578294911978005 0.6500723766078188 -0.9780980361751155 0.3080829505217146 -0.5939335720077901
P 3.2696426030787125 5.237134814822724 1.7912213683626477 -0.3146642032836581 -0.7107824973787501 0.8438861940456758
P 3.699377348865959 7.05636493798622 10.01923724946139 -0.10577981204099203 -0.48814296133352064 0.34417275426573624
P 2.439001850950431 7.152094451707831 4.851270170968535 0.9318361769940984 -2.075950087183128 0.12909483261784865
P 3.150301594557625 2.603155759065517 4.212417178866529 -0.07293139805240344 -0.2337148200227846 -1.2037267367556561
P 5.653960342882295 5.634541111922852 7.1525478441187245 1.1295882057690287 2.1151139018667835 2.734487511214233
Ni 1.7557828878223947 5.967964598125221 9.484693137454949 1.3589678887515693 0.20252451046290929 -0.8928106876605204
Ni 1.3869375423901507 3.5761672686510977 2.6781428008402925 4.587044729125874 -0.4709535940384276 -0.26477631731427953
Ni 3.7796582779964396 8.77125940227632 5.516680323431625 -2.7868750236770135 -3.108385303348227 1.3565189129904442
Ni 4.306535348887512 4.686064503268913 8.993261010947053 -0.6830246105391915 0.5609476040000726 1.5448496484514749
Ni 7.532214586013818 6.910983876538061 6.246746449862822 -0.21425516863627617 1.650174375232919 -0.7465889655543981
Ni 7.113920842204104 6.87686401995454 3.629921509822856 -0.3218409235377554 -0.5001710961426483 0.5839808316704523
Ni 7.1292493839980535 1.4063752414722372 3.672304004476995 1.6853450095967815 0.11531346256304012 -1.5275209273650403
Ni 7.516073446823563 6.0474236957980745 8.272656103746028 -0.7871725434037152 -0.7566283520682711 2.065648191036488
Ni 2.7810499504272284 2.3659050215281994 6.315510657712932 -0.2682390790518993 0.0836331007406237 -0.7636256093217108
Ni 4.247852889188385 6.624783379934642 0.3727014894401676 2.325361749115879 -0.2781367977815855 -1.1203497178898965
Ni 4.361819674020269 1.6711527158094135 10.08159578897267 1.2641497179284034 0.9356259830538339 1.2412954390380495
Ni 6.006886166596003 2.1514531813940505 0.9467692307155646 0.6142594280493356 0.8620327830477155 -0.5779153422026628
Ni 5.335366759162505 8.812471017954872 12.824528457670233 0.8828589757644473 -1.2899959895675461 1.000291284442703
Ni 3.3613922363706905 0.5382128045695372 3.031951400816351 -1.6679209005830629 1.2836268528164085 2.029495138154698
Ni 8.5146079019022 5.80222243146281 11.779928964282378 -1.251425842603832 0.8005751899628664 0.929108236539974
Ni 1.3297971709317407 0.07655498538719252 13.656618957426012 -0.633208972568645 0.957642596534241 -2.36668760444786
Ni 5.812130579260947 0.09790413516286217 6.888370583767457 0.5743618205234495 -0.9383649792515517 -0.2023414479178257
Ni 7.708788306606532 8.477727060983506 8.555713325875555 -0.3428486361376741 -0.24994825116251146 1.1063498040663784
Ni 5.488162771851953 0.4335207109291255 2.5406134617339386 0.04731164060177013 -1.263152901232773 -0.832719893016211
Ni 7.102092009651062 4.543721447995579 6.050806132460197 2.5846999261337227 -0.35876350759571757 -0.8477551900827787
Ni 1.4397471390887036 1.8232931101450245 9.366761246691546 0.6960696166486077 -1.813276160923832 0.27468843422166883
Ni 1.7786648917774592 4.183020544649035 4.973458964001221 -0.030590214082031185 0.5541195253346456 0.02906066481138221
Ni 1.0750017168832753 7.115361355770283 11.456123676352645 1.8557497567070103 2.1195955917872205 1.8187127585583711
Ni 3.5005126042427666 5.535238016469758 11.605666529238475 0.970639265904225 0.002093649304235104 -1.3302826050017347
P 0.48882350418452575 7.060400222783783 0.6409361963361719 -0.3911123562400684 0.48677050646602615 -0.7779317415317376
P 5.681560952172726 3.0378030254758848 5.892072618340924 -1.1393810234897344 -1.5215467120594763 0.6645286086175329
P 7.50496487105361 0.5015092576282174 1.6451246671620605 0.7720395444170187 0.08689197399755358 -0.6554114768076131
P 1.3473972918108177 2.486289478978634 0.8511496023236803 -0.4407336188116216 -0.9936377836819273 -1.146840050870941
P 8.198045811673175 4.818416304192214 3.889247194355726 -0.22155298784927002 0.5848238963970379 0.18140341221357792
P 4.073052108369429 8.563003617289002 1.1306498640321054 0.1289084276386554 1.5941235549859385 -0.16940227398764374
P 4.874134630207088 1.5628187083837404 12.55036363659346 -1.3762552150771075 2.401772621076451 -0.014727536018161734
P 8.867025852243218 6.915813290609288 9.985639117342545 -1.6861983587360123 -0.09073397345146308 -2.5057485471394845
