# total energy = -381166.0830405673 ev
CRYSTAL
PRIMVEC
9.29088572922736 0.00000000000000 0.00000000000000
0.00000000000000 9.29088572922736 0.00000000000000
0.00000000000000 0.00000000000000 13.59815040184310
PRIMCOORD
 96 1
Ni 2.823193482545717 5.708115607879344 4.836780137927953 -0.9089479595420152 -0.9955640541703626 -0.0915749812955197
Ni 2.892419869874542 7.769828120693411 7.532762817184679 -0.6124172326342743 0.13053696438101392 2.5072359303182883
Ni 1.7042178232907106 8.838233490560311 12.319570069657585 0.6470350798184599 0.9699936619004264 -0.38760639996933893
Ni 1.107668651688347 4.978372302771943 9.543670910297838 0.7765937394466045 0.04526427115443817 0.042409832424778575
Ni 5.971038374624537 2.7182900951708997 5.904112410527842 -0.8776890015277335 -0.06483525130783027 -0.9318608595844466
Ni 4.056372705489614 7.329663132625981 10.466115540992197 -0.7905044359904256 0.4025992738337454 -0.324955300797021
Ni 6.41781847311716 0.12768463844585226 9.258259555372613 0.24194569257300916 -0.0817435970273947 1.2303291698345327
Ni 1.7520287197065116 1.9562330905426746 2.141205328541545 -0.5616364025369811 -1.3246079232144607 -0.24915146629282897
Ni 6.357799353248122 7.063943809366768 10.043362601306589 -1.2268905764666291 0.18624094281153733 -0.906959982577709
Ni 3.064124723481309 5.27242882658852 11.073449572400131 0.007106786248110341 1.5485378959363394 -0.5587966190953408
Ni 8.433513230403156 3.5775947975807396 9.694393228252554 0.009563218208402885 -0.9977376647829139 -0.29062875960100915
Ni 8.080859092188122 0.5489659018795642 0.7340552050348352 -0.5483378856558622 -0.7240298493069595 0.8304866328103182
Ni 9.034159682479551 0.6243354226538087 3.276542237036393 -0.10905076948277993 0.21003521701765765 0.8815657108743203
Ni 2.6033525515331464 3.634743033852328 8.178634512262084 -0.5291520567560306 -2.9983652279736424 1.8845525398713157
Ni -0.046230516804388874 5.11512484539615 5.153957030133711 2.756696443211104 0.1908640434058455 2.6761011008555395
Ni 6.754947541780931 4.508383572478565 2.24213128786436 -1.2386158353233572 -2.9726354273077065 -2.9218206586486843
Ni 1.1698804205185462 1.436538123206053 10.45567165668186 -3.3273710446909535 -1.5173668696501739 0.6844690562952018
Ni 3.3778314699794683 4.9877282243985865 13.515690737892252 -0.46632329435526787 0.6130319834001378 -1.3132575311986479
Ni 0.1374056918698423 2.665843046926205 7.263342934259236 0.41696402719584963 0.1055880077451601 0.35140398190685285
Ni 8.879912402593206 0.6476815595589048 12.190537323736036 -0.3998317383909372 -1.5121503584462408 -0.6005469635592496
Ni 4.280032190413357 1.1053273485603288 10.36984059891496 -0.5300730259084032 1.3553374910878337 -1.0429767391263713
Ni 9.245304344730911 7.91062219847908 2.022153780835988 -0.582858288030235 0.037790588485212336 0.7231757288367804
Ni 3.686939228190449 7.621285444460255 13.074199940474152 0.06513632748801684 -0.978166941739838 -1.1008376159988977
Ni 2.6295249757856363 2.8452035901261743 0.0850692051617487 -1.9730573668819436 1.6601736525374764 0.9598264915594372
P 2.6397170771008587 2.665480702394488 10.304813691799882 2.2658119145767044 1.6206866501864474 -2.2399378750234193
Ni 7.834539137703917 7.327516938091965 11.751820784706933 -1.4193839279457812 1.5122274915410794 1.2763166923082407
P 1.717355135286813 6.669471395837408 12.079005818696425 0.7206136245365589 -0.46695938527736996 -0.20676220269334067
Ni 5.6218218640181 6.571210991544071 12.165258682661783 0.07430590980242686 -1.012026313491444 1.3859140783231099
P 6.312589904752341 1.8956379357770594 1.1174742521697378 -0.7219683387922405 0.9679766314703975 -0.5428822618579295
P 5.161644308737372 4.362758234270001 9.713729419006649 0.14092473537324116 0.4212821949552293 1.3623972261480923
P 7.302459420090913 6.401810277523608 6.176375304394451 -0.21804368914443092 -0.7460837437832053 -1.0441761587511114
Ni 4.270183851858994 4.296978765435203 6.719131178453509 -0.07085703202187796 -0.208638336670131 -1.118151938907629
Ni 8.4575952054342 2.7917066718280434 5.1070975203858024 -0.8697489207450505 -1.0323254300601123 0.5000890779518034
Ni 2.013093309365975 -0.2025403732558928 3.283599593607991 0.1859648063320152 -0.6420923911012038 0.3528553696413988
Ni 9.229677075439932 2.754691784280326 0.8592889079046112 -1.860761865209621 2.072659075136682 1.2312699364812474
Ni 9.142435661264967 5.553831164451284 11.645183718111129 1.0935652507072005 -1.4564391809268658 0.3800391291450423
Ni 6.536955496968661 9.160655087590538 2.680929586685237 -0.3916785131561835 -1.5239146980710205 -1.7120019500626773
Ni 3.017623841910947 2.9216489954330562 3.6518512702806327 -0.15041339158996678 2.7672731902856857 0.9321997309811042
Ni 0.9811546648065039 6.570337648313777 3.6312905408270435 0.3157114136012498 -0.1494602836480781 -1.061794643163823
Ni 1.4107466252561378 1.6102498080654069 4.957749324385982 -0.5380840691383378 1.1427023745534837 -0.046703060483493763
Ni 4.137314899343959 1.6316652989784308 4.918655136679334 0.3402410233114979 -0.8602124420095248 1.2526828549393845
Ni 6.106425157090734 2.491174400867701 9.130749585572818 0.15922250524116452 0.2179932955224697 0.008701127318423724
Ni 4.56795672984703 5.535704646980001 3.2361008709425922 0.0568792296855472 -1.0889889441904277 0.5170971824740256
Ni 6.650954661178121 0.8657600096056617 7.037681263525621 0.36377947275307027 -0.8781006351438554 -0.3835144892881524
Ni 0.8593669513422119 7.006990681689182 6.248023825554523 -0.5985669570147434 1.8079938294789704 -0.22560170399734691
Ni 6.839912689025879 4.447026565107802 11.39495044268438 -1.657503561904481 1.0421714696162567 -1.0214830880289698
Ni 3.8659002633169868 5.751067371215965 8.65942389686626 -0.01828208613863948 0.19815646330220066 0.8353699290445484
Ni 0.19014540300553906 7.354023834219886 13.45304415562399 -0.8870961537742464 -0.002351530951312079 -0.4819381180743893
Ni 0.3002814170537689 3.767825676732222 3.3532905252082483 0.5233740166216728 -0.9046351910992743 -1.1750321970344408
Ni 0.9984821661309246 4.929511536302704 0.210650387146556 -0.8902141305779379 0.023621238963365772 -0.6662939280480719
Ni 4.164806629327316 1.2673510995504487 2.5100414019076482 0.4621192835762493 -0.734411963872232 -0.1786775286419826
Ni 7.714342952913551 7.392432354581899 8.02736867750979 0.6077360251085211 2.773751598921178 -1.288989916900535
Ni 4.971171866564743 6.051070061706874 0.946283184527175 1.4648795983847351 -0.8333518701732551 -1.0655530817649908
Ni 7.465328641655039 4.875345674253711 4.152970041291224 -1.7310473967299025 1.0523083009399425 1.906201228489343
Ni 6.042225138778805 5.556990065497023 7.996963325856011 1.3436011764875118 -0.4268735730000778 -0.8683466410808851
Ni 2.4907656019088407 9.08938470546741 5.874128865072524 -0.5779153422026628 0.8542006885978064 -1.1697596357815918
P 7.249733645283359 3.2597721888376907 7.358081163886575 2.3801167333695723 0.5289890488156052 1.7529495961196329
Ni 2.2397630411685987 4.526240654272418 2.156435877024721 -0.09341074895267783 0.7726208708417854 0.03852849509250139
P 7.728260699285659 1.3562834548734275 10.576042510118283 -0.46919007438010163 1.4641818009867622 -0.5972664930357648
Ni 5.102637895380053 0.14704405641351742 0.6100404663332972 1.6544817443590218 -0.9426808330180863 -0.5415825692098994
P 8.987008438929184 5.2881025503066414 1.966986361337787 0.022266524707684233 0.979964657070209 0.05031314643225528
P 0.7776322449608035 7.923601565422897 8.261284370858213 0.018760825547270914 0.8569355710304661 -0.2775228183466704
P 1.0487365654144591 1.3669772640017968 13.58675486235886 1.724182037068637 -1.7500825589844826 -0.4783275179049955
Ni 6.808741768412778 6.687811603673551 2.2274043053714165 1.4482756712794669 1.657235652955075 -0.460911122200761
Ni 6.283035598203825 1.5153062498700953 12.38096609874715 0.311932663285108 0.8829445934997182 0.2530268900878352
Ni 6.031122530691576 7.209271839241614 4.33098340610404 -0.1851813911987714 -0.24250336484869203 0.7076781474218136
Ni 8.885765660413252 0.514295104725494 8.833834256309848 -0.5565031950754737 -0.005003623862178479 -0.4857482358490989
Ni 0.36862331208978716 7.89596118127268 10.39656118540774 0.474537454734944 -0.2379648535483902 0.17908530560336255
Ni 1.450966868276737 3.6536871492413328 11.7405750969841 -1.0053471016990558 -0.2855991675969017 0.4132860641236302
Ni 8.357959750097425 7.657399116121393 4.726390482707521 0.162366707297101 0.21960717697680887 -0.7555037515455247
Ni 4.397246000981127 7.715643676873561 2.234026848504954 -0.5392840029837099 1.5475307948280637 1.2136175135068066
Ni 8.309470619045333 3.0014019559525345 12.258895013277284 0.90867336572439 0.13443835631794912 -0.2507242100965876
Ni 2.0303836471486814 6.787595713177185 1.2186529235762118 1.041402709771032 0.11012291950103614 0.7524793628969041
Ni 3.619812580968497 1.22644333100813 12.87487792993074 0.9362736439401619 -2.4924474591552044 -2.179213046339537
Ni 7.767152345689962 5.227107887467596 0.06304330307606276 0.04338608029511883 0.5117857975634412 0.23414368003008706
Ni 2.474580879492143 8.987547310284045 9.77590030794096 0.7391584774182818 -2.1103051676242304 0.793910119237865
Ni 8.809143728283226 5.2597932224055635 7.549270862414294 -0.39762418921665715 -1.3563595045944448 -0.7791712703657936
Ni 4.0119994366824105 1.8753280602300442 7.4935599261185155 1.2823852670998237 -0.6890965277648843 -0.3767756279024221
Ni 5.348669832415972 7.977962536065891 7.882303579692574 -0.6301773848311728 -0.10345244945939602 0.45516187842180966
Ni 8.282917268490268 6.020911847605496 9.604169439854992 0.05061242284022897 -1.1064801589966557 1.505136131911937
Ni 2.0817157891419384 5.488051695616486 7.297705274017075 -0.7086410255557151 0.5986235212842916 -1.4388286669339543
Ni 1.9494135806380501 1.0035178260332496 8.154647304262411 -0.8997369824667085 0.8033339836549261 -1.869547581822051
Ni 4.259016207573764 3.4770116719302413 1.55126290556749 0.45321143956365817 -0.05258523029588362 1.695889617881847
Ni 5.827401285897702 3.8521776255388795 13.625889929961394 0.6404008623313939 -0.6195744125043459 -1.468662205355619
Ni 7.117765908654901 2.030123502356679 3.0763097197209754 -0.18158544631739695 2.0479024370172927 0.8400295393037468
Ni 4.350039012118188 6.738827855562234 6.201299962733873 0.8110305809682355 -2.3674645918232002 0.1020116032478114
Ni 4.033442800251721 3.36336556136707 11.70273146245615 2.2342539372647647 -0.5611157541468207 0.44571950206198724
Ni 8.964617405046154 0.04885333376089503 6.3603171831992835 0.5529309043431833 0.43412742634901363 0.016713713210255086
P 6.764377790491005 7.864084153367004 0.37419970152405924 0.2570452672186089 -0.3850939179601303 -0.6988086128463256
Ni 4.830656515341934 8.802119818899172 5.611467172207877 1.8066175179567334 2.6296155556994907 0.8902753228331765
P 6.962264359235689 0.17074975058470218 4.656822190794922 0.65802834560517 0.29937539544538766 2.289002750870871
Ni 2.8422305067890083 8.984323373040306 0.9903080451308037 -1.9757976486312425 2.11750759890994 0.8803740045590643
P 2.1944049385059596 3.587498881447674 5.812216262753126 -0.15634595502431786 0.021018254122879932 0.27249939699015
P 5.58167594808093 3.7081874831657573 4.113032241187655 -0.8837508914510973 0.32672447688230183 -1.3890901620582463
P 3.575039804087863 7.846096999177149 4.259226181584452 -0.6917437355797441 -1.431883860185005 -0.5515206542592179
Ni 5.318493036543736 8.895613998967614 11.536480358595997 1.00653957934526 -1.0018226334855649 1.323258608275418
