# total energy = -340893.8494102674 ev
CRYSTAL
PRIMVEC
9.06662669413359 0.00000000000000 0.00000000000000
0.00000000000000 9.06662669413359 0.00000000000000
0.00000000000000 0.00000000000000 13.26992463553761
PRIMCOORD
 96 1
Ni 6.413523038036323 2.0609257980581766 11.397444892933578 -0.2835895933660406 -0.5351794938970332 -0.2911339813722018
Ni 4.770124455910543 0.4546713712869346 6.0999854944918575 -0.20396947043955194 -0.9013927729025767 -0.6101549189626588
Ni 2.8299298560316855 1.4402517492626223 5.005309120095902 -0.5999134437403087 0.03781655662714132 0.25743298957533084
Ni 3.4786288472703357 4.407051398604235 5.086016602351311 -0.028977875289588804 -0.2290616375214894 -0.6691720209268153
Ni 4.863229643211791 4.66294786431564 2.543751764546841 0.7437926337561835 0.1817847068123966 -0.17287146348316682
Ni 7.329841643022265 5.868500920572116 2.695771890701289 -1.1957416616676504 0.46609600883581015 -0.5394853203612386
Ni 5.160297659759205 4.647888197735898 11.576442766172928 -0.5936430373505648 -0.546822220342284 0.09537610020916477
Ni 5.725166622583468 8.038153703352911 12.27475977747437 -0.40351278678695024 -0.1322925136195399 0.7690997450624044
Ni 1.7592791351394377 6.586949469305022 0.2285333870011939 0.08511302772025987 0.36650304233182046 0.5150932646701194
Ni 2.8236104173766097 1.5367931879989833 0.5136008167424991 0.09721392474885193 0.3033613766763291 -0.25896948082451526
Ni 0.5614009781964782 8.882138762298407 4.716768265750925 0.5284182639137995 0.10060289582574287 0.23802630291394491
Ni 8.436849536090772 2.3147006731737605 1.2274933856702746 0.399559458566157 0.9226113159617207 1.0906689029960122
Ni 6.920447191040518 1.0745584369042094 4.884725707928173 0.2619118512822909 -1.354860808561731 -1.8302752665849897
Ni 0.7863131545824107 7.2034800698001895 2.566682169572022 0.35839686828491824 0.2803389476392269 -0.057632820022120106
Ni 7.7927110579704895 3.7575454776090536 3.936403724800645 -0.9083278094595131 -1.0851104350716279 -0.6761849619095386
Ni 7.721900705178324 3.804691935293978 12.535022730497518 -0.0027163704898985476 0.5474035467670508 0.31744613690416945
Ni 7.912635326393278 8.870261481612397 6.66819006919733 0.14671563102340537 -0.35259645955305724 0.2932253166835918
Ni 6.716783560468122 0.7198701957646353 0.47703783214519235 0.18982763172153114 -0.3308459552498431 -1.072815676864675
Ni 1.6675974081952154 6.327571419026114 9.285988065526288 1.1392648096268443 1.1095734532099988 -0.38947919151201954
Ni 0.03132156783045007 4.988847753062682 1.434731080400247 0.5677939374979447 -1.3317144523522548 -1.1435657509950434
Ni 6.59645129385383 1.8436259612630632 7.060581876545127 -0.6255915652327033 1.6106328654948712 0.009514367248338453
Ni 3.3537632674171087 4.314272609856189 0.5418578648234291 -0.15100063155200444 1.1337726761640217 -0.952271819140631
Ni 5.7711344188262705 5.310767392785937 4.7656673023340215 0.6616091209778927 1.195938865280121 -0.1096143552957338
Ni 5.312254319528308 2.9941536614253463 9.151789300376741 0.33251177298804024 -0.6275677151224676 0.275494475062732
P 0.11765307849008146 5.506842256996356 12.405349118623077 0.8318673152079287 0.5083490039677503 0.045182252963593156
P 3.964971758169766 6.278421236889581 12.598293276710688 -0.022783316443102695 -0.31506298138397354 2.008886203655095
P 2.2105795347019 8.522919021245192 1.4308822974603914 0.8964804232026239 0.15967836183166048 -0.1257868512905382
P 6.276045780752378 7.757976811933769 5.589490903980677 0.16817688622097487 0.3315913180562999 0.2738299428761155
P 4.819682636238581 1.0559174528657085 12.543899864482002 -0.21422611517055365 -0.15624182534628575 0.5353921241284714
P 3.8545855808016976 6.162903348935037 8.435200316734448 0.787735872106353 0.08251338531388369 -0.3191754608904503
P 4.746415227670912 1.0091699267458103 3.7720421066845202 -0.036859592030510716 0.439752742955591 0.9665116168890966
P 0.2696940578854286 5.347115498335719 3.57382933195062 0.13631371896379105 0.9600185529655854 -0.702958630458957
Ni 1.608773135606794 1.2060607873392375 2.7709061176607506 -0.04347864000892512 -0.3169565988622606 -0.8814181295528627
Ni 1.8792396700681373 6.311976821484178 4.880040982027058 0.7787089860173944 1.395285749345997 -0.572733026670775
Ni 5.997192616799006 5.6387888721288 9.20095398911564 -0.7074799153680783 1.0976345356805677 0.4970883434522665
Ni 8.57827077589259 2.4435827685566838 10.085115989972522 0.30611245705890505 -0.17528161558655617 0.6278456513742026
Ni 2.3176201268996346 5.333007827536153 7.114471184341643 0.1535732773751871 -0.22026280828293682 -0.4490066574536912
Ni 0.5429422333501823 9.272710897712095 9.39006387086576 -0.15878773169659105 -0.09477523340037226 -0.45935509056755086
Ni 1.5343814653558696 1.2166778069448234 11.435715123296667 -0.8041557082252732 -0.24714292050323244 -0.33642936287489156
Ni 3.8137766950248038 6.990532213714454 1.5327694191681043 0.5673699625866486 -0.5614469122339943 -0.010120376263453539
Ni 5.689979045222854 7.8938130098252195 7.811089109841133 -0.8906884991111952 0.543070980829968 1.0494250658548765
Ni 5.376627367521186 2.8550444113753852 5.034834589221086 -0.3488503622470637 0.22756474126098872 -0.19093192052930344
Ni 0.6839808615146342 7.465877306696228 7.036297824186799 -0.2099855947266448 -0.7106176896661116 0.015878876013785556
Ni 5.000208236039453 4.704083148645737 7.065597534312684 0.445641083415568 0.1519102878504674 0.47349770061652
Ni 8.205732160543384 7.379708088650552 9.131326831078837 0.46695784261547324 -1.6360050257110728 -0.39936868271158965
Ni 4.756887181252853 0.22950079604638268 10.208260724120247 -0.6063861959488459 0.6719619249671266 0.6625131208494011
Ni 8.12197466514082 7.0782427582613705 4.574514709638438 -0.20192081544063933 -0.04817090327827188 0.6290815806638328
Ni 7.129813729667495 6.256688533222126 6.9626496173070604 1.3292117405350592 -1.1959344944047468 -0.45541744607604145
Ni 2.4216324658537607 5.134294575020674 2.7462104404603283 -0.561016252454479 -0.06688184942421385 -0.6037281895007085
Ni 2.327230750966177 5.3346488869286475 11.505899878861861 -0.7138508518914286 -1.1086959357010517 -0.3950921668234228
Ni 1.1995600161546045 3.360218705469352 3.9620940109256897 0.5417370925098929 -0.5678690137102543 -0.2663770861424961
Ni 3.5790689353921805 2.731856157420564 2.978115705848642 0.307953881143018 0.012273418050714347 -0.08707812186643069
Ni 1.0812677404978333 3.53556726155136 8.235606694787966 -0.05060419531011284 -1.5958747333490901 -0.12317461047867173
Ni 3.9049053577538766 2.6081692390094604 7.084984701710314 -0.6276656741529125 0.011524712810147894 -0.2686931358701824
Ni 4.20317016899637 6.9627611368127384 6.124295840066971 -0.4589023193008484 -0.2979240077108417 -0.6313958306193062
Ni 0.7572564300461326 7.52512771072911 11.279966800334519 1.0724230694119465 -0.95825631885884 0.3311344330245394
P 0.1758218339841527 5.431725256627202 7.801985310194704 -0.8234412959277626 1.9830008512479007 1.2570969248466801
P 8.46299768685295 1.6745424440772636 7.997119965239367 2.044130114459054 0.17079992566611873 -0.2530279185290997
P 1.745787994940367 3.2104743025608493 10.434685213802688 -0.026420398975057727 -0.04976781545174655 0.2232036360788156
P 4.005708110934836 6.323727169399498 3.790129119845223 -0.219265477366674 -0.38499390204715633 0.009796417265131514
P 6.897399826533773 3.9796687596903935 10.390191651025189 0.13624378495780404 0.6259800589203734 0.36841877129729456
P 6.295847292980047 7.776345797177934 10.04529264649377 0.7029228921250152 -1.7008446478942771 1.3033166179358522
P 2.3717206870930854 8.238916013452389 5.880700066498091 0.19548842955173432 1.6643645506903724 -0.2591355740887344
P 6.74986768048587 3.9123671913451634 1.6059126149530258 0.8817544298463588 0.0649982592482558 0.02237271126824534
Ni 5.083711865900637 2.812485666688263 0.5995188892347395 0.6182294684406772 -0.14227199342975497 -0.22677541259047396
Ni 1.380248815232078 0.9693583698814825 7.171890129825995 0.048615447014858204 0.3541643182608094 -0.7669269057808018
Ni 7.088569645819664 0.4227205795789203 9.042325198921473 -0.8538044816006521 1.2190602817889329 0.6352080052765448
Ni 2.8483260411552838 1.5192673990172603 9.107122565033514 -0.018746684479883844 0.26675452408657285 0.5300316311475065
Ni 6.343918546565714 1.8163716820705857 2.5461798071176145 0.6692301278582603 0.8708691503924227 0.697945750625398
Ni 4.263272835918171 6.931998073173324 10.64344791510624 -0.7029460320534668 -0.28346823729682796 -1.8095827712326449
Ni 8.263595370725152 7.229075156347217 0.32323520722519494 -0.03923349157932598 0.028012168942209818 -0.053200238172063215
Ni 7.399835999431423 4.011265952965771 8.187967919285294 1.3449661751558386 -0.509837929808451 0.1836271593377741
Ni 3.147742313960466 8.720680277980495 12.336372037704736 0.12936659822199656 -1.612672007412087 0.121215686980088
Ni 0.0984399903208269 4.887437535907704 10.097390388898262 -1.141993007191285 -0.47044760093628657 1.0121708094891084
Ni 8.87114094438075 2.2655051579048373 5.716682980188126 0.2768615306135877 0.35022153156297753 0.723192955227961
Ni 3.753692161355959 2.543270326680866 11.355299586413846 -0.23968980665929687 0.4998844181401649 0.10735641249949254
Ni 1.215997809958983 3.131594652203379 12.778844263065697 -0.6731477177451117 1.0233594791160763 -0.048869729117509385
Ni 2.868934483139482 8.199095389961585 8.083440595947225 1.14173101177915 -0.17961752395774871 -0.21150563091559707
Ni 5.975541512769852 8.077983393470195 3.3593474026648287 -1.6087670159307261 -0.0676863476033802 2.149085630826537
Ni 3.1340698412318377 8.478157086323948 3.629842043668253 0.05309070917739244 -1.2150367624518363 0.3469120075737703
Ni 3.365178150152747 4.260262715927518 9.43459732679976 -0.04552035302930225 0.30326778852125835 -0.3230573124433597
Ni 7.230716215739712 6.135286404683445 11.539220637830681 0.24523130530281637 -0.10408442661644009 -0.9550954046323551
Ni 0.488145356243231 0.3064692015423176 0.43232213701898475 0.16658640180540343 -0.6248456882056141 -0.29265581733336693
Ni 4.509667477080768 0.2770244253927866 1.715496395877803 0.24539611301545478 -0.019277617282689383 -0.7753169296167098
Ni 6.025362625265748 5.815597155073745 0.5027816113664567 -0.6195828971447781 -0.5478401200838372 -0.7000373430471041
Ni 7.969238275494621 8.720453612318549 11.393065712344766 -1.0837426081898238 1.1550290144396365 0.2080734653055965
Ni 0.1528995889228015 4.900575077674138 5.610431184493965 -0.6445819902922769 -0.6485517735733025 2.2549189218132843
Ni 8.017663127512925 8.68562870001705 2.4176476835167366 1.1078096764413565 1.1371973855748545 0.2514726582268379
P 8.732448759148772 1.4476410498420864 3.566916029261243 -1.5506747397736844 1.035947600193732 0.20454642598894449
P 1.8587581608546286 3.18305682409177 1.6440105794130362 -0.6592311076640195 0.1912211696349481 0.271535490414984
P 4.921074720140603 1.0115997826418794 8.226211856431597 -0.3724124658377199 0.15435155030210837 -0.2831057117510866
P 8.386393759741424 1.6165704343777625 12.359674174415511 0.5329490619046177 0.06908939859849392 -0.15732528821845163
P 6.3545355661713 7.761240797465803 1.351250117105258 -0.22407266894733022 -0.4096248132219591 -1.317720452066008
P 1.995392221876131 3.2366859197083717 6.180029299689086 -0.5171424338896642 -0.7933982125984529 -0.35859767144181465
P 7.121726298849235 4.089710405252303 6.070353039174234 -1.1956359893277213 -0.6092110669921509 -1.045639116449883
P 2.4292302988422154 8.558197264870586 10.17037491871982 0.07168389879854752 0.057184419630791836 1.030301200541232
