# total energy = -340876.4441874992 ev
CRYSTAL
PRIMVEC
9.18602718659404 0.00000000000000 0.00000000000000

0.00000000000000 9.18602718659404 0.00000000000000

0.00000000000000 0.00000000000000 13.44467932543618

PRIMCOORD
 96 1
Ni 1.7431221830573214 0.26621199199622403 7.334745233468628 -0.37484292965608346 -0.9825902676185143 -0.3893426659341553
Ni -0.025004366520947882 8.460818073923075 2.6643319153546883 0.45678655850942623 0.43573770825892705 0.5247328446424124
Ni 5.5870428971609964 0.3235181051866286 1.1378281996891484 -0.4460820276077285 -0.5336928820491776 -1.3608774470694562
Ni 8.956744133940127 3.587777526715685 6.288359343306583 0.06419581795161847 -0.23899200926132386 0.4238116462453023
Ni 4.69411510595279 7.2406288713719995 0.6622473531072901 -0.9351672982498603 1.4446308754380282 0.06912770803559708
Ni 6.465860950317706 8.894269961747264 3.1504114726260366 0.1811064497984494 -0.6877173880291704 1.174478638523816
Ni 1.4638669507881017 9.061657752616007 9.849208949368519 0.38292776354674696 -0.8370162063987198 -0.36021978042626995
Ni 4.412664413140401 7.65994346306256 4.751067557089169 0.12138383712683612 1.6693126387242672 1.830595883149202
Ni 7.253195356824114 4.875291123914823 1.9862092697339881 0.6983650975510037 1.5943580395942476 0.2570668644851637
Ni 1.451934301225019 3.7197623680724 4.359693186269333 1.663154075322039 -0.684671402113995 0.7093190254593461
Ni 5.651244042500785 7.464648521021653 8.954008534987173 1.3516484722720206 1.2384499991694542 0.08099849133125406
Ni -0.09545292908002262 1.3525874151397688 0.6652410794295447 -0.4483399704039698 0.8836058812328009 1.621926693241136
Ni 4.929112058318289 2.351402543925847 13.436182698688691 0.13966258083136593 1.9832502482545458 0.6316128317261187
Ni 0.4636353365804472 2.87926842113369 11.933470793930297 -1.4213523645260617 0.7278060285199401 1.3390636936284745
Ni 2.108294329386212 0.1119666504961534 0.9955219379713245 -0.47108034942427895 -2.0066362312786534 0.02595940017823916
Ni 2.384986660017171 6.1944322133739265 4.200991702888546 0.44487720866634994 -0.2208806443725938 0.3515456496910397
Ni 7.878791379298807 5.8216815944587825 6.707415807627843 -0.13130521000560613 -0.7102808751519831 -0.534583255073931
Ni 1.5946667946131483 4.9092059369917305 11.98071545133437 0.73277237138628 1.864708765672511 3.3657517013516807
Ni 5.110673889430168 5.511276543353216 4.495618833370901 0.46602376083697805 -0.9392275843621631 0.4376482950180785
Ni 7.467633979919268 1.7904302240502976 3.9118642469969664 0.7603461672394906 0.32942696341512945 0.4576849019539795
Ni 3.450979207013276 1.070245677671784 5.795812822761633 0.4746822078429244 0.7190349671955294 0.3693430828837768
Ni 2.355426023917094 3.8386571204164954 7.97332662424384 -0.35678607215437264 0.10403840386985308 0.6436646206843302
Ni 2.3821941076944793 2.25747541399319 13.266874109495362 -0.00028924910564466315 -0.04172154810850234 -0.06453546067922433
Ni 2.467651720385287 3.7305926943502095 1.5775991557461677 -0.6104889052633099 1.518490698841972 1.249232948717571
P 7.525331417875944 2.9362952790918255 11.307781992579095 -0.0654407461023131 -0.251426892590567 -0.5093869583139614
P 1.8971718621742557 2.398040004920282 6.452370350511437 -0.3261418649059545 0.579907175821711 -0.07610105402963667
P 9.186394818372051 5.226877135752722 4.622872870628319 -1.4379580914035428 0.9793419358845458 0.701984953691778
P 5.3150905566567115 0.5740072927239054 9.057061983119155 -0.447148778309346 -1.6314662573004548 -0.8386894803360847
P 5.701739634993677 6.935000554502618 6.6560034496027 0.625963089639509 1.2031094148866313 -1.2650724868529892
P 0.3512479660304145 4.326021802917925 0.5209763566748855 0.15887540631439087 0.43556313035427574 0.011823989218121573
P 3.7545957838870345 4.097427511634388 3.7386019916204574 -1.064317666695993 -0.5918172969957356 -1.1700992785091977
P 9.032721766377584 8.976760487595213 8.365265935747379 0.23948848928176816 0.5086814476065046 0.7868694103409997
Ni 7.100330675238848 4.08932543548763 4.642528213407478 1.338148638013373 1.2082328521561256 -0.2127544157210336
Ni 7.435675790673721 6.8547330472799715 4.40614417090801 0.09585483961779621 -0.36417413708832763 -0.5244963031515741
Ni 7.394063086654656 1.1459477292879234 7.8030902462854055 -0.8504764456686836 -0.2389606418027562 0.9420915361735194
Ni 3.164531315307649 1.5382554004892903 8.882321695937641 0.4735123559045394 0.5114428124017256 -1.0418130578355735
Ni 0.3513021635919405 1.257732496442007 5.422548704916099 0.28212997810137863 1.8147663723161132 0.3327375158456012
Ni 5.993947165864856 5.156401933714253 9.243338083481053 -0.9142953398968575 1.0149465724620328 1.6554127408137234
Ni 5.018923847985926 2.2870176780385125 7.3486060301782015 0.06958690706020275 -0.06646455938113716 1.3920435882596156
Ni 1.4332866656491468 6.575358396654847 8.488930073505756 0.6469335212435892 0.5820985270460749 0.8223236373835515
Ni 1.980829013499117 9.150578497628048 4.42847540346217 0.19854392854860645 -1.1239808868845804 -1.9474813181850525
Ni 5.433323915029645 4.873894847753477 6.985680786145792 2.61421053399833 -3.4167809000143543 -2.6023230385321243
Ni 7.187597935322979 3.3914445635811443 8.585194128803192 1.3228608586163668 -0.21782617381698613 -0.5860911931452358
Ni 3.5804746349507495 3.0765016149512037 11.388585045197837 -1.222993812515384 1.4138928229242231 -0.8405507019145395
Ni 9.308017820847196 3.356666263930774 2.52754553748787 -0.9238107355864607 -1.0749754035201553 -0.9615681568408925
Ni 7.563269710944098 8.121780175482536 7.012637183484412 -1.1015035317176707 0.49891871179278596 -1.7331109641271507
Ni 4.580217552501933 5.1312781488374 1.7527693490089375 -0.07990782937023658 -0.6748230485650055 1.3778025049595692
Ni 2.543822259397667 6.077806409792018 0.5780858888794164 0.20151869490621424 -0.5430252151936972 0.4297622074017824
Ni 8.031839781431618 5.117453177634599 10.358950794560993 1.0960126838064286 -1.6577061648335902 0.09300862841825272
Ni 3.484223440091642 1.6667128073331314 2.027766857588789 2.228849992640374 0.04771376113619525 0.860292403317841
Ni 8.898146465300476 1.128191138367647 10.48233292127889 -2.256527918171617 0.6605336285255269 -0.32616911859946407
Ni 1.0847228568183724 0.5326141347591576 12.30262140871629 0.29106507580747937 -1.6281549335390346 -1.1684604573541941
Ni 5.217544131937409 2.6892278867525845 5.023779582057554 -1.2129210016604144 1.1299160214220927 -1.8836565104196072
Ni 0.37157297020537755 2.1226245320947643 8.28192294655882 0.9842694550931501 0.4930319139947057 0.18249047463016957
Ni 6.030884181948887 5.753080342005278 -0.1105538394855282 -0.2810020351445225 -1.400434383426472 -0.7140061465223703
Ni 9.005531125340845 7.4697283941612875 11.058464023532421 0.5083382053344729 0.3719488959377401 1.6110663534878642
P 1.4628473017492238 1.4633984633918606 2.583811792379167 -1.5671269717924363 0.6272887504294681 0.7425109388302826
P 2.013476154797959 7.383820666128993 2.409945096401233 0.03545859791792603 0.7889499470191123 -0.7238331599151211
P 9.109305676621942 4.927100318322665 8.28716633098577 -0.030979993321282134 -0.626568841544308 0.30098567735530096
P 2.4580247636939005 7.544548587149207 6.039040455657172 1.0173114731497834 -0.038556520116959404 0.9175986932384776
P 8.220337063213341 9.008911583415681 4.82725830536178 -3.1761408136266462 -0.753818907643934 -1.5295294731546367
P 3.8922392181081524 4.296635701338015 13.29548399176189 -0.1779535059917645 0.7184628967421434 -1.0117992850823025
P 3.8360299165865945 0.6073782929800772 13.126484053088438 -0.2512014068433222 -1.5685266803534408 0.763416321524382
P 1.7355712685531994 2.1138794340315963 10.399258164089748 0.14771270482935206 -0.6872512470260294 -0.11581457056917473
Ni 8.103141725934043 5.468295121254938 12.671462454379665 1.820358007471278 0.0009171124976306787 0.472811987403405
Ni 4.008111767445124 8.43398568795405 2.5647471111603664 -0.8695308911969735 -0.2132537239549553 0.14826600622966077
Ni 0.5480668700132129 5.803704538881451 2.5783800943909836 -0.8648625391870267 -0.6405633560511872 -0.4153367760050718
Ni 6.77252728828072 1.2064377195672922 12.66471348006558 1.6374170755672508 -1.55668469341319 -1.2665213034843736
Ni 7.328529967345163 3.2033606530313987 0.3204067977139449 0.7968378344076212 1.2471644962243167 -0.7244720790507008
Ni 0.4563600028976439 7.2205114714157625 0.5657913098376688 1.0086584254604758 -0.8536476443078137 -0.5858795913550618
Ni 4.109957252976993 6.245212572715514 7.89374806907449 -4.47676625788358 0.2424776538170792 1.1265905565932854
Ni 1.2786950109169526 4.1970499785409565 10.001309353475994 -0.8791666145145245 0.15973106944646684 -2.455122754562817
Ni 5.649737534010912 3.9987236474655465 11.606388510121286 2.625139265095692 0.28771724238116897 1.567528063885597
Ni 0.352960241533539 7.6379888576308685 5.604213419534602 0.7034414836326466 -1.3049873207700555 0.4810801409494683
Ni 6.994526011907372 8.8492216834891 10.37275831231178 -0.03408537171948323 0.7813767626575446 0.02580256288540072
Ni 5.554221221341986 2.275819910665612 10.226964115998802 0.3992990058159188 -0.4825479837442464 -0.9195974688360613
Ni 1.473301000904565 5.393309579774225 6.4297966068345165 -0.5447540249593457 1.024092500627359 -0.7377957927428004
Ni 5.8525650185011875 3.212960051640653 2.5703809017508505 -1.6567306882941983 -0.279703370937757 0.7343885668334642
Ni 5.1716231810784015 8.436190334524595 12.04684933683434 0.6951453050621255 -0.7156423965742127 -0.3834928920215976
Ni 3.4416737612800947 4.061923515821213 5.917231895429004 0.06127761586355899 -0.35931629477539406 -0.5539927699487943
Ni 7.346598883196266 7.245093280677356 1.2305299135696766 -0.5524477940591775 0.8610071699966784 0.3040046666872829
Ni 3.5474600525568163 0.7744372240687114 11.041174082802911 -0.080404566500997 -0.5136372489498832 0.09087127036027576
Ni 4.070907450596189 8.740054934137541 7.398553216836669 0.8802696177707163 -0.925904642001012 -0.12883052321286845
Ni 2.776577821083111 7.831060781046475 12.365300429319662 -0.36320405986557447 -0.41961714854798055 -0.6948653119278614
Ni 8.201312800515002 7.017132825282851 8.90742251574605 -0.14330429134901126 -0.654031565740951 0.18692639891433613
Ni 6.066654572556003 0.6835084134719976 5.664929386087452 0.7069921770983824 -1.9634650952078185 0.205899083362097
Ni 4.4121316235525185 5.755376848849597 11.411306683915532 -1.8958558806992767 2.1937282092365766 -0.21627785549325976
Ni 3.502081077313068 7.982703720990564 9.613994288154178 -0.31365581662380176 -0.784114730413998 0.9057873024258465
P 4.342887349182606 3.947318638262305 8.698963077870767 0.06802599033098607 -0.4249850977281132 0.5350686793507817
P 6.923683368773813 2.7099607505430985 6.366701459190952 0.7531589054624319 0.4969929555249828 -0.009565532201248042
P 5.710824616069803 6.7216918127748695 2.8385614594140254 0.7978603621348646 1.164938817354181 -0.8198535785765042
P 2.307419844843445 6.308825812303156 10.5077965891687 0.22357233227214396 0.9222045674416053 0.1050691591272126
P 4.528922775627218 0.8576167019699542 3.9671218760822384 0.3677243163334312 -0.39883569302625504 -0.8180885162562814
P 8.467082944594377 8.685131676448801 13.197740986056713 -1.1196627191252009 0.5088040892272979 -1.4255093241172287
P 6.712303692795293 6.743655604233939 10.882325622984087 -0.649092990788753 -0.042263793765217536 0.7214947415899315
P 7.067784580241156 1.7015278510930112 1.8129212934808223 0.9673526247331535 -1.0193824967461993 -0.45180813145822835
