# total energy = -340856.7735079066 ev
CRYSTAL
PRIMVEC
9.39933341495252 0.00000000000000 0.00000000000000
0.00000000000000 9.39933341495252 0.00000000000000
0.00000000000000 0.00000000000000 13.75687455196108
PRIMCOORD
 96 1
Ni 8.714967952013614 7.524758559268192 1.9218629053509202 1.739590144093591 0.7326697843701446 -0.3043715631083984
Ni 2.200966711870719 5.504625623030073 13.228212041826652 0.7828813722275291 0.23449900648697677 -0.70742335109853
Ni 0.34805919634234034 9.34227946434376 9.030191516992842 1.0974537871283292 -1.1585545110943918 -0.12731434367865815
Ni 4.30792129089268 8.438448962183818 1.7291699907445874 0.42566875405869914 0.023979650744049022 -0.5972382109009907
Ni 8.051412610022918 0.09465222745453715 10.808679810182683 1.1382546231947752 -0.5262757636495001 1.3336078127202258
Ni 6.38612330898839 6.398483432433313 8.04459339362802 -0.3405053327164781 -0.25952252511450785 0.7187233494923815
Ni 0.37467152904926787 1.1712415379075103 1.5327633995047274 1.0437665820175186 2.1841122834133677 0.29713853569506893
Ni 4.760442798978124 4.563742948535617 12.776985761886232 -0.349648689778643 -0.1726464919565543 0.17025202358244873
Ni 3.493967214877491 6.266037425237567 11.467606920398262 0.03153972247949407 0.772143931205367 -1.2546368933419618
Ni 6.381940605617294 0.43200182330018927 4.756026992138257 -0.01901639320150273 -0.7440607998159057 -2.120625061492999
Ni 7.8975549213005305 4.5616938938504505 7.016363653611646 -0.31286494529139025 -0.26791846248768697 -0.47870778406254977
Ni 4.119464655857926 6.085203649604967 5.817974960925713 2.8261229134340424 0.2929535510794439 -1.0679125831361027
Ni 5.13944272106647 7.470590200779149 4.026733652154068 0.8842617696492449 -0.5687167064225302 1.513032246830562
Ni 6.376423196900816 2.6763567981626255 -0.29582240087073725 -2.3755478830519667 0.30676423171029105 1.4782922722462153
Ni 6.611133951686494 8.481629499906992 2.6870475999924768 0.45199222244457643 0.6549630764162849 -0.9801711166540603
Ni 3.2810535142886015 8.510400859500079 13.062317566728925 -1.283429649203938 -1.014645496281846 -0.8302598615114928
Ni 5.709108121542844 3.780336706129552 2.414070278994656 0.9301245936196304 -0.9763951945513959 -0.37375715279107247
Ni 4.106869549077548 5.134254289019628 3.3849753643601597 -0.8081018373572147 1.0947947522389274 -0.011997281571192241
Ni 3.1573206891715193 3.798853392963391 7.255196956034542 0.5008452393915375 0.09042312707926362 -1.3054927996515646
Ni 2.255435849029143 6.388068971005955 1.6732213985061404 1.7866457028204972 0.8054744270366966 1.897877796225312
Ni 8.481507308572557 5.651631197690598 8.938419245297638 0.4427470496972245 0.17072973454981563 0.8994197083366058
Ni 5.057254949657797 0.396705446448194 13.331594370160005 0.11774109816792626 0.2919423362061101 0.8262008609507706
Ni 4.943494817297417 2.8020352852972725 11.147003176970461 1.9041525734904303 2.34649081778501 -0.07308257891828704
Ni 3.4979713309136407 3.645023902241257 1.043626788088715 -0.4016178837570825 0.026670310202334714 0.17028004860690674
P 4.2795823006368305 2.7248667579339148 8.908208847758226 1.050277386552843 0.15731268981296134 0.37981415761842974
P 2.6400471731681487 1.8459726873324365 2.299805402429719 -0.9213270499326583 -0.8183291715121778 -1.012783246262127
P 5.365365099106137 2.518090822067105 4.516230258039997 -0.5059007995375738 -0.7664139707001253 0.03318060051702673
P 8.103917286496939 4.292412390752663 2.4259839341022142 -0.31981823668077175 -2.416110892075994 -1.7063056710088482
P 1.51122482697694 3.524392857152179 13.01752504332453 0.16055202268586544 -1.439289665730773 1.3737134224918601
P 9.137599579829207 2.9262568757521006 5.679952329212953 2.4994082067437535 -0.7961068697788676 0.8239987110931293
P 7.761236388736489 0.36194295173435204 8.171597186774633 -0.9246538003130462 1.2423750452554734 -0.3886965477097241
P 7.043597282257516 7.262545354900884 0.42186464220866904 -1.409227813348386 1.6172997359920858 1.7529238850880198
Ni 9.151971160625623 3.627014779412001 11.79935357359333 -0.4422837369075609 1.495528947839476 -1.0950546907685332
Ni 5.202756630971412 6.85489626455389 13.039920835060057 0.32126062555425317 1.0965878395836082 0.4334214014209245
Ni 0.6684993913686648 2.236298806189703 3.735913576528492 -0.24932835819032548 0.7971147422180916 -0.010879880137297392
Ni 3.085396989855513 2.898058875497524 4.166929409753113 0.49219476280539104 2.6693619823594927 0.11171006148249793
Ni 0.9776434674930057 6.870414564027325 4.057851085368335 1.3875472430511588 0.44937303965417447 0.01673351070459699
Ni 0.7787582720307681 4.388652165621532 7.182670759446429 0.14066068307857713 -0.0019967187150546255 -0.553606333143653
Ni 2.7155990151835776 1.602934123138241 13.437040792111993 -0.5278125120090007 0.4597574682122921 0.19043055541285267
Ni 7.336527508235475 3.431085674309785 4.990594877055978 -2.0063318126643575 2.2766835671838854 -0.2578351101097559
Ni 7.683879874704767 7.369490970533075 4.734139704340655 -0.2530227763227772 0.5273204028639306 -0.4420189132819484
Ni 6.8682621166745585 5.076974751169164 0.4439991324751698 -0.6397022936024725 -0.9762738384821831 -0.4680001678370585
Ni 1.3636552923113223 5.0832629052259355 9.433735918436113 -1.120587030711683 0.2262565639725265 0.14825006539006083
Ni 4.173473225678859 7.932699028951151 8.186537427242849 -0.28128588493352846 -1.1452056005913116 -0.04536994349436702
Ni 1.5100593096330839 7.567619519655149 10.529442533128346 0.04877922628623212 1.0674842373494324 0.2274107321816277
Ni 2.3939256276127865 3.9907501840292023 11.008333871118529 -0.5539104946476332 -1.7021823928690945 4.129283465408005
Ni 3.2166210837068943 0.7610320691373995 4.262843027752371 0.32303648650775335 -2.034610862114709 -2.0063035305295833
Ni 8.467887674449596 8.018449147725319 7.213445116990932 -0.924815522701891 0.0630493630520011 2.3222990510301553
Ni 2.251384736325902 5.055619465643031 5.240323886777243 -1.1064637039364233 -0.4462306373704508 1.033581928175033
Ni 0.012280229110868093 1.813037423035091 7.617813839974978 -0.07809237342805261 -0.30465309890455916 -1.3870525628029273
Ni 6.354165575366538 4.256253155092877 9.33681845162779 0.7237776240868373 -0.20187350714247168 1.810400896258566
Ni 3.231246446505601 8.31546808374019 5.720727577514413 -0.4222242471535245 -1.2018398041455882 -0.4793423323227551
Ni 3.1942600695050145 1.6944366339643417 10.791373757493108 -2.305723663169977 -0.49549503082321766 -0.09841308726327568
Ni 8.74166205892128 5.31424212464459 4.143791070677549 0.7705614172095955 -1.12517567852363 1.023422728253844
Ni 1.9382553428322473 2.7771552497393177 8.898964603341435 -0.8148270718961903 -0.06781387432017998 0.6461339081604291
Ni 7.375741527256173 2.248517939633353 10.467344896967717 -0.3907755417259399 0.9382551931465648 0.32791515475629335
P 8.833239764414726 3.1701319806205155 9.041719799430254 -0.25655135830132586 2.7621644083042107 1.2163948191416276
P 6.428956071375092 5.908900352679936 5.916818351151422 -1.0030876162409177 0.39277791686794933 -0.32027846414664196
P 6.815437862864319 4.072731170102675 11.970337787737003 0.15083068163304347 1.184142129755509 -1.1053941250213284
P 3.2013471669023312 5.910780219363575 7.575937929730248 -1.7169042724603012 0.7608279919719155 2.358432306417603
P 4.933315339205516 7.747231381943382 10.564976713115822 2.8480379683395785 -2.878470573797823 0.5510550274767091
P 0.8835354614433819 7.116272928246977 0.20541867212122294 0.29263859094218636 1.1673556543257895 0.6988641486746092
P 0.4094218046296662 6.076847642196194 11.218827243352235 -1.4918396719133467 -2.434030195558576 -0.16476554654658074
P 8.401077212513085 9.706033667627798 2.704601795084293 0.009886920096408779 -1.477010063099682 2.3023614315659637
Ni 1.051362439491887 8.292420918198784 6.439991828741391 1.2884034482694455 0.4222471299716599 -1.0645482946495601
Ni 8.495333728030717 3.1648119579058185 0.22681061504768657 1.32146732070295 -0.5168238742079809 1.3082076274795664
Ni 5.565523904246539 4.202780347276781 7.273396885332187 -0.9732615340184206 -0.1968778537000932 -1.3314498858369586
Ni 6.377720304912527 8.183247660546481 6.531874072637587 -2.6569240137064565 0.9851950522312131 -0.0352397970389006
Ni 3.330597400735892 8.812128861557467 10.513980629655421 -1.4317337077603858 1.3722548356684623 -0.9314042316630023
Ni 1.3834126911563625 1.0465123834480998 5.674477217496856 1.698554823418836 0.7639667947112133 1.3095664555003057
Ni 5.354123496337979 0.5695535484086974 10.894413010156699 0.41103274931307926 -0.35310193843456605 -0.33722666196520634
Ni 8.584439408835179 0.5858642116892863 5.343734413110852 -0.39330859256043876 0.05102611333887986 -0.21736748901301273
Ni 0.3485489016134281 0.549169214024664 13.19877144969419 -0.39661168879174274 -0.30723242959596125 -2.2247902207487043
Ni 1.1719746859141293 9.188111597618573 3.5054578999812307 -0.6723560750817517 -0.16318457521270607 0.17728296228730112
Ni 0.5299362979843592 4.869578459296754 1.1309071183433639 -0.4247084470279589 -0.3113757623403734 0.6290895510836327
Ni 7.271455922981331 0.7462986140043832 0.9350701267086461 -0.31862550192425126 0.27180057115091255 -1.061203032326411
Ni 6.569194125974519 8.53998056176713 9.487497285788146 -0.3477594431757301 -1.5594555712901077 -1.9360679341417883
Ni 4.879645145387638 0.7255345465502548 8.316773651151978 0.14269596834105103 0.5409786170773134 0.4738062329958743
Ni 8.465500243761376 6.423438662658613 12.98270615261018 2.6255539840356072 -1.2740826607713993 1.9472751157115173
Ni 7.070084603829981 6.080165606892816 2.6139715423994 -2.270576425844883 0.6537430879662548 0.2803695437668462
Ni 2.0090793201383255 9.024478602141263 1.1875362223212882 -0.12730277371443235 -0.8844949687059735 -0.0205791097029323
Ni 3.6856196232744294 4.7246407379882305 9.499658143364604 2.4016144982320315 1.3673656258969613 -1.861865382686445
Ni 7.709192279599959 6.807147650789473 11.093584885288191 -1.511402681646939 0.6238113334038289 -3.25213182444098
Ni 7.424505269029754 2.154909978121577 3.214665082422568 0.034982943833088136 -0.3632724512096647 -1.7480120496086993
Ni 0.4767877671711914 1.7380025443576625 10.566077375059091 -1.2942259684884938 2.881946705271882 -0.5716246240979446
Ni 1.3449600181425383 7.061794391755136 8.374386865338787 0.14644746496368327 0.06100045094277236 -1.7984043860183223
Ni 4.578734885337633 0.6467991503060844 5.990802384352696 -0.5080597548621056 0.5487374350871259 1.6348958518072938
Ni 6.396020807077746 1.8782969949575994 6.5785370633922025 1.0276753328826107 0.7398187367101001 1.5304566129545965
P 5.02276879534645 1.5050588642546057 1.434305381949164 0.26144082518314327 -0.0043582769686957195 0.25695373594606713
P 3.21731663437984 7.794961197040963 3.4598401151027183 -2.608521968253985 0.3044240136128886 -0.16152055724672185
P 2.4716205176475627 1.0523963661678881 7.815514719426523 -0.009733425237680011 -1.6375569435792252 -1.4902149918257304
P 6.852884807202396 1.0302515366346274 12.402386607704285 2.0376198241443615 -1.7140673172321383 -0.855069721466321
P 1.910602503915926 4.744595522835052 3.2340352287307788 -0.7120063424835222 -0.16313495292169322 -1.4560337179583311
P -0.22345787281741744 6.465510079038441 6.104393328711549 2.2382072654855585 -2.185272622270056 -0.692183394220324
P 1.5301080878140878 9.67191408731976 11.303363908182112 0.5215073957265793 -2.253560350902861 2.217629441334207
P 4.737339237436208 5.6233956001023495 1.2230149462415962 -0.26609349346380623 -0.6622549820920078 -0.1600624846439566
