# total energy = -340890.20933882176 ev
CRYSTAL
PRIMVEC
9.09312504106343 0.00000000000000 0.00000000000000
0.00000000000000 9.09312504106343 0.00000000000000
0.00000000000000 0.00000000000000 13.30870764476231
PRIMCOORD
 96 1
Ni 6.395476718068421 1.9575861419718534 11.531954808144398 -0.055925350412710136 0.6279868049377572 -0.4735565788789135
Ni 4.727924891944312 0.12462036917675448 5.702847928918927 0.04110114091568406 1.3133387780585446 0.6133027205630212
Ni 3.0030590987776797 1.7168183775181103 4.663531017756094 -0.44843201589714377 -0.4337533308390466 0.5922929510805734
Ni 3.2760801777006967 4.340248599561168 5.178378300885948 0.18587738882453148 0.07946688517807604 -0.9304328688886685
Ni 5.101170394910277 4.655479964857562 2.4671812360863554 -0.7531972148995351 0.5595764346841589 0.9438368009994003
Ni 7.628795451673303 6.32792389224597 2.7660549787724373 -0.831120409739575 -1.6659241818680084 -0.6968327200668774
Ni 4.8702777642353965 4.5649760914680275 11.388114300598966 1.2410781808209206 -0.20425074912539662 -1.0314715667002492
Ni 5.505478012967032 7.891895931192323 12.599326737951733 -0.8531100266367888 0.7712605001591492 0.06171598895255823
Ni 1.7219923656582337 6.466930494527273 0.7612791551626525 -0.5930570829401076 -1.1098174509000047 -0.3172790151986858
Ni 2.5644431199956434 1.713872205009499 0.3664729434461685 0.4561298987620338 -1.6709162357659608 0.09982745111229904
Ni 0.7261051289348419 8.946698434275419 4.861351043396805 1.16432586636053 1.0679262099828575 0.16719935279905399
Ni 8.748577426196329 2.015964004642487 1.3509401244486803 0.035673285031893404 1.8788655167888675 2.4591146493310294
Ni 6.87320222758977 1.1138168845055896 4.719068188168424 -0.5550340667291151 -0.983743407386351 0.0824964160330192
Ni 0.7163418405938047 7.463991653691596 2.857938279228504 1.6793216862208367 -0.4449967649633497 -0.6588636970222718
Ni 7.63911614857847 3.7710917178975722 3.535511581271492 0.28961445940388186 -0.11989773949961284 0.9310735877964611
Ni 7.725619046956311 4.003511993576916 12.546424755172104 -0.5907322914616729 -1.1435379830809014 0.6102904160992586
Ni 8.100237611801287 9.04305828018207 6.712739487495752 -0.007962192269870159 -0.7086189140685281 0.045843797806992014
Ni 6.947629455932314 0.6982547056034376 0.21614630981927682 -0.5280151149381099 -0.9042251001450492 0.9210668542927364
Ni 1.7613928763983977 6.637499333775832 9.17986707414445 -0.3404055739138202 0.037826841039786466 0.6219146306017482
Ni 0.1022594654238955 4.6936801830942185 1.707653416803822 -0.8122546831833236 -0.13799727731380104 -0.5412557819981001
Ni 6.540784855993143 1.8844501373830833 7.118867549182829 -1.4438307481342358 0.6649093889957194 -1.1801340370373805
Ni 3.3348854172475795 4.253245579306866 0.5432523870878794 0.3267180491243986 1.0243850921671132 -1.011618536530064
Ni 6.258879793919159 5.811934512612777 4.68730044657557 0.04196631712945676 -1.3275834609030168 1.054832610023693
Ni 5.271484626658089 2.8401648570515543 9.244547381771005 0.23962758596279374 -0.1174994144707654 0.5292795834728303
P 0.16254233778759708 5.465550100975326 12.749036857701823 1.2354263818517819 0.7181697909817567 -1.043507414818861
P 4.008722354217146 6.09955915032848 12.533595265072105 -0.4749007516116337 0.7015974884453724 1.4795729387308518
P 2.1571620500551965 8.553629918751515 1.4623072638991965 1.2311670923547957 -0.7783839985778078 1.2242006883392917
P 6.451735882607861 7.89775190370944 5.780437746145715 0.42681803717179395 -0.325199298487027 -0.43381092354985934
P 4.511344840061267 1.0608130587256641 12.679924560937312 0.7417136397399678 -0.48123774957325516 -0.4383437784232063
P 4.360262567744667 6.151435428605109 8.15481727614832 -0.37926471287286295 -0.4153388328876008 -0.49011011236222046
P 4.793577254636208 0.8869752410300513 3.5203924422898 0.09685448452690416 0.5214251204254181 0.6960647315526013
P 0.153070938759913 5.311558028650221 4.012787890416529 0.7188269649497814 0.8337923001447832 -1.080166203692475
Ni 1.5564974901745063 1.123337386408417 2.6901819435506673 0.6104873626014131 -0.5066675025002694 -0.19332998844783478
Ni 1.9602322413545876 6.48027920206629 4.76000543703808 -0.3244968731033637 -0.8430701259022835 0.30635182676322076
Ni 6.220925090058222 5.764850311225154 9.497799097573738 -0.43721403569413736 -0.49070506563374194 -0.47560626231909053
Ni 9.007567813203336 2.5528584787117827 9.979360996543802 -0.688058573418673 -0.8350107459329168 0.5293603161120948
Ni 2.311708803006923 5.491174527300224 7.056942458439327 1.9090335557318157 0.530104650477287 0.5902761777608609
Ni 0.5706672497305105 0.0028925230709545926 9.271298446286696 0.29621088167447696 0.17183685157106535 -0.24456487536341104
Ni 1.148861788358023 1.1070515994858152 11.380807974640108 1.2068161743142571 -0.4177250737315903 0.2239770239097304
Ni 4.056297584356204 6.961405540347581 1.4872742572846729 -0.256299647301836 -0.6111854171097023 -0.26450378037918315
Ni 5.696579128525604 8.038504385995846 8.011722404855066 -0.5249642439269281 0.2744912306091982 0.2510587106178709
Ni 5.139006888145869 2.913328141015404 4.647707161584843 -0.14523339005092406 -0.09425612767210864 -0.5744713495181203
Ni 0.9144137457977516 7.461445578684155 6.854237606034339 -1.354064537912681 0.45639292261543335 0.742134015106838
Ni 5.4624857178413695 4.392861420964951 7.318790814642187 0.40542388776673405 0.3442730272890264 -0.45680789866566496
Ni 7.979062627697104 7.374988145931447 9.240076292195436 0.5396408721024964 0.4127343053852182 -0.04149451969936079
Ni 4.450084456757208 0.45261393544795103 10.511284259161068 0.28097889521607095 -0.7295965447614595 0.10167350318210232
Ni 8.36992151383955 7.187024158507044 4.759593518474377 -0.7754436850025613 0.024174283253358367 1.9214198452113103
Ni 7.160945075930818 6.199565339370789 7.041144972330652 0.6789697237435274 -0.25151353876710236 0.17194535212447162
Ni 2.392783105743896 5.042565204113978 2.7079626402276387 0.5831758192706537 1.1816712996175134 0.9194534870590295
Ni 2.370059386302477 5.349949202512434 11.389059985601728 -1.3158841701882178 -0.07808363167730423 0.17387239394385537
Ni 1.1015411657197087 3.211100706260767 3.8041206759316126 -0.9597205621091923 0.40118902374978 0.8826388893338413
Ni 3.7006018126915365 2.6812806834621496 2.430369538041258 0.5968067797905271 -0.6545087624876857 0.6741769303405744
Ni 1.3405721432933755 3.6851071276462464 8.203766477478894 -1.4031222146712803 -0.35461014754897635 -0.34926148164255333
Ni 3.675977630119562 2.920575361661587 6.971793526377945 -0.24038374740252796 -1.313063927130603 0.5633886093413975
Ni 4.244352503030872 6.916794668967187 6.07877863170524 1.07240224347634 -1.5279646997706782 0.24840610348637218
Ni 0.5672573278455436 7.528052719503841 11.51740853603938 0.15814367035468893 -0.9384547107518805 0.2520755819181594
P 0.07800628235300557 5.887871199709734 8.058914814430505 -0.7739102790771705 -1.5197389694267762 0.8985504183577752
P 8.662165459068753 1.6160483659735683 7.966273147347222 0.17787123069060334 0.0633506963425038 1.141557719426079
P 1.9410457475485074 3.411931465597778 10.345896682552654 -1.8478837236953725 0.4562291433440595 1.4930164658302674
P 4.132006943327496 5.946740091131802 4.0632547343140395 -0.7130995755477009 0.5071243875320298 -1.7499025817631928
P 6.825972536201721 3.8573036362745623 10.454402215557305 0.9360556143920846 0.10457165066550378 -0.33018029664138615
P 6.119254859136048 7.858633279845099 10.409977753239957 0.803273819840952 0.3486696136948253 -0.18566887235815122
P 2.63280523394546 8.251465374118313 6.030321368438603 -0.4557480899425828 1.9817402393679227 0.07398837856200806
P 6.839403081865979 3.908179670798268 1.554284223543037 1.2771610425864068 -0.046928546230738534 -1.3816858991743752
Ni 5.272848595412077 2.8168864569835135 0.43644817777569994 0.13244035205131385 0.1828458010870593 -0.45133479136623567
Ni 1.5847498296320854 1.0574213230907503 7.081177455260164 -0.28049089983605885 0.29598051083122573 -0.5106629968129077
Ni 6.959014048465591 0.8438729190915669 9.15809449558081 -0.260572563645577 -0.6715644324183918 0.9781864821238637
Ni 2.8499672458302054 1.9494932606981987 9.190355084550108 0.2939182289855583 -1.2157831536995578 -0.4393156554181724
Ni 6.472686442669097 1.9004540374298613 2.448709461907364 -0.24581623127200888 -0.3961784579090661 -0.30948651573746055
Ni 3.993918746673876 6.856316294415414 10.169157248661058 0.9137888325740843 0.5174795055141088 0.8974687552578222
Ni 8.340859886254606 7.033386718057975 0.583263046517327 0.8459500185532399 0.6312497919597452 0.15614592319836978
Ni 7.886676477427067 3.7157782383608957 8.212044858503091 -0.6628105974851617 1.2222741607405403 -0.14418746528491297
Ni 2.8386917707972485 8.003514040893572 12.779992583229802 1.0906033398653991 1.2291989128848315 -1.2989123182205695
Ni 8.922956284831022 4.918989635002778 10.488100427593302 0.23611417349289657 0.7046367894923284 -0.48569038602797
Ni 8.566733111914814 2.422945001457057 5.912579948344455 1.0246200909960548 -0.006285318788079498 -0.8896536300887774
Ni 3.589138286115738 2.718135119194872 11.575860962335232 -0.22855795841219348 -0.7910657078105343 0.22908889121499904
Ni 1.2861316037592505 3.3378315897561905 12.591115646052733 -1.4072282664198539 1.031508590585772 -0.18478544131193336
Ni 3.0641558058312603 8.734574013655397 8.428963174637124 0.2872706417620537 -1.0102077722254668 -0.27009978640972193
Ni 5.5183902505047735 7.53844616140922 3.3355883158121338 0.35329168584786896 1.5263140515411326 0.20627035065858668
Ni 3.221957897542502 8.330257302473616 3.9295957988608654 0.014892600841116287 0.36539052599393207 -1.345936509488908
Ni 3.392263036165289 4.394770977220532 9.1575088983291 1.3764981843258488 1.2107080531694956 -0.2253106551194894
Ni 7.335314841440485 6.465220987022277 11.829151778575579 -0.17396212544418427 -0.37249705513172626 -1.2324315608895162
Ni 0.4777218722713394 0.08498616512340715 0.31217607528746344 -0.18517856298529398 -1.2114145923182167 -0.37054404517041345
Ni 4.638139375431877 0.25288344423915626 1.4095653201200364 -0.1329193485702614 -0.21694197143981991 0.10975756574181743
Ni 5.788737950669976 5.476980159133735 0.20749601998149275 1.0044449015997605 0.21076412476388218 0.91881456792345
Ni 7.866780719868913 -0.03905860923916491 11.278357553590654 0.026232708444283857 0.008775689310101016 0.25657372689882907
Ni 0.308068710712958 4.724605901309611 6.167374767464198 -1.2007954220414738 0.4251555618677065 -0.9981652392386359
Ni 7.926195198792577 8.710931888586293 2.656444631077056 -0.9153590052746817 1.1312092863122196 -0.46180046678424985
P 8.7522965143322 1.369806540253825 3.669130506974548 -0.6455289275865786 0.6566535767448304 0.3340096976898054
P 1.7433066507205333 3.2627132839116264 1.703501495916686 -0.05617783274314841 -0.8590976116787914 -1.0241053561431654
P 4.633592812918588 1.118854475770314 7.970358688421664 0.4909156389826513 -0.03713881383382636 0.3287165676116661
P 8.618863997692188 1.8236898759554865 12.653932772361342 -0.8859918649664741 -0.22054280141720084 -3.026065007881756
P 6.464238929519406 7.59717865595589 1.3292075556351577 -1.6216209890752589 0.604248837890869 -0.3184792061543741
P 1.696722571209372 3.033557440116824 5.992990452954489 0.3185943915759997 -0.45267330767200104 0.46325596828385374
P 6.799238748623582 3.742757540314754 5.600237468869006 0.3407963815943357 0.5733542051945416 1.7571399800518965
P 2.3711050956805333 8.279845017326265 10.638222465907097 -0.6492835095330043 1.0605682269558896 -1.3668488341615428
