# total energy = -381164.7102673405 ev
CRYSTAL
PRIMVEC
9.33047361522074 0.00000000000000 0.00000000000000

0.00000000000000 9.33047361522074 0.00000000000000

0.00000000000000 0.00000000000000 13.65609127460063

PRIMCOORD
 96 1
Ni 1.1489358710589501 9.220271479850842 2.7454890884888075 2.009689159172365 -0.425506517449222 0.2752715604186485
Ni 6.236815190853266 6.593080668322802 9.266696184816334 -0.8368979356533006 0.30378149493288326 -1.2281972110931945
Ni 2.519909024870502 2.077812519790712 2.583090327562406 0.5196364039561114 -2.7133324744031726 0.11238806138612904
Ni 0.7779235798990113 7.697034325651018 5.118931136283816 0.580315209893407 0.01016022836245347 0.033454165893387545
Ni 3.8351885811382336 3.767337376357088 2.9571583488606596 1.308668626276385 0.9256218206532703 0.5596569102131072
Ni 7.372986973884079 0.7987995817660815 9.268867386047438 -0.9733340391275689 0.04517788208821896 -0.30401289421739897
Ni 5.275860373524476 4.790974316034576 8.101571941879595 -0.8477932424095658 0.4754854204705102 0.2947648932565698
Ni 7.4241273002599675 5.551081356394313 2.03627325085704 0.4067132960021189 0.3631402965071746 0.07146741191236725
Ni 1.0991204719491405 2.205397417229846 11.027143838107468 0.8168991239338705 0.4605807354445358 -0.8337833012837189
Ni 6.848810291623357 0.6459253683975172 12.659060483925805 -0.9618358086799823 0.9961960313274069 -0.5775875265495989
Ni 0.9533598117330991 7.273580107033374 9.598825592906351 0.39071152125722386 0.7371018519995692 0.6233223095825523
Ni 8.21537013137255 8.06670769383432 8.391463228555454 -0.46245069877373907 -1.5779276619523663 -0.6967928679678774
Ni 3.9161397710008874 8.812548439899453 7.880616061029378 -1.1157448721280332 1.365343710370926 -0.5870286173578406
Ni 1.5824110184355253 5.441224358994257 13.051590713543705 -0.016077622288152953 0.014042079915362915 -0.4712991503033044
Ni 9.308481778255812 7.30274716783451 12.425390899605459 0.9920449852735108 0.07481216001488405 -0.5356296940605743
Ni 5.810851074809036 3.5128300451118593 12.428026758427057 0.7695116357888425 -1.4376552154511435 0.133338438385551
Ni 3.122937540410302 3.3718839093274835 10.321137683430146 0.34545907717732766 -0.3309143465939333 0.36779013657436016
Ni 2.67462693984313 7.309222516585627 2.9868469831418927 0.7882621769234683 1.4863729923718207 0.4189944273623171
Ni 5.371283128103242 7.18173092388354 6.764421755247864 0.7051921477751663 -0.607807758886721 -0.6294394782238837
Ni 7.719175539752457 8.268740440963878 0.17431004365792113 0.3901181106475991 -0.22182166812962442 1.3544620304614157
Ni 4.296272600207247 0.7109718327830064 11.221619834583526 2.3086331235072888 0.7019772403822943 2.3875490212779016
Ni 3.9226617721205272 7.92912985905737 0.7917242835557483 0.7269030570896965 -0.6843865238837246 -0.34034489587921385
Ni 0.005042187990062018 4.516163874007749 10.370490291044199 0.29563032658065863 0.7562514283448266 -0.9471627800488397
Ni 4.474699248863716 2.477408717145238 8.346766527320085 0.2695935361972647 -0.5851946494728955 0.019154718551579915
P 9.103136712961058 6.356711777959663 0.6885973568389488 0.7779844491465441 0.8501895105558841 0.614086135696265
Ni 1.659919263501116 7.745916677390349 0.8899835021407652 -1.447957882928732 -0.7523343526786076 -0.5871471452135759
P 9.766206826791105 1.7538211508660015 1.8903306464037557 -1.3512563790399246 0.02063567397248059 -1.5693293787603941
Ni 6.3863733538671505 8.485506006073281 10.754308657363945 -0.8133818548092314 -0.1831697600853813 0.550633109447942
P 3.723605446102794 3.954441365559001 6.94001193989808 0.5172815305706897 -1.4175826130709843 -0.3481289107000069
P 5.304010412691792 2.0715704328822153 3.1999913914064706 0.5098824098931413 -0.20647989556623148 -0.25179327479105024
P 5.2532712966852095 8.357146679316651 12.657912835660118 -0.43520034769821825 0.749416150590548 -0.3815087717120333
Ni 1.9769594295157666 2.48469581710867 7.719419998163522 1.2434266264484393 0.07203228327690175 0.178214472962635
Ni 6.847420051041345 4.588120487218997 6.510090769955656 0.4717658055270778 0.13016004065756936 -2.3071380270190005
Ni 5.1547135029416395 8.380827421579378 4.30403088909277 0.8323907918115664 -0.6564460887197145 1.3366376006854852
Ni 3.8202131708420652 0.9372274226975379 5.949194008429779 -0.7681474084514642 0.31168917981573413 0.20236330229469665
Ni 3.0599475124293463 0.9758089314667948 9.504066235007997 -2.122626408193744 0.03475488698268209 -1.0002403766001096
Ni 5.514058036733753 5.637509534321671 12.064937905537215 0.20591785241517438 1.496760763364048 -1.6531090323812112
Ni 0.15758237039999523 4.256310181329683 1.0282751181561318 -0.09665008182558193 -1.1068853648548742 0.7073117652213303
Ni 6.887615731761529 2.8609844911486606 8.080650220691371 -0.11399782907541012 -0.4396131320539332 0.34252133470524243
Ni 2.084698409384838 5.588701826371977 4.228294500983716 -0.5203727679015037 -1.5158167515542347 -0.3020552562703959
Ni 6.186925147953818 0.5229973103844379 1.705413720238243 -0.29990529980692865 2.4463182688973095 -0.40911033547938574
Ni 7.590582951153206 6.21647475817685 10.9661010799887 1.803716542259855 0.45753166420556685 0.6472106861643756
Ni 2.1709493083118057 5.098198823711799 6.320613108243246 -0.5084446490053501 1.9314363489070474 1.1276742765757677
Ni 0.36902116807133933 6.05443242134597 2.8311810920408584 0.688794166033117 0.08916662896434321 -1.159420458639113
Ni 7.622735763539872 2.807903426242179 2.88994348238618 -0.42335039033816774 -0.32193322614124553 0.500736481727815
Ni 4.36671767667832 5.678600940517514 4.774251308013501 -0.7622590679914872 0.40794125487194904 0.4027375991838225
Ni 4.087811156695097 5.615928148642519 10.259111493382893 -0.2611726591234212 -0.3856644457516197 -0.8089230477069295
Ni 7.456532035436661 2.3721703042290474 0.6162880517216605 0.5983764382704921 0.343044554198564 -0.9787917198080305
Ni 3.260375418081682 7.154541923507817 11.965221266959512 -1.5362799045045927 -0.5733806875571029 2.3088424113046173
Ni 8.523238441735403 8.582757533498182 10.61863517227014 1.7906491675529357 -0.0986912806253268 0.5034369113781136
Ni 0.6815668449023986 2.9084299499374566 3.555253842952744 -0.7483465716754532 1.9980078661796945 1.5839119045602592
Ni 1.590248616347539 0.237143319680637 6.736755034618456 0.03945949154720301 -0.02845902667164131 -0.011359133766561082
Ni 6.172724166975145 7.7922144879134585 2.278163915558668 0.428937654617958 -1.7535170385873287 1.0022656345602545
Ni 3.9617751178909564 5.261510104966528 -0.013493731071849906 -0.8085651501468784 0.04397640558095007 0.3074203772370512
Ni 3.2105133666033483 7.734813413681665 5.438346840903703 -0.7412433849717686 0.08992664705881932 0.8639261434156863
Ni 0.17358133366157802 3.7554037004886776 6.5410492817081085 -0.47613565245999934 -0.356516877653386 -0.5369926358463719
P 3.0549930308921094 2.0863965555991077 12.311061806158703 -1.3212909430260857 1.5736208070468962 0.023292137758721174
Ni 8.288772968008038 9.320210183702718 2.6522720578938523 -1.1672746645762089 0.08067556077419655 -0.5063813387184183
P 2.5745202874645674 0.3440938745216545 4.408103925843234 -1.0111557379610328 -0.30606720564326645 -0.686962769251333
Ni 2.860639263621584 0.5900106386268942 0.18419381445339247 -1.835394075868794 -0.21566233339644794 0.7887763975557254
P 4.938638392886392 5.829894571640488 2.2937318109350904 -0.7004937138582323 0.20188019201069102 -0.2838726718240982
P 6.477653378120994 6.242991964445829 5.054283083125521 0.9190950752783461 1.0214990288685697 0.7000851655659039
P 5.662263281060447 2.4940916041293812 10.543294396246168 -0.29207706201176153 -1.7063758621251517 -1.0504730475034165
Ni 1.0519829187926022 5.440515242992694 8.346535131572207 0.579907175821711 -1.111819568931698 -0.35819015159075085
Ni 4.227077807212614 7.982220254437557 10.246015240490866 -0.35664568992176643 0.1507131822185727 -2.9647915057832557
Ni 6.336492641441408 4.447137029539802 10.18091652545263 0.06076210967972117 -0.27439712823349516 -0.37914978456155346
Ni 9.179385344076504 2.5491973818298 8.46359525467235 -0.1620625457931209 0.9923542889838136 1.4250647803806427
Ni 0.029564538980959492 0.8585659310820367 4.852268996943374 0.41490843021840157 -0.4362928094314486 -0.323745596759636
Ni 2.492486762652159 5.337040289606706 1.8159462439345246 -0.3403348685768848 0.4754769358300779 -0.18715034199968414
Ni 8.499893596526048 0.7017262663889419 7.225861265365029 -0.3760207520142685 0.8242997872733158 -2.136403664483495
Ni 8.557509271653052 4.555193245514835 4.482612423612738 -0.6488819032192116 0.31071164639381327 -0.23122136417696953
Ni 7.810502216374823 8.08414634918855 5.810612214682194 -1.0364805898790665 1.741653711490839 1.3405451632700074
Ni 7.911252671439016 2.6848997913920907 10.505439731378514 -0.3895732938877226 -0.5823726066430681 0.7128715186972949
Ni 5.93109288944251 0.3288105585932282 6.503112508671852 0.6530499185539721 -1.12494787878354 1.7491345932489168
Ni 5.8841326152863624 6.793508573975139 0.23026862665495657 0.34312374417593167 -0.8146306396146679 1.0906002545416056
Ni 0.6712436087954323 0.48892895174618206 9.067220920529257 0.5176116602165988 -0.723426925615638 0.7847662479550678
Ni 8.727277240711487 6.1066177607767935 6.47850431732287 1.0011214936534822 0.22716159228529909 -0.8234999170798399
Ni 4.766444500664714 1.751609828597969 0.03187849645974443 1.0777581084716148 0.6868185303639849 0.2753857173990096
Ni 7.612574877675368 5.314693805083762 13.246681588236907 0.14272862135119935 -0.8855722609305522 -0.6956777805268277
Ni 6.086921130786007 4.571782827761931 3.7949863690864567 0.8231610456831824 -1.5970450995081076 -0.5712381872928033
Ni 2.3608151177303327 3.009777555318755 5.366502193376912 0.5134827256498898 -0.98636079040454 -0.8822941043999126
Ni 5.77078602072072 4.20055127046993 1.0210328044664831 0.09975623155473141 -1.0644768179816764 0.9459541044527193
Ni 6.806767177109627 0.7665963848214107 4.468136193659776 0.1853729383842872 0.8462130424066395 -1.1754268613696983
Ni 5.504671580186748 2.513256397118995 5.94001748754113 0.47829435067421505 1.6078241924014827 -0.6966476006392648
Ni 9.059610053128269 3.616715539340858 12.359336744059853 -0.16678977606546114 -0.9815998786807869 1.6160753766666813
Ni 8.129035258182238 7.147208171175862 3.8884357284766606 -1.257870826898227 -0.26030311203427425 -1.12561533716421
Ni 3.352560498284888 6.58754769741587 8.071637916139926 2.9268199116354885 -2.913026457395822 1.6438422623673046
Ni 3.956848627774834 0.008803301940458018 2.603151779075049 -0.41094481758496326 1.5546648347696836 0.0037003316697226596
P 1.9514685753543133 8.740134633476671 10.896878295572954 -0.289137005546831 0.6366503941500261 -0.09984133506936999
Ni -0.07070073145058461 0.7196155836231126 12.193482908720572 -0.11506612243892442 -0.649298679041656 0.9018118627178662
P 1.844532016223853 7.504667949279611 7.3489432761942375 -3.6690146047769323 1.2633292789096373 -1.5374068190201844
Ni 8.14891849764712 5.057611263096016 8.338327113854113 -1.3553436617354206 -0.5038997099471451 1.9127377440562803
P 5.877013463849617 8.539109577507231 8.439286571529292 1.619999908532068 0.6785583472377217 0.875574269177576
P 7.952334747161153 2.3693618316439093 5.47837364004983 -0.2878113447568721 1.3046880443620819 0.5244191700567356
P 1.9454597502884363 5.345736291099559 10.649115963768908 0.5136696448497153 0.026009793800200364 0.5334090322601718
Ni 2.430793670516167 3.3344500488239146 0.6700828978665578 0.23590437147493565 -0.8752227993754281 -1.50727374708023
