# total energy = -340869.35826014593 ev
CRYSTAL
PRIMVEC
9.23750125916465 0.00000000000000 0.00000000000000
0.00000000000000 9.23750125916465 0.00000000000000
0.00000000000000 0.00000000000000 13.52001683372151
PRIMCOORD
 96 1
Ni 0.37994211004088513 7.775296944413705 4.584245649369004 -0.21011260722281233 -0.9938182751238498 -0.13460290692027138
Ni 8.992365410176662 1.137099419835275 5.438831805681109 0.34227476591207506 0.5655997580601033 2.06188178201552
Ni 4.256566548585949 2.7070866102912094 12.727351246294887 -1.3952186435534875 0.6112082999278378 0.6616386886642476
Ni 2.851450275505235 3.6283518198804066 10.579426273681937 1.6994948187346022 2.0674651896405685 0.5093759025703679
Ni 4.0076805598566505 1.0799285263102172 7.1122854732910445 -1.4037477640704212 -0.26832829633159594 1.0861491607487874
Ni 8.211787340414034 8.39565055979079 12.135931331467031 1.001685079466436 -0.08515339403989207 1.0698787057235382
Ni 2.420668655106536 1.521037672797301 11.30126030350372 -2.573455463568155 -0.2770805886029293 -0.07455839213286515
Ni 7.355609562684193 4.75807971393882 9.213093648438505 -1.3768918202198415 -1.852400123508487 1.081117511862151
Ni 8.15710133465085 2.455614121289327 2.5431422142636335 -0.2479420193657601 -1.0206145693810875 1.0563557315364387
Ni 3.9167558377743847 1.6207472583053757 9.472231415748208 -0.2794164358249575 0.7046077360266059 -0.29026006340768074
Ni 0.004134705435743397 3.6254420070737505 10.909071114672154 1.2328287963279347 1.4685724738552903 1.377420181919486
Ni 4.75879100151378 7.832883525482571 6.251966523874779 1.2975768872385975 2.1404282122618556 -1.314535369469807
Ni 2.5683301081681047 8.475037643157142 10.532417554977838 1.437446441874447 -1.5031386418659338 0.9399603487631296
Ni 5.945043164029106 8.794100926782201 13.15651722777332 0.9610346529349255 0.48352603138679956 2.4268383057958274
Ni 4.958348735044533 8.888572849238297 8.688678870672108 0.8829862453709308 -1.4073195405820795 1.0339791636134514
Ni 2.8318575359404186 3.657431472945018 7.934653997457836 0.9635530484814051 -1.0921395740042676 -0.3407580721572325
Ni 1.649799198867067 3.4907961928838587 12.792341684394023 1.07940412871547 0.26324882492615953 0.01606785209614007
Ni 0.013816530206079978 0.491532045550992 0.5441913436005872 0.5892323098773787 0.010711729990549293 -0.9196530046643452
Ni 8.325565639904765 9.643027266247838 7.856237775443801 0.8270770929081369 -2.3402708050172274 0.41695271434194
Ni 0.04917953143287371 0.46231105872148553 3.0258201151315154 2.035608707251604 -0.9180617489178254 -0.9083288379007775
Ni 6.224957918528428 4.505064562274361 3.4612731397725183 -0.4482255563132926 -0.2508244831198777 -0.4225574621232271
Ni 7.206082134425974 5.6003088651986594 5.366918784352425 0.7617055094808624 0.39571591645035076 1.222527928622559
Ni -0.23274899827867335 4.0178048609236185 4.829241726438357 0.900253517091811 0.9402094886594583 1.5391446276468976
Ni 7.894359094461285 7.631358204244461 2.9018953445714795 -0.5056807131069678 -0.744445436848834 0.6423644138156679
P 4.065257903424543 1.0155339070238742 5.147949366275937 0.1869713932196586 -0.08443991291263522 -3.7754456772486784
P 3.5223053087045035 4.785579754336961 12.59881696274907 -1.7471052215237137 0.3219028871239424 2.8984346756245762
P 1.0234227328552523 2.142536738295102 1.7771252172855494 1.422296473606886 -0.35391209304068727 -0.64042503070111
P 6.595686545098333 3.3418230146840515 1.6569998308759184 -2.3241846980886423 -0.0027279404541243344 -0.9995780604257622
P 3.6152253309970477 5.832151664631832 3.024954561290297 0.24411853185461183 -1.9450757940673533 -0.7332068878205373
P 1.6182069455376602 2.4248624805485104 9.468608467866396 -1.2936158457083204 -0.9216808337276514 -1.559361983135037
P 7.475863350357355 4.694608844749828 11.391492213012972 -1.2062374189926515 0.3303330201691666 1.2215357399126188
P 0.21723553914375948 6.058017800935143 10.52031642870254 -0.12327462639164577 0.05642208754347058 -0.5946740497182403
Ni 5.362443215130759 6.011257571007231 7.287586453015455 0.9294321955382961 -2.1827938217122598 1.591627528036962
Ni 2.553346881589071 7.513995754376007 5.991543820179662 -2.19475073696382 0.06659465720109821 -1.0160200080318695
Ni 5.0936042242986765 4.641243801625857 11.357233093152512 1.6037307390583992 0.8241231524861355 -2.654651929842828
Ni 6.650326363356649 6.564824054345835 12.301741702691258 -0.046335649841746006 -0.806474843276753 0.26118757152175665
Ni 2.1311838495986573 5.068820009186748 1.0835764154446568 0.7737333871796739 0.6485659146406895 -0.7316814523149464
Ni 7.182471081937681 0.3486066592385421 10.362713577093277 -0.8785688330295257 -0.42881629854874537 0.1585812721127398
Ni 8.632324572233108 2.0362685270958347 9.554365731904081 -0.03926665881010657 -0.6901337107801468 -0.6355491906660473
Ni 3.1659502336493808 3.106793277415018 1.832543756875932 -0.28331705643094435 0.2818204172807598 -0.7115468863486004
Ni 5.679187886011468 2.298354904716281 10.9535524531099 1.3478895194502207 -0.11928221740280101 -0.6395238590430792
Ni 0.4680004355710708 4.0818669301749155 2.6531405283560043 1.3081248379577728 1.1052480863617675 -1.962442053259943
Ni 0.993428567194263 2.1347218124715117 7.340949648639231 0.4251162239893388 0.0857509184145749 -0.08353282771733356
Ni 8.81435876641711 2.964563474925874 0.2106565909504251 -0.650476501399841 0.637360018622541 0.0342784615668958
Ni 2.0391783399024908 0.0810295110394413 8.461312564210699 0.01875825444410963 0.9710722396765857 -1.1752980491013179
Ni 0.6773083513793633 6.666242577534009 1.8264322262318573 -0.9870022806432807 0.47042291834593825 -0.04235223971396577
Ni 5.64233025712716 2.0862341698615543 3.291150703093858 0.05571503417411695 -0.2680076797673836 -0.1008458650744844
Ni 5.664509496964559 8.887953936673071 3.3992839657396776 -0.5651279606300074 2.9093045284595442 0.9850824379127485
Ni 7.211504547497425 2.8729089902667 5.201974890719515 -1.5093501699932845 -0.764523952766264 -0.9964546843054323
Ni 5.731139591486492 7.389908403798838 1.6660719805820035 -0.7383606641073348 -0.6076136405980439 -1.1066269689871653
Ni 7.188133670034444 8.122165105969033 5.2145619095460205 0.3645793429465463 0.290104511666423 0.25713088495387976
Ni 3.034713057318714 7.767537443595956 1.1089472118684038 -0.013770057200898864 0.09924226803279038 0.6302025816421534
Ni 5.249182215694543 2.951067486003575 7.479368058226705 0.3406727115322778 1.4245523595205982 0.8066931299351462
Ni 1.5538769887581316 5.636695381533318 7.072104191556468 -1.269013216668292 -0.20507504479890487 -2.0859935874620588
Ni 6.301518326596884 1.8568762581902567 -0.10102777689699466 0.5980213689239186 -0.6920291280306469 0.48795064281705636
Ni 1.792583251414622 0.45863176208373624 4.788276180871129 2.788066987102585 -0.5893071289793722 0.31680336111384794
P 8.48745284446554 5.682116173820071 3.434449284445638 0.14016497438908118 -0.35074449394598306 1.1998867941842755
P 8.109167942099303 1.6229550210380446 12.122533260055052 -0.31910141311940526 -0.7735084156530614 -0.6717284688000817
P 3.2829154709759734 7.536184231714381 7.900637823872979 0.30969297532131174 -0.4351741224459731 2.335288264200971
P 0.7444520509554233 8.715489793497627 6.563075395411548 0.38675047972694687 0.7600409772942459 0.9684312025093129
P 7.71305466285419 7.434359258483371 0.6783411039882018 0.970572931442664 -0.24806774631034695 -1.2635344529419077
P 6.296548551073136 1.4906185820915303 8.741907198781671 0.018625071300355022 0.5969139947923526 0.024914760963808704
P 1.8284247551918436 8.235629330426665 2.8369723402294516 -2.9655093577858866 1.2553735143976703 -0.3398221906065244
P 5.533244608130972 8.226918367008643 11.274746828209548 1.263829101364191 -2.1411882303563314 -4.092663757302442
Ni 4.101330344726103 7.360958075747855 12.67562401209352 -0.48407059103635985 -2.065586484560617 -0.9455653536547327
Ni 6.367400183539964 0.765645649438949 6.366751710971623 -0.8217844770506297 0.6777299377991555 0.10073042254254265
Ni 4.160635100976041 6.567382842115497 9.848277147878466 0.011756369204979751 1.5136009748498385 -0.12020910009244459
Ni 3.76634160942271 3.4000469833200895 4.218704803345822 1.7899991926737624 -1.3990552436907582 -0.813315006127038
Ni 3.7653901468224382 5.300090083559562 5.3427045230505605 0.5509691526311221 2.855544046908637 0.687878339087067
Ni 0.781446394854139 7.3456053491298805 8.861640915150025 -0.18406733219898622 0.2205446011894137 -0.1972699469321893
Ni 2.544876093196361 1.2027872892579097 0.06529989438174726 -0.2665130974997281 -0.6232750012843846 1.7428004235007728
Ni 4.627710862699664 5.460139025426609 1.08406692674635 -0.4615783234711147 -0.8004137246843377 -0.2910445069821891
Ni 6.260106609732635 4.152838650154398 13.273816862635153 0.1254420663566098 0.69815349576083 -0.9143603888068381
Ni 1.620682595798561 2.741459351413643 4.243811407241727 -1.3495375965766048 -1.977562710951465 -1.7151086140124592
Ni 3.1355034304406897 0.9989064052715548 2.7641946888096474 0.3011458570822491 -0.7447262013140464 0.7346335929647347
Ni 1.5507085259242175 5.575358375069207 4.292388653611128 0.7333570402451564 0.23595245110405172 -0.40366345343220156
Ni 7.673786046215796 5.219659162583204 1.3503452823085753 0.8381510913341113 1.2651030829806085 0.38441848915966054
Ni 9.445806620463383 5.917829486161144 12.68200527776602 -1.104135570023879 -0.4121010426765935 0.9419493541687004
Ni 2.261007688280377 6.0779892780398725 11.431552483484797 0.4231189910536519 0.27868084321051356 0.45851793937823615
Ni 7.192161220458894 0.07525330168070504 1.5932795491606417 -0.17017669025982304 2.4263641943728858 -0.032338050011073344
Ni 8.600445956373523 7.051677305653743 6.937134141082405 -0.02717810307668868 -0.37693709318095087 0.03556067071342908
Ni 7.493312989696317 7.015318501822005 9.64138021982426 0.1474576513957525 1.5898046158956105 0.3412807774299219
Ni 0.42416849345176244 -0.09823343285250766 10.38444110313307 -1.0932778013737687 1.141813544190627 -0.13584243575432733
Ni 1.9748391456219885 5.389222730452967 9.162852728143775 0.17797587458926767 0.558191124300858 2.1048413162961817
Ni 5.720885965405895 6.807114467380047 3.9564844819612595 -1.2182215879377212 -2.117245603497805 0.3691605345593255
Ni 7.788765220833084 2.5840246223220995 7.329579208690936 0.04926773588687644 1.8722215291097886 1.2693608298156978
Ni 3.476690528897308 7.72939580207633 3.828679037242252 1.5152979029362872 0.8800986394104907 1.5486034590669522
Ni 4.242119097063379 0.4431912792065131 11.789697786228587 0.22077882868740686 1.1713025547886795 0.4147904165832985
P 1.41283882389457 8.911426426646761 12.400870249388099 0.1773374696743204 0.0016241658669842998 -0.29185080493356835
P 7.568376922607065 0.9646814641646976 4.071458114077964 -4.262938920813343 -0.9863481919990498 -1.307661010947477
P 2.1937309686902986 3.8928491852549394 5.789514131388398 -0.7300662853090265 0.4851622814386418 2.077368307686893
P 6.733269884597803 8.027138933454527 7.519359971191325 -0.500048711632171 -0.5465951919331425 -0.32394511436495177
P 4.4803542471702205 4.6033885226364095 9.197815745578417 0.15968093293482177 -1.3188712778409997 -1.039128569024875
P 5.558952573340252 4.147176062057636 5.651204724312412 -0.5796567503738017 0.327854476721687 -0.05304057266574736
P 4.503272487085501 0.2595626923544829 1.2093902549537754 0.8159097634374076 0.14967445654141318 -0.27340133997912913
P 8.228895192216974 4.914553742929118 7.410253075942898 1.3016418013365905 -0.40297311223339627 -2.6556196930727363
