# total energy = -340891.00835675444 ev
CRYSTAL
PRIMVEC
9.05565220361441 0.00000000000000 0.00000000000000
0.00000000000000 9.05565220361441 0.00000000000000
0.00000000000000 0.00000000000000 13.25386235934543
PRIMCOORD
 96 1
Ni 6.223162053395684 2.2438095519007684 11.764247840127627 1.004230471596109 -0.011216951761741973 -1.0067961754407564
Ni 4.547313964428423 0.2366712866286099 6.269514315775051 0.7047825710415733 0.4574784423701282 -1.1661058410790885
Ni 3.010442972858131 1.5842592205843236 4.968170881935132 -0.8576148564856778 -1.142535252848 -0.09859435003614632
Ni 3.114483363292338 4.040921882168793 4.655936514977498 1.1936521261284734 1.0266875150480448 -0.9591883437548061
Ni 4.787116695657272 4.402006966003208 2.5269155073455924 0.3526432536305927 1.1210696267750564 1.1087486433158582
Ni 7.222706854104794 6.061400934557992 2.6695266380510523 0.5309484865348211 -1.5534808417639117 -0.4524383088430595
Ni 4.952789856332163 4.549233762737419 11.419302645567377 1.2801270671932663 1.2193829552356743 -0.4210433394715458
Ni 5.696929036725632 8.062935562124458 12.421334128425782 -0.7353463027610433 -0.09005545932719973 -0.08771626967106184
Ni 2.0610755421025377 6.543605369254755 0.2423817810326321 -1.9793640258262624 0.9032010297559091 -0.0842959311356032
Ni 2.628964559816837 1.5361555950306194 0.5219116593443317 0.6648656802419775 -1.2079831980391649 -0.5589472857405923
Ni 0.36869635967739056 9.16450134278237 4.716148453356476 0.8089829544105874 -0.20643875791565094 0.6180708313756259
Ni 8.812164019167247 2.313601464954684 1.1315064841910831 0.8717461536807374 0.7969393929824921 3.448125218653591
Ni 7.0301655727563634 0.6351815707055601 4.912676938457034 -1.221999566922915 -0.04483746802966472 0.05250295499472248
Ni 0.6327999341241173 7.210916394678791 2.3267421221536635 0.38166149523981363 1.296518364067096 -1.2638951787154362
Ni 7.400451199430115 3.6125895236051226 3.9387695952601782 -0.05904589831956282 0.5839466359984072 -1.078557978665091
Ni 7.640969327198637 3.924203578373293 12.885047826485097 -0.33077087903753355 -0.12333813263972952 -1.0884983777072545
Ni 8.111546304212615 8.733696791113248 7.169942284260333 -0.6510673409063045 -0.0877473800193134 -0.7748955258085751
Ni 7.159715736003971 0.4907620262156358 0.6754366623233843 0.05470279085951869 -0.2813879577290315 -2.209347146720756
Ni 1.936288652017815 6.5128704850060215 9.187206580047203 1.3576643394487975 0.6456178877559591 0.8749281509531448
Ni 0.267322858875255 4.761688423715479 1.3609459268123156 -0.11607270932656784 0.40299342394837046 0.3019156453687381
Ni 6.350982587034716 2.2346271203662322 7.015534355172191 -0.14880388101100178 -0.9039361081497206 -0.4659875082824039
Ni 3.224935155626399 4.5397615503260536 0.23028886281643915 0.8358977765235603 -0.9276146827135832 0.8786469945656287
Ni 5.808087169946965 5.618579532152843 4.796586191372917 1.4802959329398055 -1.1172592518900306 0.8514179836463466
Ni 5.379311084415649 2.8887440602421224 9.261826061396052 0.26006631343311987 0.8414336187401251 0.4912635092403733
P 0.06958091635297414 5.518804353999471 12.613051345405726 0.7374620635524654 1.7421640754683545 -0.7128946586257464
P 3.9799048962913726 6.402373414409956 12.322354942118448 0.7975235476207362 -0.30133689004713266 0.8052476557378712
P 2.2839170363844574 8.528984712937975 1.7157255598799674 1.1720216923428914 -0.4363948822269517 -1.1242935330289927
P 6.40653901451438 7.8146839072055485 6.0105208459781645 -0.6381737727730881 0.43514506898025057 -0.9047825153104161
P 4.659567831590268 1.0536613794570264 12.640990749758297 -0.27316762670176825 -0.3152504148044312 0.8857810345072487
P 3.957772881823516 6.15298980294093 8.170475962211624 0.7940669565307034 -0.5409927581447005 0.05121380386965373
P 4.9662375001475345 0.7913309017504003 3.940187710426163 0.06435111258256014 0.26133283885036923 -0.08130676660029224
P 0.26366890313148245 5.596447517684988 3.472710483229021 -0.8020908552764444 -1.7049440147746318 1.86611747309458
Ni 1.647467674342768 1.1372903293795529 2.959269481140513 -0.15979123326044092 -0.05281482980818646 -1.0367423281808854
Ni 1.7026256531167916 6.48686265131057 4.944539251429682 0.9976993553458107 -0.2877288123453948 -1.9440311548529232
Ni 6.140203221750826 5.824822015583872 9.113461874720286 -0.4629695473916865 -0.5659933939540962 0.22144500151649604
Ni 8.594131076310218 2.1396695492901507 10.23859589631684 -0.07331346398217051 1.6299806738938636 0.11927373276236877
Ni 2.4145448222677754 5.040430460268299 6.859615943263574 -0.0003524982434122961 0.7776383786610349 0.7971458525663433
Ni 0.48228140774217115 0.02507238480243626 9.09290554377019 -0.06729939657760668 -0.5385769496143563 1.3571465192721142
Ni 1.5391530159753248 1.361399614997602 11.402894708982146 -0.059356230471130034 -1.376939128518009 0.5009349708918663
Ni 4.037507901213646 6.92313681702985 1.4887266155807837 0.6312932436031709 0.3915556144250741 0.5193944631486346
Ni 5.558821281959152 7.960009016935564 8.0898127384504 0.927534721405267 0.39748586386657997 0.2060248103066839
Ni 5.255882542191065 2.789140939484368 4.7007737667101885 0.34608488368678464 0.33076059462488844 0.8217839628299977
Ni 1.0594207743840136 7.304551840504338 6.963844691267721 -1.597305809368662 0.046118391624617346 1.3650914851508038
Ni 5.071799240185096 4.4362554433835 7.260200877305576 -0.5092627740312713 0.17995125314808363 -0.2951541582751885
Ni 8.34199454651131 7.051346743722123 9.215490099191008 -0.23688781843412748 0.5000646524717709 0.2927103247203862
Ni 4.613157613035535 0.8075966645929388 10.318834409980461 -0.4101827426079581 -1.1896088092970352 0.7808556000467519
Ni 8.216736762501741 7.0501513976052 4.844432636398436 -0.002420179405718412 0.14502307381233087 -0.39655049653650415
Ni 7.423615558271677 6.2616032978376035 6.975454943210944 -0.0033907708491038376 -1.0330692502046726 0.91800698442049
Ni 2.4082058655871292 5.374538755600362 2.615053266598539 -0.3733241790187119 -0.39858655312992647 -0.1341791891192915
Ni 2.4427712908014536 5.288510057791592 11.295524555160119 0.08204698720042643 0.1937295378790986 0.2979088382021901
Ni 0.8385959738917793 3.415592861275438 3.3932534723676 -0.11340724667926276 0.21132796768715217 1.079051887582374
Ni 3.7809793800002907 2.34347606222533 2.7848349767677285 -0.4316270285246631 -0.08688220380554068 -0.7248346045964421
Ni 1.3007901334782224 3.292961216462135 8.186221930606349 -2.643386384231338 1.555259016710257 -0.08099514889714439
Ni 3.270485087203043 2.6571185831313073 7.111055187827609 2.165330117709858 0.06984915958265389 0.3293205197442522
Ni 4.123717712070435 6.880819753360336 6.0619189178753246 -0.10534041051072826 -0.2036218572921461 -0.41398926083824183
Ni 0.9820945585325298 7.543512396059901 11.293337615105296 -0.802450038388076 -0.6110879722998895 0.10031287538914982
P 9.512328951501832 5.505447266708109 8.243995181793759 -1.357667938993223 -1.514364078268108 -2.7171791018427722
P 8.440194041146922 1.6549385875735296 8.01272830851802 0.2350294250691501 1.1133894845219792 -0.7524058293464914
P 1.8503052324710485 3.3109276308255664 10.377841041024876 -0.16102150612311622 0.17963706434177448 0.2734926141413548
P 4.039011139512199 6.121195407361289 3.844176966975854 -1.140849637615461 -0.017281412788267014 -0.4636766007610401
P 6.988074900396871 4.172908015912251 10.323911008716419 -0.27026485123267646 -0.6858960185497155 0.6394606099053116
P 6.59024197911951 7.934616967603376 10.203366691781527 -1.5638822396028937 -0.22903001295260556 -0.682000025929419
P 2.4022110236977183 8.428168134758495 5.761122745465297 -0.04063320014033002 1.4429763705537408 -0.03797647924377331
P 6.762217873865444 3.8369795344476003 1.5940021970024771 1.295150794295608 0.5064217050380504 1.808963649591407
Ni 5.139435907967592 2.954424707106019 0.710233006673932 -1.4624725316051392 -1.5899784224693132 -1.5450064857443133
Ni 1.2971044829510467 0.9859794334125259 7.119696996913811 0.2290922336491087 0.093521049278297 -2.3940940214852704
Ni 6.787655201459637 0.9461436185008644 9.123282729749087 -0.4442933111384219 -1.3882866923203445 0.7261589798348204
Ni 2.3568150382118898 1.5836524918734618 9.134562450379677 2.2165590910881634 -0.9275743163939509 0.6417581476902368
Ni 6.407725304978901 1.6088996507672357 2.446993941516004 0.9377515140372689 2.2072262437230115 1.6793299137509532
Ni 4.258003981523726 7.160603189939262 10.172564795705027 0.12895033662018437 0.17078989836378972 0.6803462923760799
Ni 8.121480354896429 7.3693993673473495 0.0007362245401950619 0.008650733696462522 -0.9088232610386928 0.7708254695042596
Ni 7.7413602897152725 3.950075577282731 8.104485612035615 0.9132838679132077 -0.10254716403630726 1.1696508781178696
Ni 3.0275672115482766 8.435322100155226 12.16493872530272 1.1534015061385425 0.8381392642595694 0.560324368593777
Ni 0.2890645747246317 5.141120259314165 10.417350852450102 -1.382751107214096 -1.4192355752933752 0.16199929665535326
Ni 8.563830863376728 2.3745460056128973 5.618192855795325 0.9904010219121846 -0.03292220464931749 0.8101283808689402
Ni 3.630918164064591 2.7791887774957527 11.744419583630565 -0.7534718087171605 -0.5701508677658955 -0.279523393716467
Ni 1.0682862580845174 3.4636874311767416 12.493276758924916 0.3022110651219698 0.6055410743397314 0.39245987140689825
Ni 3.176541749195865 8.194541358467077 8.03968698571557 -0.5882658321990515 1.2936042757440949 -0.6257897972864384
Ni 5.7707326037931574 7.6824351595424645 3.657748250998047 -0.7275471184315986 1.1147817368838155 0.11879242225057604
Ni 3.3564413397926067 8.331997106260692 3.6931096680584123 -0.6464822926387834 -0.2128282063817625 0.36229414645679536
Ni 3.518727686469553 4.310780323716307 9.321799836116886 -0.18111724843172677 0.20741063491061698 -0.6528267467995725
Ni 7.0463751905540155 6.118370043812201 11.445624710401143 0.5657419400649225 -0.5655259673993744 0.013801938880098811
Ni 0.7612597968226545 -0.08733905071118468 0.22351614038578865 -0.1281581797361922 0.4350589370243475 -0.010093636790576165
Ni 4.757033818381404 0.24678916705616144 1.6566799895302273 -0.9758699181755451 -0.6102253671892781 -1.0520763874347945
Ni 5.700207182894767 5.397195997907472 0.44721611051531607 0.29481143022378903 1.3295904640307166 -0.6094044139498795
Ni 7.988253596774046 8.948053139095501 11.428500471710995 0.5006351802632604 0.901649626108389 0.11174785669896883
Ni 9.116868611153514 4.828736474091915 5.862316038784654 -0.015815112655385665 -0.23481088130044078 -0.08207244112172317
Ni 7.877412411386744 8.563595416414303 2.7999180714067067 -0.11701399019391459 0.4145207078616797 -0.2128040380120464
P 8.513363712546383 1.6261687798957967 3.2074749522321793 -0.39764424382131514 -0.7542400543417527 1.9273734916915837
P 1.987371587211423 3.215653111915453 1.5644327752177423 0.3402397377599172 1.1490249743374017 0.42688565718493576
P 4.548491199240543 1.1894780541660737 8.193921951842853 0.5011509435574143 -0.05759939568102338 -0.3652174907511775
P 8.641990199249097 1.784389138644728 12.515662331659998 -1.1934281830431253 -2.0451847809758132 -3.1450559192963836
P 6.303358911058261 7.504047862896678 1.324757728687746 -0.014863547375393756 0.5510601696830315 0.1735075544052689
P 1.6547484188731103 3.1720229786478047 5.823548790856302 -1.762515899651829 -0.6616142631842155 0.07236961201166246
P 6.885637360437626 4.194569136455259 6.122330080607124 0.2974969474757521 -0.4395234005536044 -1.4801617213547864
P 2.4460947152325927 8.681554344588731 10.036407628465707 -0.21662469730971723 -0.40769700007162685 1.2113667697994168
