# total energy = -340895.50231448683 ev
CRYSTAL
PRIMVEC
8.99508171830798 0.00000000000000 0.00000000000000

0.00000000000000 8.99508171830798 0.00000000000000

0.00000000000000 0.00000000000000 13.16521133154433

PRIMCOORD
 96 1
Ni 6.563036499444779 1.903152404924486 11.35835234334721 -0.3743886157274843 0.17590279411032286 0.24430390839254057
Ni 4.513201296923657 0.2761301191109212 6.229396325361509 -0.32016867804165505 0.050773888118757715 -1.3460370396225139
Ni 2.5532719361869445 1.513926223848625 4.537719191165955 0.9741094838410128 1.013605485053106 1.030033291591826
Ni 3.4579252948604555 4.207863247961995 4.884662191603899 -0.17010341381972638 0.35924944609320064 -0.969342915690305
Ni 5.097539795572869 4.635480437815831 2.766932112265495 -0.5136030532778381 0.1738965623135715 0.0661017767250797
Ni 6.925304420607897 6.105312771076443 2.5762606665369616 1.435580849420618 0.5545082761326321 -0.6308353301301458
Ni 5.092196717031604 4.517464965658605 11.36887119190976 0.11876799677054385 -0.670389181163368 0.03680559886412371
Ni 5.516755579100879 7.794796004840661 12.273004634859893 0.2518356979932115 0.5224795298318615 0.9065627471392904
Ni 2.017147075553184 6.511476691029748 0.27485641553946827 -0.7189760889331359 -0.2566842843347644 0.4620454929155204
Ni 2.750686994680437 1.7019054416185715 0.3531145260055563 0.0558387042361748 -0.6015628064182736 -0.04739211613071838
Ni 0.4499555757955478 9.003267243665272 4.9939461379362 0.31923099671873406 0.5364704447943147 -1.1905086954034851
Ni 8.557758836271747 2.344649005871203 1.3262105619730542 0.31756055099484665 0.7745707954793047 0.5234097549556147
Ni 6.960007445880959 0.6093376297634931 4.835477084762762 -0.8058621493934185 0.013645101587260372 0.043630592205757115
Ni 1.0800574521998747 7.600277362660783 2.5706657257075562 -0.6176391431548459 -1.684040688963061 0.3356526326098671
Ni 7.521606377943779 3.9633319514228043 3.779613703863291 0.9861129360597922 -0.27881814011932626 -1.4969700511613766
Ni 7.688276247120702 3.835556815600138 12.533899784062834 -1.9615984743127246 -0.1843835778878244 0.20887256416812416
Ni 7.8541815343514845 8.689257935926204 7.270198341430183 -0.32467145100801503 -0.14687555364003738 -1.2896404060003401
Ni 6.786528299842525 0.8229969063338709 0.5274616974299023 -0.18093572854854 -0.7555168641716472 -1.0411090897900135
Ni 1.6561024855038922 6.516495946629117 9.439522410494153 0.742195978693025 -0.7694923525151328 -1.476204279368935
Ni 9.309549776207461 4.863047010232419 1.3364532615268223 -1.1204602753258317 0.02404007166833924 0.459591374948073
Ni 6.259173643885083 2.1095715402189987 6.791537660852003 0.6138233689531816 -0.603533042770767 0.2508666492117228
Ni 3.445278209963119 4.402444855713907 0.5764201282117123 0.4826780815642074 -0.23640162282632834 -0.7319593885666814
Ni 6.172784879052918 5.741830513881221 4.795164726529545 -1.6648921410590682 -0.1543196686229084 0.4145844712200795
Ni 5.154082879260393 2.847833877248885 9.46457551209875 0.27522810877522275 0.08968573469260684 -0.18721436246840015
P 0.035146482801823656 5.546484324183168 12.459727239713654 1.1633946127955126 1.0487876893811936 -0.38540707832517496
P 3.993609396489971 6.118832378900553 12.34738856362948 -0.20925283032567835 0.29675852664783087 0.7056161226864622
P 2.4470220309185646 8.456132403007087 1.1903731344053787 1.0196159529132438 0.8405761558358362 0.5674648362933001
P 6.187698724543519 7.750756084742965 6.042266243305866 1.3674766975535286 -0.5005325932471251 -1.6559333892038837
P 4.786822687743065 1.1488608322708058 12.341687480835786 -0.6742990577407354 -1.0926018583526667 0.3994267896430347
P 3.9011939269058753 6.069476365506749 8.220463060977753 0.3107453278452261 -1.167806368709963 -0.7569317422413029
P 4.736774053056876 1.0778356670152074 3.695514187328689 -0.3194055746233854 -0.4120923009258452 0.9166792667480019
P 0.13732341506770426 5.570303300575875 3.400719273650219 0.17731484396650107 1.1908583654334202 0.18894111535151975
Ni 1.3659031590758128 1.0406320090241796 2.3920791722689043 0.31602020309092027 0.504829420850266 0.8574613616269491
Ni 1.7349983472638786 6.456309854845276 4.819862522406228 1.6139639867506332 0.8848230414693536 -1.398238661326734
Ni 5.975144943516443 5.308078678294822 9.056493840722892 -0.41834136715935044 0.553624330865782 0.18935660562238357
Ni 8.629089834305802 2.2237730977272405 10.102996040077086 1.002944405794834 0.49196619173435274 0.03628855001838911
Ni 2.371004595308755 5.231008818123853 6.860404906003142 -1.0255091784692274 -0.5371173343496943 1.226806501393255
Ni 0.4729892815541611 0.0033569644976430245 9.051188541524846 0.32390346249373897 0.16251737394235236 0.43651135320015794
Ni 1.5028712684156045 1.0645139509889232 11.519072865474987 -0.7544459997049716 0.36897875756582255 -0.9301793581169657
Ni 4.233993960356563 6.837098649268434 1.6287475424873268 -0.3419333234122563 1.0077012037535291 0.32751971909008754
Ni 5.654128467118039 7.707111948240917 8.109269458796444 -0.6549147396768528 0.1448955470955311 0.6899835583555278
Ni 5.447790287559 2.9552621382224933 4.542339964645159 -0.5147551646044102 -0.3399959971802274 0.9438769102087164
Ni 0.6994737456399179 7.186431642919196 6.83508824850417 -0.16820542546606515 0.3462504627303714 0.611382877832489
Ni 5.022619759932814 4.39636418047166 6.827821121983146 0.7791211338541485 1.0702615429842535 0.38304500585090157
Ni 8.171519022326693 6.8696068746019865 9.028280766910303 -0.9059760213978849 1.0705217386241757 1.2191546412749519
Ni 4.580619434409816 0.15518404932954774 10.31794431185784 0.1007417353964523 1.5858363752764817 -0.5956017037388324
Ni 8.073121823399262 7.239484634899631 4.62298986734041 -0.2800977781626983 -0.849651121553911 0.1981847454369748
Ni 7.280142404270871 5.884681406665436 6.91475049122664 0.09699203854603296 0.9014308252293637 0.36718078512513536
Ni 2.349038605750222 5.255052671559544 2.533197612313981 0.34756892443147885 0.23505359343886614 1.1436241150368047
Ni 2.286144994368872 5.014011466727443 11.50798732676412 0.025931118043465016 0.7520337907190532 0.09779242296014126
Ni 1.052730393936639 3.3026521942218867 3.6320583833398823 -0.2980674752672415 0.4417209224255554 0.05158764226930471
Ni 3.872337704750359 2.757676173176334 2.426414298699647 -1.2447785124906434 -0.5140421976977857 0.7253282564034089
Ni 1.2188425680469654 3.304658097445291 8.185298588012492 -0.7394168732859911 0.46110961136481227 -0.2207567172002198
Ni 3.6067399268245666 2.630566673400896 6.8988471867469165 -0.6709417112327284 -0.3901111686690636 -0.011763825404147481
Ni 4.08866942009954 6.716330682105102 6.097796480791796 0.3841953174052609 0.9471314125902721 -0.5586876043213024
Ni 0.7458137081332393 7.42769772479428 11.370292414821408 0.49467999112108996 -1.1425933597794453 0.9492014077454235
P 0.253995921524238 5.3861649827000715 7.9921525953029775 0.646217469013171 -0.526679426845822 -0.16756496366858883
P 8.466467751902563 1.6832856224596187 7.846505131612233 0.22650107588316473 -0.23436710889480283 0.07320470631844812
P 1.709911064348749 3.078161939753299 10.388431571226622 -1.143892795317159 0.2637010819722297 0.12442133840157926
P 3.9738741871978247 6.148714040372069 3.8863700322324677 -0.3821716021070128 0.5054182034742005 -0.33225851932665357
P 7.0568574907526695 3.799036783819777 10.260912795232958 -1.014264973013976 0.6299169320809345 0.4157136997285163
P 6.307998947457446 7.6691527033854685 10.222575756945298 0.7980873905440061 0.2439596376792444 -0.8008832081215884
P 2.3448289075055895 8.427968802143956 5.918091838695435 0.4833203431338966 -0.3135442307466019 -0.43122182266644443
P 6.7853319539738575 3.9659405251214017 1.545082488399767 1.0567233992885028 0.42137835421346137 -0.27678645440127814
Ni 5.335738554581672 2.806942235752944 0.401973111380282 -0.6421828939324811 0.8852308184307336 -0.4899501897455885
Ni 1.4240833476362496 1.1951045473897308 6.818328612244769 0.11689571944849546 0.4329501182114608 1.0297458422583943
Ni 6.891473918261606 0.8436073370773047 9.235027323179398 -1.2415803172683197 -0.7400149118813062 -0.8555402333448363
Ni 2.7132944399733048 1.603238390239562 9.093685805107683 0.520892902071032 -0.99617854782591 0.0698699855182603
Ni 6.444508307629554 2.0375389258108387 2.5408722160368886 0.2042327514032676 -0.601065812177197 0.6210178298190918
Ni 4.15042065610254 6.845491060512541 10.162147697463206 -0.19725014943784738 -0.6242437929555572 0.9389252226303959
Ni 7.934525604268278 7.183661157749651 0.3942112553646974 0.9120703072210808 -0.8392895758139287 -0.9575459230553767
Ni 7.6438045631004785 3.7487632720906054 8.027487974820907 0.5664479649930115 -0.3797025717412299 0.5764040477644589
Ni 3.081957864238844 8.311914257801538 12.22080527613462 0.6728538406537767 0.1667928613892547 0.1223855389184731
Ni 9.130097895907411 4.765675250620989 10.378162785935869 -0.4581970657037077 -0.45554985788884766 -0.6922057628178272
Ni 8.599765867900881 2.4560800782099004 5.556061387689708 0.3118262196142307 -0.24082520581532074 1.0736695402245382
Ni 3.4428945133075044 2.711522408874602 11.446940405659742 1.3566379550668117 -0.05652930254529619 0.37444440866608414
Ni 0.9176332615944618 3.386918119768296 12.652189606212499 1.5090272394362267 -1.1198216133005683 -0.49789129896953604
Ni 3.081957864238844 8.17708697791094 8.114865299134022 0.1362779806298492 0.41244737027241873 -0.6888070215489234
Ni 5.506276308897894 7.898149493795426 3.770134686747492 -0.0849217376450602 0.30740957860377377 -0.1888480414170812
Ni 3.0555932797195737 8.39562248828135 3.6901036456745295 0.7212031784914418 -0.8644606757629177 -0.07322861757784808
Ni 3.2555629414213474 4.31340254177455 9.452411463089739 0.6639570523847791 0.46282479428370615 -1.3439464756420725
Ni 7.079417155704675 5.9804970171394265 11.3468323421893 0.5912490831970914 -0.004425382761205281 -0.10456779401076184
Ni 0.4618947477615756 -0.03470752281392178 0.38484017922952996 0.3764305858581775 -0.4330005118334221 0.0741714411070916
Ni 4.470906422679505 0.5810112179212433 1.56475113408719 0.3455549793252436 -1.844036067814508 -0.362943092894704
Ni 5.8344708605083 5.593555586820268 0.40261625972321197 0.3373811852651996 -0.2968397735077275 -0.6901051715350567
Ni 7.959639872428566 8.735573611698882 11.312379380188036 -1.1434451662567793 0.01782340133466608 -0.3913188158239196
Ni 0.14399326816256575 4.955003730648831 5.485811598478313 -0.5071727242714621 -0.8724295529010072 1.0429111759957588
Ni 7.9952514009552775 8.613582313421727 2.582672360786479 -0.6574801864111838 0.8161571035615234 0.05317272736823746
P 8.49855320839531 1.6120265850793187 3.538492442803888 -0.3820224781236582 -0.5208216825134643 -0.28263134321782934
P 1.8265682791663598 3.1957096676611205 1.6012450801305647 0.23076190804204774 0.11976789878996792 -0.5229006765296802
P 4.794333580978681 1.2308240168970739 8.136021731337818 -0.40941141165957234 -1.025438216021976 1.0143986703783627
P 8.466062973225196 1.470848777494894 12.428064552061716 0.32243381992674797 1.6553006407158912 -0.2826557686978616
P 6.287346239829932 7.925503537303819 1.3792932377231635 -1.923928213455461 -0.6530041529177012 1.2379244656832873
P 1.7408991208717397 3.3253467853996823 5.883915025702951 -0.02874287646064727 -0.9999634687896392 -0.3598870796771996
P 7.022559244156976 3.9774542297221065 5.857255402503288 -1.115350464903092 0.48822317975215274 0.5235894750665886
P 2.3171870213821784 8.488505702114852 10.1396617921813 0.12109844467593338 0.504997313886698 0.1335559537129958
