# total energy = -381166.71240150806 ev
CRYSTAL
PRIMVEC
9.27241935341105 0.00000000000000 0.00000000000000

0.00000000000000 9.27241935341105 0.00000000000000

0.00000000000000 0.00000000000000 13.57112299423647

PRIMCOORD
 96 1
Ni 2.2370360535982736 4.078492156693103 12.764726689404249 1.3219465743322139 0.18930646911073848 -0.7215777882220411
Ni 2.2916784203020573 1.0405323446063373 7.014275471977617 -2.0246717486241264 2.151262326762882 1.7285878794458165
Ni 1.127859989204374 0.29837717939267605 9.560977875418569 0.3542473648929189 -1.9028649650272584 0.9216813479482837
Ni 6.277984184704474 7.982551562252391 1.2993478199809643 -0.11995970308579985 0.11868443591780206 -1.4954880672992115
Ni 4.307214922598791 9.527874411415652 7.238592911492509 1.923804800503719 -3.292699718561013 -0.7911893778725922
Ni 2.9470808309118497 1.628450087836165 13.009740168709202 -0.5824399695458936 0.43496123510421864 0.7419398968181609
Ni 2.74872523808522 9.19060870564326 11.33333961914976 0.5295588052761461 -0.3038033493097542 -0.3416502449541987
Ni 1.4543047816994346 8.776057385332258 3.1068640868555564 -0.6128309231329252 -1.3325153509869956 0.7065872283504798
Ni 0.5597509152413529 6.307572474565627 2.765211599530889 -1.188392420391431 -0.20962486895311638 0.708084895941929
Ni 7.869251871304907 0.8761991125313653 4.665982441395009 -0.19075502863180696 -0.19299883036066118 -0.4482330125124603
Ni 1.154842729253247 8.28073402084059 7.629034087241627 0.2605329686568933 -0.5295750032260621 -0.8173462387736181
Ni 2.3803227484351246 6.7264632870906755 4.166741479765661 0.7103670071078863 0.08224573347479384 0.8630987624183846
Ni 2.6511237529462375 4.4449752555562165 5.2704273447152525 -0.7844592582376102 -0.7711715399897686 -0.8310113949655366
Ni 5.1273604062148825 3.840682419911849 5.286616988744577 0.8427428244698518 -0.7216145549972475 -0.2623985611107223
Ni 7.4735142896740285 5.732237404272678 2.026603134684476 1.9124281832356609 1.2110045013639918 -2.3077594626530837
Ni 8.17792143607705 5.836552120956467 6.756600504172066 -0.8846155534442377 -0.768786841807676 -0.730419040662755
Ni 7.391842820825068 3.486207103991447 4.9203054296377875 -0.3953587902212481 -2.2288625910458646 -0.2675808766426101
Ni 1.6782800689436026 3.956105494870053 7.601023035896734 0.7061208302370227 -0.07641472861531355 -0.2362938936038705
Ni 7.036597894106022 1.0891847284676557 1.1175184600028247 0.572185381697421 0.03202257565318356 0.3237121724185392
Ni 3.797556397929956 3.3595829465662197 3.381516854327598 0.009026628978642518 -0.03357912150702604 1.0221037523321042
Ni 2.2138271881885387 5.930583724680048 8.633351143941132 0.6670626878932964 -0.15664111766723346 -1.2647274448087444
Ni 2.8747745055162786 1.2445070235050006 2.8408569231022676 0.4470083960767398 0.1889161756508553 -0.17982732597570966
Ni 0.9627089297506011 2.294942311881852 4.083523371384003 0.03854109349799169 0.8055505316902707 0.5594774472124493
Ni 7.0539373181236815 2.295201939621154 7.035500966907471 -0.21696742536111668 0.9725691359370863 -0.14745816561638475
P 0.6483627899070077 -0.0271097721927458 5.386066467042232 0.27890324363396485 -1.0218579548698854 -0.7031188101859053
Ni 4.737306817590863 8.20119520842161 5.131512595559861 0.8601576775121896 -0.7335614429464785 0.11578397444155544
P 3.8849767667206008 5.393738466738603 -0.13992358837096552 -1.360789001120708 0.3568138400685146 1.0621168023899321
Ni 2.0613700707027753 7.1012730184499695 1.300185119440213 0.2733018382867874 1.1463176027085675 -0.3261315804933093
P 3.0462678997444255 2.186955717170795 5.180762123221573 0.43218752901382335 1.2148279888751399 0.1528579964757174
P 6.314656602880864 4.542446926825548 7.161535398467712 0.293061794522534 -0.24632222437414997 0.10124335762321919
P 9.573494714178697 1.081423713546382 13.141542972291576 -3.243852872261639 3.149271500039628 -1.8557538704720686
Ni 4.010877675443487 1.331371047139998 9.265413020787687 -1.6416876779181466 -0.12858858240539145 0.1386472521929741
Ni 9.426434144702707 3.3054598353410407 13.058324863909917 -2.1367325085778233 -0.8933493337728098 -0.6108267482187029
Ni 3.3196837264870784 5.302312412827301 10.619688797985667 -0.3521945961289483 1.0532539526826634 1.557256249645944
Ni 8.580502063122383 4.294641522081172 8.445390860347764 -1.2285049721416004 -0.645503730775598 0.5225070406356872
Ni 8.222382686432494 8.187685293558651 2.8910151478515367 -0.7668497726859631 -0.5100281914423862 -0.18628465156527918
Ni 6.577047523122447 6.0974594541163265 8.987666047008323 -0.37379957599323366 -0.28536545431954075 -3.2133719300639627
Ni 5.185155395467331 7.425520247580225 12.664056033489947 -0.09273094927683384 -0.07810548605417515 -0.6785593756789862
Ni 4.079029957010229 4.916950668349237 7.068424545976727 -0.08566632912056858 0.900261744621927 1.092938415756479
Ni 4.467442327425089 2.3892706330217783 6.999971838025936 -0.6334879372616444 1.9517277521662326 0.5632106890026364
Ni 0.34001405084128766 8.38860934652052 11.690409357979329 0.11394897811534568 1.1995615496343728 1.8498182217139236
Ni 1.3790590993981955 2.196821571264266 11.208580145237876 -1.211332574127372 -1.1333862393588805 0.3633328721339549
Ni 3.3068043361338537 8.193564007369988 8.959723611565959 0.19771937576478207 -0.497179360504176 -0.005034991320746167
Ni 5.9290630479212805 2.584547782653829 9.198615439674946 0.49088375730345135 1.3334486614345422 -0.49468796154088995
Ni 3.320156619869379 5.4751688526867826 2.1893609827270417 -0.3980443074732113 -0.07713309483857683 0.6082810989787137
Ni 8.163882993316227 2.946700661722158 2.145825119813822 -1.2302661778070814 1.885355238278269 0.26879572288631776
Ni 6.9762529895568575 2.700870282280328 13.005940331296134 0.3748313596918577 0.21033012255025713 -0.3428674051907515
Ni 6.407872233709496 0.40589644417298976 8.503936915560336 1.1847818202220368 -0.3497736453922815 -0.7182340685607889
Ni 9.127250264834343 0.9707388448304376 2.4433177104090196 -0.24757666560654132 -0.6589050917831685 -0.7510757976811582
Ni 1.2762836043116974 6.120816678234234 6.394360464362685 0.22267270327601005 -0.5052994185081492 0.2030024785405923
Ni 8.929256296358885 7.290476733466209 0.3186689417029695 -0.28163478363251493 0.6918190689023698 0.7623367153069581
Ni 7.335883770586254 8.877182389790336 12.89997697846778 0.40158111698187615 0.1911887737351159 -1.263592816983669
Ni 5.267225578344505 9.093758286464402 10.283762956796458 -1.1413386614367376 -3.3556974024394726 1.5760926656261565
Ni -0.03191473985368258 3.7114805299321247 6.293241950598089 -0.487923903344179 0.6339592204711082 -1.624104417618745
Ni 2.8825726101145954 0.0972630418359637 5.10477742910525 -1.2326305642741997 -1.225551031719599 -1.6423641351598812
Ni 9.171563156481616 1.4831141883426815 6.550455151924454 0.486704172004465 -0.21385330521216717 1.398870895594094
P 3.4276146866825714 2.586977156500154 10.98382875650158 0.775259336905897 -0.10723762753344113 0.6376227853656246
Ni 9.08280755931742 6.561080417155383 8.876477685926519 0.6897423888789992 0.16541346454322478 -0.4867769342239293
P 3.6323682487991404 8.538460914194003 0.3075735648155188 1.4141298786356935 0.683543459157139 0.22584518746672075
Ni 2.6389583388760927 6.9806759335442505 12.557454738216451 0.07824972494152331 -0.08785202391797772 -0.1549920120995847
P 5.860716045550062 2.5448247385406426 2.8261184126872556 0.5541339235123489 -0.3044543526301918 -0.13592805348959816
P 7.768840843129908 5.80359794290365 12.844552019578387 1.1230989985002595 0.18313582152365235 0.4885844197463134
P 1.4024997752894504 4.353354480840438 3.0779582470519973 0.4994115922688044 -0.5938618382295903 -0.44364796424493913
Ni 0.6504008676605275 2.2363313497344546 8.795295800814527 -1.0190531384312385 0.9692015050164339 -0.7707035992144147
Ni 5.080590323463502 0.6545354394089098 12.492965062257719 -0.09077408266077915 -0.2758292326943314 0.8186479883041773
Ni 7.980465267918715 8.052168886062335 7.250861249416448 0.3520166757901873 1.2894514299179858 1.186179729010828
Ni 3.3217329311437114 3.5941566090254615 9.11735195727346 0.689533872412619 -0.046248232334262285 -0.5746814086463974
Ni 7.946528213424256 5.368257858609977 4.148922671672218 0.4879056485117339 1.3347920628363141 0.20778575886184858
Ni 6.768216991021972 1.2838220811707124 11.039212916746227 -0.00309689375776886 0.500898461226976 1.1356958613286636
Ni 1.3090616063985587 2.6038900492318184 1.4442117533340741 0.5955878197817613 0.46313255533211206 0.4199765887699283
Ni 1.5589996675729143 7.125121680788699 10.330108362745694 0.40527887754843755 0.611784741256598 0.14104377744960872
Ni 0.9316463252269843 4.159829818448675 10.12514338946998 1.0284404931834095 2.138862924657265 0.2925840835551671
Ni 6.064820538318376 0.20815932171105386 3.06825466029559 0.3935361351902126 -0.5666559672387596 -0.3326940642021754
Ni 4.779134700876247 5.955368901364116 4.567117125510782 -0.5703532135846886 -0.022824196983367146 -0.025625156767271996
Ni 8.180517713470069 3.1725118879799603 10.771875160829014 -0.35214754494109674 -0.0553908180654788 -0.10912301748161206
Ni 5.85725743316579 4.921049077662502 13.056791205764185 2.877037698006039 2.0813820568319765 1.0308804700834697
Ni 3.8715688484695114 8.21104251767656 2.817378230292043 0.24719177146329682 -0.19815826307441356 -1.0341308586999673
Ni -0.03357635738521456 7.219264553543409 4.850386752201867 0.8804495949920064 0.9700042034233876 0.5489858036525062
Ni 0.5684948066042694 5.8585555718623 12.043380687495631 -0.3344483278891208 -0.6801058942304996 -0.41092579142156965
Ni 7.921863578190578 8.232823430520135 10.195007359632259 -0.974298202813051 0.048284288927684584 -0.4627327487905321
Ni 4.721896056779445 3.243501529840501 12.644378105334718 -1.7906162574324709 -2.7771025176712816 -1.7550303899080613
Ni 5.21670943821177 1.220296736815101 4.818617589330579 -0.8495716744662272 2.3877521384276426 0.9011163793127384
Ni 5.599233822396035 4.385038337454527 10.630437386392765 0.4684223429761416 0.14621298035537397 0.24001787942267697
Ni 0.632933484257068 5.204469844787538 0.770275631105832 0.0879641240158098 -1.1845607053501663 0.4155514631190392
Ni 5.518100153864199 7.0621990436850375 7.155550979076804 -1.0613413576764883 0.20377149549613294 0.1582974223237338
Ni 7.827498167373609 5.784561666161267 10.629799443947624 1.3118112856704247 -1.2215308548166124 2.8104306995097663
Ni 7.004904765072672 7.325767561172742 5.333410252544108 -1.1078834671020854 0.27622621102243394 -2.355104013375318
Ni 4.648078327044366 1.3726240404312133 1.1732058283572981 0.46452249370110327 -1.1339387694282408 0.48092793164232006
P 6.487401773709215 0.24900247407094261 6.364435585682367 -0.20047919789810634 -1.0483004653321302 -0.8528277195096796
Ni 5.537238427218451 4.829196492465204 2.400174998072457 -0.6132168457174343 -1.4872949899654577 0.5584279229020125
P 8.219934767747649 1.0222564062433375 9.633190549379604 1.5552538745039346 0.7798451565043666 -1.1098333917396048
Ni 3.745714301842929 3.444351403448281 1.1340762190768015 -0.6377752517830887 0.4320959977412816 -0.45854596440269413
P 3.176786473259181 7.097962764773871 6.812880380117303 0.7641215751215227 0.3982880480529012 0.045507497513495816
P 5.876590427324519 7.012183614192385 3.082965353452819 0.41828351733822156 -0.14189198438251693 1.0991764262463908
P 5.131180642950325 6.559856457812959 10.379466377712758 -0.9915024825064797 1.2261511271974432 0.9216579509095161
Ni 1.5447479591690936 9.130690332380093 0.29725521666212157 1.6763600324893517 -2.3810377025219442 2.0549629434084995
