# total energy = -340868.2227127704 ev
CRYSTAL
PRIMVEC
9.22043035509067 0.00000000000000 0.00000000000000
0.00000000000000 9.22043035509067 0.00000000000000
0.00000000000000 0.00000000000000 13.49503184005758
PRIMCOORD
 96 1
Ni 6.9006160982175455 4.965644268093964 5.303439340369334 -0.14099646915144104 -0.31643749313399694 -1.9109364291814832
Ni 6.702957735035191 5.612863148777928 8.884615722087899 -0.21411427218303772 0.855249698687611 -1.161921884904728
Ni 1.6091679273830648 8.071758266336678 5.819259713704366 -0.1623980747556687 -0.9799880541089767 0.9678460194298041
Ni 7.1132853218403005 3.6889097327982516 7.2905287304151045 -1.4636544677283825 -0.0990707754519326 0.6951910706983963
Ni 0.8440510933162815 7.7064540404225275 11.605268711855798 1.1119980034910912 -0.9888046239593422 -1.125863962839906
Ni 4.835839051091529 3.406211341457534 9.05689392897526 0.7772887086311001 1.9328016046856904 0.12382072870310289
Ni 2.735351277622963 8.649335237373009 9.729297492833004 1.7200574733773022 -2.3529975085552763 -1.1431343198845796
Ni 0.7929450145920741 1.4831891889326985 6.496602662044861 -0.2568742888583834 -0.490449240869194 1.3164133032188103
Ni 2.0667502191986484 8.27322466721061 2.225749162445798 -0.43423746956431664 0.6398462753795046 -0.19650247263854548
Ni 3.0242550185192028 4.349092538408017 3.4430146887842294 -0.020906668245680122 -0.3517407964209813 0.03181225941459038
Ni 4.077836701002519 5.5538800564946085 8.000651230322964 0.3445003128084841 -0.006654014981407896 0.9518049068065415
Ni 4.3281068391682425 0.34488927130660196 11.49876536617092 -1.3718807401584956 -0.06535487125672616 -1.5476804330320506
Ni 1.6193841640955735 6.4296273008243565 9.958645552727651 0.12322089033557489 -0.06075336792897279 -1.544016353916902
Ni 0.9955206332245912 2.0404535521372096 3.4338246859580943 0.27674017454437505 -0.4973261704946854 -0.3356413197559574
Ni 4.097789712054747 1.9853614814176797 13.320999917720341 -0.7410911756646205 -0.4177448712259321 0.6691198275326411
Ni 0.1895720458566588 6.562170985609836 7.4933459243200655 -1.662716473563988 1.008798550582766 1.6185634331958574
Ni 3.2138178439456153 6.62655725001728 0.25884513829445444 0.04549695599053454 -0.4054961357655662 1.6938147376306893
Ni 4.699468887753982 6.463613806710915 3.5158201280492474 1.8997873545431991 -1.8332202081459268 1.0312414529673142
Ni 0.7295481023500202 7.354556320085981 0.34405574441236847 0.1031914824885255 0.6894629099653675 0.45281343279429115
Ni 4.466984959532688 7.91223560265156 1.8661468505957397 0.5737177591815473 2.355197858640705 -1.0456280607062893
Ni 8.74889744316874 5.345618198529416 0.8896332122801424 -0.11819541209652548 -0.727463814689173 -1.930632879169146
Ni 0.8215965795383281 2.843977166350458 11.921970205857518 -0.7373900726639494 0.2782380992461402 -0.24067222517722422
Ni 1.759774435020354 3.2017667416141635 0.6393501655120738 0.503207568976127 0.2674302099973588 -0.02869248283868607
Ni 0.5267705562951169 9.038409732461211 9.385038898955225 -0.7014781892586887 0.41350100834791365 -0.7553574557756475
P 7.153071478351559 5.015019672061007 12.937740747988258 1.0136327387466155 -1.3238481622303007 2.2238093448926732
P 3.752917959565612 4.340895575919371 1.3866688030751064 0.07917583630021849 -0.21689440603133614 -0.2115118015631841
P 6.251341061588736 2.7405977024329067 5.335206488695694 -0.2616436852225688 0.049621262571553255 -0.6572511011195131
P 8.8757982246437 8.38477343232607 1.92683387838851 1.0462487250094241 0.8425908722730198 1.417757190975636
P 5.091161985032032 5.508681507428979 10.451510742922373 -4.4327587419543795 0.8101723467329983 -3.3861981421314904
P 2.5950163292796584 6.537331146527256 3.3558770127449122 -0.9023111709517879 -0.1154427890520528 0.5330765886214174
P 1.5971721476330885 5.543968093980216 12.861831711902454 -0.1658490094187466 -0.6891245527893421 0.5205177781198003
P 1.8379636835059798 0.7286048523358599 10.982729234768133 -0.3277279784461517 1.2698840493090193 0.6135775714909626
Ni 7.714577239469206 0.4076140141837265 10.643977081833235 0.6514054409720136 0.07422003495683992 0.7157696661806964
Ni 0.9695190199310223 2.246050705761323 9.492432016158837 0.061394343947081355 -0.6665752067339166 -0.5874803601832785
Ni 8.474589643351832 2.9749072758428974 5.281159092723029 1.1111233141956218 1.8698440300165475 -0.5858253410783588
Ni 7.607334415278602 2.7107972718780076 10.015904424554979 1.071768209436767 -0.20845450279409905 -1.2114760416837718
Ni 5.608409680969136 2.592148775473169 11.31685273171957 -0.7327669720696413 -1.0803978600873072 -0.8570558986584144
Ni 3.0156431366694885 4.879894266806662 11.384273439720953 0.654607492849079 -0.41965905752950944 -0.5100173928091087
Ni 7.632100490919214 0.978859315770166 5.691327166084883 0.25489119699008356 -1.7783626368760985 1.5317226241512136
Ni 3.406045373713107 0.8887047149543755 6.593821034472072 0.785784404806937 -1.3908572812609983 0.41232755686510286
Ni 0.2790922810715282 0.41171894972922185 12.386576621434465 -1.623019154974366 1.8535046694265758 0.3143893523557166
Ni 1.6134554274474298 5.365396021406971 1.7624243866730387 2.4613635932662064 -1.0118607344478574 -1.4864357272889563
Ni 1.9255577708424707 4.34556111362382 9.040294388403483 1.9870721931037971 -0.4252360373966548 0.7566170392143614
Ni 8.343401361812507 7.28177024372448 9.868498328256056 -0.18767330438268967 -1.4743883092061187 0.4549867862965261
Ni 4.7888056364069564 8.503311283567955 8.321171826532554 -0.3264118307378895 -1.0380762165009605 -0.4918592338428432
Ni 9.047270565927565 5.444138495707355 11.689234559890512 -0.28966639568773983 -0.37519285679633446 -0.30358711953389
Ni 0.23654737183068214 6.524957329137196 2.9693113967266322 -1.0660400487037383 2.2723327464143575 0.689869915595799
Ni 2.0071493580888506 5.5830903795137665 6.710323936758678 1.59419117499908 -1.399216451858971 -0.870981507600571
Ni 4.044108367162846 5.19957580386387 5.39752645468502 0.49479466232208336 -1.9481765444798642 0.054844715754021674
Ni 3.607456452005561 7.236433388205161 11.679355790925003 -0.44655536769972126 0.9471170144125688 -2.3681505621466314
Ni 5.890444201332146 1.336104885649361 7.303902042443825 -0.25961019973230776 0.22999237686587487 0.6004983697095012
Ni 6.172865979765485 8.241091467803486 6.040497483154677 0.2008725766817831 -1.6449702053241604 0.7406129504766212
Ni 7.229757796707095 7.235354597866385 0.7770997052144152 -0.5514743744023147 -0.6555037794111033 -0.4380624997373617
Ni 3.9538956776365066 7.180834193822104 6.208186681908631 0.06087369555692097 1.9213141728713816 1.3358464722427577
Ni 0.24307082622968923 3.8943409186779387 7.666311975303774 -0.27474139894679134 -0.06468612732447568 -0.7953676776199979
Ni 3.1161550467805506 2.4669722144542 11.150566882449048 0.16245978123153956 0.5458115196895826 -0.27145707176856476
P 8.653124834204094 8.413209239204567 6.578787122956056 -0.47769836896142887 -0.053746597593836466 -0.6073932970571216
P 2.3230597391754677 7.484758015588991 7.804190601029559 1.1557157560940161 -0.32568986497020036 1.2604547855753196
P 2.5792493935590897 2.5922040980546446 7.6664198543376525 -0.52929886674654 1.075828752659386 0.6707985007866447
P 2.0966151927652694 0.7036801852950174 4.993094410979171 0.3802299049996097 1.0250281250677509 -3.4499597007591687
P 7.944820603140735 7.816481434547406 12.33128723350767 0.4662590167762357 0.9549097709841103 -1.7850251364979386
P 5.737228311935254 0.9653882671808383 2.2852080289298087 0.3345084917030949 0.2473763766702772 0.06310824131439453
P 5.017389322634215 8.212840069529905 13.207101786978214 -0.7650646557610824 -0.7420278285462769 -0.03943403762590628
P 5.908424040311741 5.97202656814828 6.849038855507771 -0.8966745414913009 1.2363010711472515 0.1417711425339365
Ni 3.965172263827299 1.3347587028334527 9.098727943044144 -1.8116509666155833 0.30068562961637896 -0.03255196579409233
Ni 5.523443416252739 6.087595440850972 12.340612776658421 -0.24750030384265118 3.2491226053010105 1.240988706430908
Ni 5.421419355581342 3.6197749468141454 3.2286323092217777 -0.05483288867947976 0.4870381583051161 0.3641579391384116
Ni 7.484545945693334 4.444450228011595 2.522936537874996 0.4828359472983104 -2.4597080599406542 1.0706929740947173
Ni 6.750276983057389 4.598200902362752 10.912460335863777 2.960525788528366 -1.1833286327152783 1.1229138790726467
Ni 0.5638643471745595 4.426193776124621 3.7891487181740344 -0.06032373659072191 -0.5731616295677613 0.4078929181325168
Ni 6.085391758022191 8.005739985775701 10.684218727598642 -0.7054659702618431 -1.2373647365250753 0.09277851468531763
Ni 8.064013104930085 7.044961933717837 4.870329914512542 0.013314714831035133 -0.5320399198267869 0.7000095751329621
Ni 6.0871989623503975 0.8337546388606331 12.737474847132349 -0.13356289569153126 0.31024062029466565 -0.19411288936044635
Ni 7.186947339075167 8.588222225702877 8.233493833280825 0.6800303037975578 0.1272292401640196 0.2121931439009249
Ni 6.95244413663001 2.7317368689665518 0.930761863435211 0.039795534730383074 -0.33515692392037116 -0.27321056412456174
Ni 2.4520166765952744 0.1211970233248184 13.110760277467394 1.993378594937799 -1.4813739964953325 -0.5866781759969574
Ni 0.926173777344828 0.9085120432087176 1.026528940141709 -3.202881829165916 0.6660825833682141 1.9633797345828639
Ni 3.9046954618441365 1.8829317218154604 3.2406834115532295 -1.1754412595474013 -0.8601751610136863 0.6041225967256499
Ni 4.974339133815891 4.0100296569738285 13.070612680090493 0.33579815704879584 0.20333106552460464 0.2758755125512346
Ni 2.0630159449490404 3.154493595743196 5.306017372666101 0.4795485347962902 0.21134210875453927 0.9743884485340122
Ni 4.332486543535067 3.0705323579236077 6.366376071380188 0.387622597919255 0.7270519239627349 0.3044579521746176
Ni 3.7011913458858525 8.340902625215856 4.211367893867339 -1.3283151968627187 1.6071557055795482 0.2809367291242258
Ni 0.07866041247119368 9.0296779850183 4.316885575558926 -0.21667663359357522 0.3519428851294584 -1.1675081207432538
Ni 7.609953017468451 1.4447307743768558 3.420194123925512 0.03884036990596537 1.0823364718709167 -1.232969178560541
Ni 5.407653253224144 5.785626350296226 1.2478082015281287 0.13091363099414227 -1.2245027929607428 0.33803810212290814
Ni 6.930158356725558 8.323789506679379 2.951539017427571 -0.5832850911550084 0.9714687037840559 1.1038463209182343
Ni 5.4641468293410576 0.6621891712312831 4.7238145117753785 -0.11441511911848683 1.422858516757943 -0.956474544368069
Ni 7.6601121580064 0.34329874708917624 0.6155282619286465 1.1766435073856187 0.28908635481455375 1.5082888186083057
P 8.919272553253338 5.0863304795831565 9.469476833018527 -0.3225340929500381 0.4507609211406366 0.149650031061381
P 0.02687847620995847 5.0843849688012615 5.847437348535977 -0.6750472487606697 0.09194110638568681 -1.281124398109529
P 2.8437374351640634 1.3082499658763567 1.4907149040994399 0.8648584254219687 -0.27245543112609205 0.30338991592141945
P 9.125109438063847 3.276599753490265 1.8552833396799653 0.8391090843720066 -1.2727899101019047 -0.10470611936083903
P 7.985325953211177 1.9679533091133328 12.425658337074934 -0.255831706526482 0.8623904234974502 -0.28344921113343446
P 8.35112808235861 2.0431551381992716 7.904093962744389 -0.20637422322630264 -1.0418925049232572 0.5276572173780589
P 5.931816271845707 0.8516385853656708 9.555130019788248 0.23099330732656345 -0.10248288645727513 0.23473786197066024
P 6.811408435588014 6.217492862155867 2.9215255949339904 -0.5247287308773544 2.139881081509134 1.608800954492455
