# total energy = -340870.3128484173 ev
CRYSTAL
PRIMVEC
9.24628715087265 0.00000000000000 0.00000000000000
0.00000000000000 9.24628715087265 0.00000000000000
0.00000000000000 0.00000000000000 13.53287587432910
PRIMCOORD
 96 1
Ni 7.008685472247366 5.877735136030394 11.708116338317296 -1.400206583686382 -1.418477614081428 -1.0536522165623465
Ni 2.222918326852155 6.552935990813233 7.968305810672049 -0.9849402559079296 -1.2948476612328925 0.03044906051847659
Ni 0.8157666067924604 2.247763099759713 7.191465147111269 -0.7301112796143491 -2.1937001842121187 -0.08041330825174538
Ni 5.563241179608825 2.9237221500685733 6.074055073434613 -0.9520689591012056 1.0961080717337122 1.0343123785831543
Ni 2.6360054405172257 5.609148994080735 11.056413072440293 0.7679095814090452 -2.110666664728707 -0.4083875983807483
Ni 8.855474094184546 6.726470303403126 7.925392868527924 0.9589682573242001 1.0637846770106583 -1.0734031739370287
Ni 7.103145539245359 8.667497081452636 4.345920352805033 0.1536234138868322 1.3515363721741884 -0.14801943743649346
Ni 5.02251832153887 8.327196738285627 5.445601595974451 -0.24279441372654964 -1.6400383152401818 0.845504446375389
Ni 1.9386227434548073 6.638584346392952 1.3037884034030907 1.1480212156632357 -0.286331674887552 -0.9510788272737942
Ni 0.18565064694719197 8.957451392434436 3.370728342607512 -0.27286372230810424 0.19167831177702474 0.1918570034467341
Ni 8.012009310346356 9.144337343311829 8.600291369729044 0.3704237175424653 -0.33745703280845757 1.2802021434055757
Ni 5.439359427686437 5.622833498696734 5.126131287941847 1.1133066950001858 -1.4250159294205782 0.9921288032365686
Ni 0.25927143252387796 4.811924891042952 2.6809571889233967 2.3392251373615327 0.732314457913255 -1.2198840632418086
Ni 8.21708270756136 3.255673096162442 1.4419140602990896 -0.48054123772686275 -0.43447375394483884 -1.8819444128245073
Ni 3.257688786707231 1.1012882478331065 6.434354210543473 0.23747428706521678 0.3407912393880131 1.6802873925682158
Ni 0.08818276281974981 8.882214355907157 12.113723205878083 0.3225916856608509 0.9482202747790767 -0.7902529821012519
Ni 0.3695435747541805 2.4084635661286566 3.207007114307456 0.29514078853874975 -0.7447979350922463 -0.3629796025595942
Ni 4.079471027758588 5.209968295917328 2.2322210161049627 -1.1890943315544618 -0.24282809517796242 0.39522123620211935
Ni 4.702763227869664 0.3216413361973573 2.8691857006590618 0.6258029099125609 -1.038548785262005 -0.31904459173954086
Ni 1.4595448801651598 3.1642827964161455 10.604212315919415 1.0006101012347024 1.0772901676962607 0.2464620923861239
Ni 1.6342812100524036 9.036248249419254 8.130483833688043 -0.1568591472153105 0.03214470305334464 0.118834331232105
Ni 5.199769641463647 3.407709791703555 3.8170419882574382 -1.0633334484058525 -0.08996624204750313 1.0999552133939443
Ni 5.552589457096913 5.230041984783091 0.5104237005184942 2.1512525565708693 0.4103475503205965 -0.5059810179562061
Ni 0.7981311637829388 7.576527689802942 10.033544433086373 0.6015232114295899 -0.7851236312944865 -0.6476421172748394
P 8.062947104893336 5.570305342802489 -0.030254775374327976 0.10801975711510428 -1.3114886122236833 0.5214983968655147
P 5.565145914710782 5.694843581094968 9.866657276150832 -0.5873345786340336 -0.37665735715700294 -0.5807996057289934
P 5.726317941711763 0.2995695247319198 0.6963193740686077 -3.041899146700535 -0.06256136767198903 -0.8183785366928744
P 5.836598405600278 2.4721334977406557 11.367831713838022 -0.08453350106770603 -0.9115609716848301 -1.0310946429768049
P 8.570891875893215 0.9081166711192575 1.769234465912086 -0.2708101822131852 0.5397858823207929 -0.25506834599789624
P 0.8159016025812399 1.2938329262949524 5.019911793260999 0.4870548704756644 -0.6106459996664645 1.3148199905897613
P 3.4186204102487414 7.042970704082582 3.335799569203868 1.22965991168165 0.3371071056682065 -0.6856065123337548
P -0.12484983816110093 1.8522531774966773 11.963995308176573 1.4235478295154838 0.5508084586835417 0.37619687258081663
Ni 8.145775342967731 5.4691047326524265 9.779410237565635 -0.019650684351391966 0.27928530956373193 -0.44273856505679227
Ni 2.6991575800626735 8.737158606977586 4.654646475456698 0.3453850294062826 0.23639699484063803 -1.2336890874457012
Ni 2.7751713046897786 3.1785035856724995 12.562230070781329 0.07692997768883525 -0.26364040393762334 0.20302433291746322
Ni 4.08286441505188 2.4612136329085654 1.7734701899422132 -0.3197290194010752 -0.6643864266127139 0.03023360207356083
Ni 1.3394448595859765 6.842076628547597 3.501360808597562 -0.9365526086331614 -0.5217413661142563 1.738318476470019
Ni 7.583148031225277 2.171582941968359 5.099187607907376 1.1580202358574765 0.023977336751203865 1.0312332254371983
Ni 7.055924752033266 8.224350289066884 1.539296878587027 1.4580515197193082 -0.1328910664354873 1.0485909999893555
Ni 7.006327669087177 2.0487460204659764 2.963415535113178 -0.7219696243438212 -1.9643115023685138 -0.6428102431038348
Ni 3.3641135489573193 0.9590988478433704 13.22521935445177 1.0289536853744021 -1.016274547244837 0.5356921718673936
Ni 7.169829760387639 0.2884360706723775 10.989506940412348 0.15519127259458435 1.4415558360571303 -0.06910816765157131
Ni 6.257914714608752 3.869848457387454 8.574389746228507 0.6127357923159577 -1.5901087773995906 1.2954210172378595
Ni 8.338375499150994 0.18878976135065895 6.436844235606371 1.5104043222894117 1.5050913947169304 -2.026458151100587
Ni 3.865299284231325 1.4945883075263968 10.513664352909954 -0.20647115381548312 0.19484745353362573 0.05878827378280198
Ni 2.304045248136454 4.350507435737463 3.8499402770572484 0.486840183361697 0.29386526426043585 -0.17671320582676017
Ni 6.721874898812483 5.680243694075603 7.407964181051942 0.03124867360163651 0.9128899749088988 -0.34456459038751625
Ni 7.44978883522762 4.60148864742438 3.1929601552448723 -2.1737229697592433 1.0118517355867929 2.4782215453638092
Ni 0.44045057512492375 4.013480278134011 13.23658673956995 0.5354836554010132 -0.7008554680730251 0.049949849555565584
Ni 4.829354141854544 4.213458971265629 12.153956574077805 -0.21777886551881848 0.7632121759333759 -0.9550110724486649
Ni 5.619199707943971 7.974580340964222 9.864640660977354 3.067556442257324 -0.8059508524524829 1.1881805614909409
Ni 8.677399854725428 4.234078191058652 7.5452817124726455 0.21643829233052403 0.2656893160468521 -0.29759722049904236
Ni 4.060220258427165 4.022791289045031 9.87178619149576 -0.042499306814791325 -0.4938446397039882 -0.07366287690178927
Ni 5.709572916130972 6.843556034452029 3.2628167774234687 -0.3233779290075721 0.7735804065415774 -1.0811365380255444
Ni 4.456469883642417 -0.16448404696952884 8.421562493157213 -1.9963024534528133 2.4961351924194366 -0.3660947511498082
Ni 0.6414269426133425 5.993341461174865 11.928227896550856 -1.9773431387414913 0.3169332018234928 0.44247785519623795
P 7.948015758692761 7.7302564558472495 10.256024890024404 -0.24299675954534283 -1.111745521160653 0.9101550924762389
P 6.98751147524018 7.977261764166005 7.113718668318597 -1.6979842956273465 -1.4745693148686734 -0.4802748714393535
P 2.164694458225847 3.1499695442907636 2.0269811857257083 -1.4532309584022134 -0.19032591151418835 -0.08823023319300288
P 5.89466508734924 3.653790471332039 1.9416296359555656 0.9824370298701014 0.9438985074752712 -2.1938292535908155
P 4.003078205368473 2.3471236988161377 8.369745376725787 0.5697628882988575 -0.3629009268028589 -0.44737477827722305
P 3.2289235881529277 8.09630770803828 6.887529525703894 -0.9630385707388318 1.5557056173293724 -0.9957378607440657
P 5.449271447246132 1.0181363897171163 4.80038182647362 0.36454257617133995 1.7934462706820986 -0.7679882571657806
P 1.6055437503588088 8.669485033136716 0.4840560641580617 1.0321418532943967 0.10201366013034044 0.008193848664702017
Ni 5.654529770199193 2.413900382827445 13.596209048477533 -1.9430268819581247 -0.7340036726902197 0.6285485909784982
Ni 2.3331525593061566 7.841970094205684 12.103668793500084 0.26290378288191496 0.36782073270197946 0.8113293431555768
Ni 0.40553936966639553 1.2433851849538158 9.810549882596552 0.2522984965622429 -0.8221048365045261 -0.08117461189780213
Ni -0.1646883899100785 7.381578976746394 0.26591673892084916 -0.7244623088586878 -0.2499508222656728 1.1361776860610884
Ni 7.520384235729742 1.1338444240175167 13.229251660170037 1.5135984037466772 -1.0924010551957704 0.9772678269643362
Ni 4.257859640972399 4.642930505322286 7.513127749768502 -0.10647503833580373 -0.6215593041448586 -0.5348645337597756
Ni 0.4119359509456841 3.756063650762815 5.163671212766813 -2.15980378857499 0.428371754812159 -0.08295741482983778
Ni 1.2584104011707047 1.5343288486342057 0.34765668902679686 -2.2840004125602733 1.7192545178600327 0.0695190299367448
Ni 4.94656007463318 9.017977586499516 11.917551209064307 -0.3218815469677037 0.6823612659235797 0.5285977269144574
Ni 6.047848322466288 0.9054944241536517 6.923135127308814 0.380942357685602 -1.5596512322406815 -0.5724756592443302
Ni 4.39510227746919 6.744676242314544 12.395586091191328 0.4549410206602552 -1.2554491048306122 -1.1177174224733717
Ni 0.836205523990881 8.062984090040946 5.769389919990616 -0.11344478478541753 -0.9197820740430418 0.7382300520667415
Ni 6.219893982864845 1.3555333987966762 9.114445947012777 -1.4446259903420218 1.8239423823884264 1.7690786404710115
Ni 3.546773946720178 7.2788804681180945 9.889257050598413 -1.174774829607996 0.6841816069617701 -0.09998480262576974
Ni 2.315612353051733 0.6808937936288316 2.3254356082571626 -0.2431741656634715 -0.31470456960329024 -0.3412190709540511
Ni 6.875899546037677 7.8403704865715165 12.561065963260278 0.394970553643894 1.0320271820934033 1.801851464026658
Ni 3.2327607972175487 1.8756185444998026 4.228684831908306 -0.16241195871273964 1.1441319079111587 -0.4650832513005796
Ni 4.63291677660666 7.398324002327186 0.9735776085043099 -0.07401383248330479 1.3848223879208281 1.4677888016117302
Ni 8.329101473387583 3.1561738028024764 10.53202840332741 -1.2846038720176973 0.5388376594749107 -1.2580526038917301
Ni 7.290595513623817 3.5796999743806963 12.616659263262768 1.2370250937974696 1.1631477868920292 -0.02636126360234815
Ni 7.843467992683921 6.617086729344172 5.478554437866986 0.47663033270823074 -0.17104829423149895 -0.033618973606025976
Ni 3.2934811633075864 6.299402803941171 5.486309298692281 -1.7295451011527634 0.5078334977839125 0.24831585776541107
Ni 4.798314356722176 6.922556309748706 7.699773297186425 0.7146694911379821 -0.42633595532905283 0.09739107375666453
Ni 2.0572156192688507 4.084334574669409 6.69574211813938 0.7898994554165751 1.4636051025476857 0.5599582435036098
P 2.61989840873272 5.206389982885982 13.229887804708943 0.20390622130178432 0.8264389451035058 -0.031041185576520736
P 7.24292165835349 4.343988803471059 5.6925227630823905 0.6243888031738536 -0.24091442309501734 -0.18920105388112576
P 2.200348140522662 9.207591192013206 10.485475198029691 0.5066135093338824 0.8968354925491974 -0.9442823731772512
P 7.9203970997143935 6.952449555305138 3.3329711300403324 0.9903161755078623 -0.6555814267265742 -1.2576836505880857
P 8.066109335014058 2.3193293603866185 8.466247948500587 0.711166105970414 -0.4325073742470874 -0.25064630567080054
P 3.8079445665738705 4.059249398302382 5.389020792530752 -0.45116766966075206 0.15612586859371175 0.41422348833623496
P 1.022694809160148 5.058282959278517 9.53706413321715 0.22768532599925304 0.2880296314152652 -0.16927654704305686
P 0.7914377766940734 5.884669851207421 5.96764602987226 0.25921810650021165 -0.5853324606023403 0.5578036590544522
