# total energy = -381167.563125832 ev
CRYSTAL
PRIMVEC
9.27369859042046 0.00000000000000 0.00000000000000
0.00000000000000 9.27369859042046 0.00000000000000
0.00000000000000 0.00000000000000 13.57299528689581
PRIMCOORD
 96 1
Ni 7.341903466649063 3.8090973797837404 0.20460653256766204 -0.07904959513499935 0.05675915916791515 0.02213565555677478
Ni 5.459055230737291 5.455113908967402 4.075250665740174 0.6375315112033988 -3.466988631216997 -0.07281646974109394
Ni 2.953487428881209 9.137217264476151 3.4926435543452308 -0.987116694733958 -0.138433079299639 -1.550250507752072
Ni 2.0991943431347355 1.3016099223832647 11.492730136539159 -1.8319930206070447 -0.5994154210579676 -3.1269144725006663
Ni 5.97882747205208 2.929820950865306 11.564123702763858 -2.421676301978913 -1.1526869965700213 2.233489805405231
Ni 2.8954433513335847 4.442379688071357 9.35206474205673 1.3220458189142392 0.589478878670546 2.2627188774736773
Ni 0.39934028594420706 0.31349737042617837 2.121282437703026 -0.35079051669257005 1.089529647185246 -0.025423068058794924
Ni 1.2573836552759599 3.589885699791609 10.943661354981408 -1.2049603520524408 -1.192017418738528 -1.426785105505859
Ni 1.8167824093501352 2.110026022728221 3.2929715566334705 0.050803970025744764 -0.5989675348872717 -1.5537659771044983
Ni 2.4636414119227363 6.706469660360001 3.901530185301025 -1.889718143232655 1.657019937399843 -1.4718735132040652
Ni 2.39075014342548 5.746920099111763 1.8956858164436732 -0.07199525939137924 -2.0886101991493 -1.2395697145961944
Ni 2.801602798417078 2.1116952884189977 9.17727222209617 0.8569435414502661 0.21186584246849316 -0.03983667238096365
Ni 9.16006765704323 0.22155699828767295 12.212750272229027 -0.21360056577141276 0.23781264424124202 -0.16377361494695666
Ni 3.2311141343522487 4.029598103837083 12.054542834276162 0.36094765973123 0.6180502625503356 -0.5415578866195512
Ni 0.8782999084893299 4.342270115116155 3.7927970003133042 1.2573730613262024 0.5646985864020727 -0.6141193029270456
Ni 7.150967292719034 4.844886014609071 11.475831603529528 1.228798077901987 0.7287740488601643 2.44884257798106
Ni 5.5489730092804725 3.2406660435828054 7.85277852183201 0.08810450624841601 1.100904207570775 0.5418332517681249
Ni 7.26384674820868 4.720887394879195 2.418110335467141 -0.6174774207660011 0.20930528083016858 -0.4752442509939815
Ni 4.694726292025409 5.197481296992556 1.6874356478209764 0.28711483291047973 0.014447028663265443 0.11092510368735736
Ni 4.550993242351239 3.4768300440346045 5.675819581752779 1.453337916293723 1.6964470330472137 -0.7789113318361875
Ni 2.720838160078324 2.2806620711187455 5.292314135625246 -0.5760793174351885 -1.1320137844913858 1.3253378594019498
Ni 8.96004325879675 2.799905711631455 2.267056628369086 -0.25484800245697403 0.7597494141957561 -0.10713529762762194
Ni 7.4997974535999905 0.994910172797861 3.2865652858602004 -0.049449512880379354 -0.06410505801002508 -0.79968635960001
Ni 3.4403009465014374 1.9384626045094868 13.012050327162685 -0.6798873504617904 -1.749636986806632 1.5418926227056802
P 4.8015778436316925 3.2083935735611195 9.877869524104021 -0.9062976664033617 -0.08009834811448786 -0.469490636339656
Ni 0.322925939469583 7.2149187160723525 8.49327391264344 0.36920321487180285 -0.3807842348411829 -0.9400608788967358
P 1.5072727291852572 5.312234039535184 8.086505394375274 -1.60321600420551 1.807470095765016 -0.251133015499232
Ni 8.235294464352844 2.7153388569970422 11.94651537772771 -0.22049343623650414 -0.9435190126486654 -1.7506502585624948
P 9.302632220733857 1.7983184760704867 10.123200575307667 -0.28921876662735996 -0.7713371190333554 0.3054987347343061
P 6.307719181626535 2.537793903386358 1.6973983818854297 1.288118312928859 -0.5149140587797777 1.232221244650923
P 6.194246209446836 8.81657914637276 4.948225616675925 -0.88498399252725 2.0368076126557115 1.5339402006278227
Ni 6.549753433090899 3.159456267726511 4.379218383811673 -0.6923176058053431 -1.3570449606972435 -1.0376434998389161
Ni 0.08988810270867804 9.0100470399338 4.50586742651057 0.29343409026028816 -0.12848985204399807 0.12900381556593912
Ni 7.788376396742183 2.3915198603828935 7.571939407276053 -0.3920549226589957 -0.6076812606111857 -0.18927792986564823
Ni 7.212915597243421 3.2815630530068387 9.69103696166382 0.6446616944902769 -0.9241820028829503 0.6408945141383607
Ni 5.783495565136341 5.667796905368939 10.042387713737847 -0.8268462078442534 -0.47961512636816755 0.1492358263420978
Ni 4.663872697840882 1.1906593961362955 4.156132152677283 1.145956619824723 -0.7004592610758711 3.414791123277835
Ni 0.5065572212628054 3.0938726734755444 8.387350658235194 1.1324128197020176 0.759193541692286 0.9306246731845004
Ni 7.982205964536223 9.033092180164802 9.66000902195159 1.564216997234493 0.5505994279965292 0.5047782558973565
Ni 7.4142290395511115 1.329347553945007 5.601398153038976 -0.15653261711382718 -0.7697211806964873 -0.0016699315032551888
Ni 0.5981841423993761 1.1981618180465092 6.426080320170725 0.3976735543973538 -0.08656184435164448 -0.21302849531802667
Ni 1.403166192270473 7.466514150465556 6.02366765798566 -2.0157852447677738 -0.10042086172192383 -0.19149447790099278
Ni 5.343161823305966 8.114485996832009 12.977723732971514 -0.7253817353491636 -0.23725291508303012 0.7910723926787537
Ni 8.302092913078765 6.501279812170395 6.134341828023823 1.8691153793806392 1.530741491184867 3.059919751647672
Ni 1.600362112540914 5.773192486344935 10.965609416705638 0.5843896370730967 1.8972802718506294 -0.1884747172380625
Ni 5.598401821124031 1.1480560262283568 0.08982782366984444 -0.15031260434604435 -0.48135679164962264 -0.2210948172659289
Ni 2.7273761173672004 3.9355813506532167 7.098730405035657 0.4800421866032571 -0.8995809165048184 -0.2967083901361858
Ni 2.5192465068221703 3.2671888206695936 1.0951931639109378 -0.12708782949014885 0.035100700357875034 1.0048871313435017
Ni 7.0638594447553285 6.1962122334826395 0.24893573772589825 -0.12491524731886229 0.47743354533581644 0.3073902953300642
Ni 4.315877169805316 0.5585251716960022 11.452946898278807 1.0313890342887722 -0.7342188740248193 -0.5716737321683251
Ni 6.7948758260832 7.667957424549195 11.283990316647168 0.7865721908155551 -1.8683890427375756 -0.05687100215543109
Ni 2.142335587543035 8.63117009661886 12.765998709602517 0.4012255334146703 1.3063458916804793 0.2570604367272605
Ni 1.8443438406445176 7.993065465224555 1.5170128944909402 0.2945707749678927 -0.6015748906031317 0.25624771101797805
Ni 4.440617685397759 2.880429233814875 2.817183538900824 -0.3060857175860277 1.4812989202830231 -0.5153010098055513
Ni 3.289751728589928 9.073061819760627 9.357249666766247 1.8158457214232213 -0.7793247652245223 0.05346711868020469
Ni 0.8653074571961165 2.597145572391758 12.956333020514037 1.008815005642998 -0.10603049459921739 2.482877298968266
P 9.193480791953613 2.2386985863922715 4.559481458388839 -0.2257947938447595 -0.4221887659298987 -1.2332532854598632
Ni 4.996677908090381 1.3901273724858492 6.760993442039742 -0.15288730705175604 -0.48930381441084125 -0.9380345924953265
P 0.22564855396973268 6.562727336987548 4.426656132634067 0.7217780771583053 0.14156056918502716 -0.31413687002527835
Ni 4.688893135805971 7.3720800808589955 4.235412071921074 -0.47782846678139 3.7189731960832466 -0.5102436498873019
P 3.32833958714172 4.417730198037551 3.9174243767867054 -0.6491531546027272 0.2275536855173952 -0.31936469408312096
P 2.959626617143955 0.8928874358870633 7.209567792163585 -1.0860208627010393 0.620680501084331 1.261393752449821
P 6.638233788400355 4.491521015268171 6.257313849353871 -1.13226986636625 -0.12439228493585673 0.8057292233599801
Ni 7.155808163222288 7.058591984131099 8.540359260931114 1.3742027034234527 -0.36805778841345 -1.0965865540320276
Ni 7.9397602474990805 1.3700683631016806 0.6613751224935628 0.06777119400770264 -0.43183348810851435 -0.6564682002069018
Ni 7.679447536720709 4.862450399155356 8.234002638182147 -1.2612870516686276 -0.6444755466213997 -4.566459448775356
Ni 7.984199809666874 8.947931808840336 7.229628656287409 0.6666004035448971 -0.10843036228996165 -0.15426747522873432
Ni 4.67329477529549 5.582080112147547 8.125825875091353 -0.32602128016769016 0.43186511267739813 -1.861441407775149
Ni 2.6148954309036854 6.539728565247955 13.074540215666744 0.4940564986044781 -1.8276373147415106 0.8546274917225798
Ni 3.234999813932446 8.703393658839806 5.77359867432969 1.367571314149864 0.06822782192914702 -0.6011133775856808
Ni 6.168910465740156 6.734717345327258 6.027020099914637 -1.8640791025083123 -0.7364472491347058 0.4213210186129647
Ni 2.8556870067982487 7.324376176895905 7.710750905271918 0.462798569031461 -0.7056914560090879 1.3869510042280566
Ni 0.6301348150906736 3.6158056864900607 6.013773549288494 -0.5828672868912994 0.6175003035841365 0.7736922495290933
Ni 8.716627226288354 5.383066547013816 9.914964317232394 2.040185785099325 1.138224027067156 2.448624805543299
Ni 0.03499337309765246 7.328094929907024 0.30262117708093883 0.5137213240232573 0.13926534539294727 -2.0247558236975
Ni 4.084350018494565 7.481361341415188 1.6380708244955633 0.34459518651513554 0.6973988769829924 -0.3024591765770339
Ni 5.048490060392438 5.464016659318212 12.630798389717702 0.3606735801342369 0.2954575484482202 0.29791603729104177
Ni 5.558172517976309 8.53970361046257 7.360322886176957 -0.78762582889105 -0.19374213628458892 0.7777777324523767
Ni 0.09466034784464349 5.075439427600202 12.692664158327377 -1.2287520551554 1.0359650836952288 -2.224718229860188
Ni 0.0758041371276623 6.173584409674331 2.331622897918507 -0.7112398966311428 0.1689911545921541 -0.4729384856789403
Ni 4.781880508480525 3.2945833253948984 0.3778874397082397 1.3666120355603883 2.047823761260557 -0.3806569652346992
Ni 6.806773980979125 0.6096649808726081 11.811274253570453 0.2418040247888223 0.5122282844174985 -0.2657199121744714
Ni 3.269535066334963 5.828370991123393 5.6352360233306795 1.5577725271607301 -0.9608065960845195 2.4613350540211156
Ni 6.089175207910714 1.1120091610058584 9.41599390853417 -1.2278369995402985 0.19773660215596267 -0.4449990789561949
Ni 7.449886409445762 7.5634613923065634 3.8765561158273467 0.9604049897707266 -1.040728309411827 -0.6798593254373323
Ni 1.1514780208944493 0.4278763829280377 8.577576466876813 -1.2344236516188805 0.2714539864447712 -0.3070133716066196
Ni 3.8912345254682443 6.9360586087297955 11.099899986788982 0.23639390951684447 0.9040340671801655 -0.8357756491233993
Ni 7.924792498471781 4.893656393874602 4.687691264508612 1.4946118353418454 0.050929696970331645 -1.4421477040048583
P 0.6824254902240874 4.381896627875541 0.8506253380759058 0.41663595443246954 -0.5404988492274175 3.325651748007001
Ni 5.380850133124396 0.25557848780536196 2.306595040994792 0.1567694157149816 -0.9452635061435979 -1.3056671204458998
P 5.542027009267184 7.779612751865605 9.469919536674718 -2.9354395349836997 1.5526861137767582 1.0537892563608433
Ni 7.655178268316471 8.293505468469546 1.4681636887900116 -1.3048374254557529 0.24980401227516336 0.5227194137568094
P 6.032049226493016 6.904750603329446 2.361551904384308 0.45371640422453474 -0.47992674407131536 -1.304825598381211
P 2.564223943490325 0.7620244246887823 1.2840511020559482 -0.15735408457385802 0.4385011299366771 0.3945573773658753
P 9.073812989321477 7.32089854004012 11.630943480995828 -0.14333000238062413 -0.7309492021346121 -0.0670847094636393
Ni 1.3237555138809045 8.30251022950146 10.422946905921158 0.18990142238226004 -0.45816801223798514 0.8650556290344391
