# total energy = -340890.9788710431 ev
CRYSTAL
PRIMVEC
9.11089151762539 0.00000000000000 0.00000000000000

0.00000000000000 9.11089151762539 0.00000000000000

0.00000000000000 0.00000000000000 13.33471067907437

PRIMCOORD
 96 1
Ni 6.310977963303985 1.9920417878381034 11.689154598566006 0.43998157113694547 -0.5244929607174644 -1.3857644401191231
Ni 4.732561544220854 0.5005341639388674 5.861311729470026 0.8098992955772696 -1.474728466154357 1.1489141597911503
Ni 2.889783493828789 1.3278213450152996 4.784480871218961 -1.446701899034444 1.8729887462931163 0.11708418131021771
Ni 3.642862462642633 4.500060700914655 5.260196966379033 0.0016210805431907565 -0.8747600008063966 -0.5659746249010188
Ni 5.094692153527311 4.724498405135232 2.5972682963181835 -0.16929505898581812 -0.29468236084509253 -0.16076953801331023
Ni 7.18463047184565 6.295125011881407 2.7343225279013494 0.5344472437166989 -0.3348589330639781 -1.2789507874969779
Ni 5.031435232994573 4.864122819245013 11.56135429960348 0.5158144591068601 -0.588746628490212 0.23011219027319077
Ni 5.315093732759266 7.748157340460211 12.274934819967722 1.7169042724603012 0.5074578596120486 1.0633419330462848
Ni 1.532971291671739 6.34850572589571 0.4852223994786457 2.584444358479491 1.1556188255048356 0.189433481606906
Ni 2.6508503610373366 1.6878837819235242 0.4051294623172967 -0.11521833174607253 -0.1888560118368812 0.14308009115334713
Ni 0.6638833398327832 -0.0514738043977833 4.743369794952236 0.04698228228680941 -0.061126949218307636 0.49882512363771503
Ni 8.603050523151824 2.367565407829153 1.5464135011710913 0.422525323333711 0.33688856189949723 0.12710531299164562
Ni 7.072420730626982 0.5724017881437197 4.948150750497978 -1.2858999651213014 0.317793235830943 -1.7474901156669582
Ni 0.9488720297743133 7.381298178401847 2.7608051565795155 -1.2449592610428817 -0.28971113288274625 0.0029169165364788478
Ni 7.6293786463819595 4.111544949470388 3.823781993029907 1.0530320664798445 -0.27249836854888554 0.3944162238023208
Ni 7.4532560004337585 3.7581061307714823 12.77489317555607 1.6175056813553046 0.4386574530088832 -0.5820329639154621
Ni 8.20913201297561 8.799681786141532 6.674009639791875 -0.15195553926610605 0.18102443160760437 1.6888982741656786
Ni 6.8152293710246985 1.010525433381549 0.5393848279941319 -0.3698516470890792 -1.1512096406935464 -0.02037830654603587
Ni 2.193392492688097 6.3333634240196615 9.19364311750837 -1.0521288379392848 0.9853300351471805 0.1740991652426808
Ni -0.06181284421062371 4.872413730621189 1.3135473111108433 -0.08759234249868786 -1.008293071701257 1.1593862629670677
Ni 6.596431308718246 1.9236098808639717 7.1709942003547456 -0.3534868325778106 -0.4177029622444032 -0.8201556831979553
Ni 3.1014295062118373 4.374949937158993 0.45375611308315134 0.7384773921908573 -0.21020182450250896 0.17017334782571336
Ni 5.96521962624257 5.515178023673778 4.798868791268695 0.09581267352595112 0.5764063617573041 0.8338357517882092
Ni 5.287751947001129 2.857348719653858 9.369741164049191 -0.19787518461635598 -0.07923394323166355 -0.04948653676590187
P 0.19483368407265456 5.452631752687569 12.453673202900648 -1.3763017520443266 0.4015978291524245 -0.5750663027896419
P 3.7088982051201334 6.353981371760636 12.754370892177128 -0.09695218644703303 -0.7361052924142548 0.293807671549623
P 2.233589746525119 8.38647551840118 1.4693918455755763 1.0769952621636611 0.9295455811877088 -1.534270844494364
P 6.398998287265786 7.609589789778603 5.636022156882777 -0.4652514014473278 0.28886138328794125 0.668779413474087
P 4.639657782349569 1.1737379459011323 12.686830941492806 -0.30751422250243815 -0.6495408769594491 0.9225413819557338
P 4.16315815050999 6.311324177185628 8.314325456556041 0.4583598165338171 -0.06332909907594901 0.07630571384127503
P 4.791682119957126 1.0660289851438187 3.709010269087086 0.19227095105570113 -1.01787685873495 -0.6525727218072375
P 0.3159320111579116 5.552459792191704 3.6531504814623896 -0.9050128861536672 -0.3787988289800379 0.5403890631224306
Ni 1.373968011081599 0.9572722718499554 2.6949188327246194 0.48767347789626975 0.9425913586280734 -0.7783878552325498
Ni 1.8347149113064427 6.639298053800563 4.973473562672641 0.46800685270527786 -0.46113429395516065 -0.5344523859230215
Ni 6.262316691149966 5.9171232293691265 9.421706956594573 -0.8917688766595674 -0.4766825261024049 -0.5119498339451312
Ni 8.802214614012497 2.496356971800172 10.204481054472561 -1.052579295213142 -1.688317461961544 -0.009825213620537917
Ni 2.3331717919554547 5.448203859359194 6.976186937867795 -0.004148217840418662 -0.8191400974492474 0.5730914384514582
Ni 0.5250196851734538 9.165556971904703 9.020091565175948 0.7267001970502711 0.29699815346246267 0.8241277804718259
Ni 1.4825333956513969 1.3815209402363793 11.39463044945271 0.729939272812859 -1.613466735399241 -0.09801379494232798
Ni 4.118086569655108 6.759306718247809 1.512930063370448 -0.6132875510543696 0.6190779324839016 0.49946172878044953
Ni 5.819026259273203 8.12502026151972 7.799619300698885 0.45584964851745363 -1.0978880464522704 0.09866402693181717
Ni 5.410074777920405 2.8617766129822337 4.894025676638142 0.08533954190876916 0.2957377986928003 0.9850698395072582
Ni 1.0211578439046232 7.579487403858947 7.161286545331321 -0.02769566614305553 0.09675549705519466 -0.03529404731560373
Ni 5.223702378897262 4.667382225555838 7.320462932862283 -0.186952109945949 -0.13750105440367286 0.17992348523394175
Ni 8.13924236334193 7.333393110252468 8.894571722386452 -0.5225463785140548 0.7876721087479532 0.3631834910402842
Ni 4.315519591107567 0.2645985144911097 10.592453796776146 1.1505848626253539 0.09359046906365172 -0.41146880840923333
Ni 8.272808034522967 7.196110195289585 4.743930114787 0.5412100163618292 -0.6246415426146081 -0.010094922342156809
Ni 7.234549047043528 5.8764066547096405 7.121308863982394 0.9757187373096614 1.1139731249395912 -1.0004463219633288
Ni 2.344214192601527 5.034551157929356 2.7408031051122004 0.4120419073038839 0.7171493201370424 -0.022853764669721933
Ni 2.2289614135810556 5.315640386256597 11.568248511293977 0.24948570970379613 -0.9267875588265975 -0.5964609664153341
Ni 1.011855623558386 3.5133966926915736 4.045378010153529 0.6399799727438914 -1.824647121764935 -0.8484686712100354
Ni 3.6856107661338626 2.717560309494878 2.789141851702794 -0.2168833502877426 0.05306396970451506 -0.40498268646425734
Ni 1.1463688274681285 3.59175036064225 8.202740722502655 -0.47421606683978323 -0.6233768169695716 -0.3021660708166473
Ni 4.094480249462061 2.6794585607309562 7.103307564315307 -1.166034878631837 -0.7527518998320004 -0.39902029823323537
Ni 4.255405928184479 6.794201433160727 6.186905841193251 0.025716430929497647 1.2828107846730166 -0.6603875898659659
Ni 0.6571932121146226 7.070908322617702 10.778233076754686 -0.839486008095451 1.0872187396638824 1.1339302847878086
P 9.401620173835171 5.796422137158595 8.15193565754994 0.038619769254727036 -1.8421514491972857 -0.34870406647718655
P 8.624943995719903 1.6872551304015941 8.011081273071166 0.28313296544459626 0.05959225774133608 0.5165292257856975
P 1.855524187771483 3.298069880093168 10.398873771390702 0.502749912613418 0.042008483221301844 -0.0716396758241734
P 4.00960318310991 6.139720533482024 3.9453276648938123 -0.5121228691878857 0.9905799706922102 -1.2822299724688822
P 6.72923166500302 3.877969020952773 10.59757502895697 1.2216357558255928 0.8422540577588914 -0.24438926901749525
P 6.510205830406013 7.9989801868185975 10.350296319439607 -0.5329647456339015 -0.5698575048951927 0.09370925402970312
P 2.5681234651080183 8.55638453626306 5.872913538861701 0.2353513271849431 -0.14944588547037488 0.4096561806805267
P 6.993511298287355 4.106461071945216 1.5745625119269528 0.007959621166708872 0.6672552635200767 0.6410580362994186
Ni 5.417153940710834 3.072247320346021 0.46207800149084294 -1.6682767412605848 -0.003323407946278147 0.1456833331041491
Ni 1.6234879999380147 1.1177059624247765 7.0373401535249736 -0.12849525136063678 0.8205732303513481 -0.141854189166046
Ni 6.841514293354664 0.9140866455608618 9.357927070882722 0.08496596061943432 -0.8077220854202929 -0.056058276446148615
Ni 3.023212501635493 1.6773607020999157 9.139077076494022 -1.1610855050463615 0.7774404037176159 0.6192149722823982
Ni 6.28905715806104 2.436370861359794 2.7948616694631934 0.5784426754610426 -1.6043015239602048 -0.8733584924731796
Ni 4.1654632060904 6.66042621147238 10.515392964346654 -0.6035641531190187 1.4553405485460484 -0.6506976162717116
Ni 8.347444458691799 7.048176648020385 0.5203658417328484 -2.0898517848658846 -0.9791154216960364 0.3890544452697751
Ni 7.538297062835109 3.8690767907295336 8.52137320193738 0.5015844315504071 -0.15446236484835976 -0.11636864330043185
Ni 3.100882852714507 8.673441271824721 12.59363472000045 -1.122214796123093 -0.9690706358655246 0.13312375127158363
Ni 9.221771173213503 4.718649212713797 10.29111652290779 -0.4154283072776136 1.431416433630283 -0.07823558387413622
Ni 8.77387063017592 2.2307107047725125 5.82905552877089 -0.013639445160305543 -0.6763561973800803 -0.13678217395977732
Ni 3.7776945477591513 2.942772439503339 11.831755540968752 -1.1091692757930445 -0.2775937807939219 -1.0475052231243442
Ni 0.8871420946774513 3.276422401598888 12.68484385603001 0.0442330016764464 0.6472425678435756 0.5021235918833288
Ni 3.1533524775665938 8.551491987461954 8.187352426552808 0.5260448785856167 -0.8982064047547951 -0.1281167849752955
Ni 5.590607095413738 8.015188463014441 3.2576166102015636 -0.018702461505509724 0.5891158389041725 0.9546619166393623
Ni 3.0466366039960966 8.375305565272399 3.564501505978659 1.1596991662217964 -0.7248857695493517 -0.05500643814286656
Ni 3.4149899522804974 4.319719712145389 9.128810012725 0.4594088266236217 -0.5577285828421427 0.5507398102291354
Ni 7.332372690390785 6.174223480055189 11.541672040432102 0.5842978486902388 0.1380137323740333 0.4604940892680004
Ni 0.5910754716125227 -0.52510441646554 -0.07116244119329629 1.4618508388607405 1.8852539368137144 -0.6545100480392663
Ni 4.360299623430541 0.23632286234169994 1.4280812407823256 0.5432504438306257 -0.01196488567136004 0.28581385471086906
Ni 6.006610406882096 5.654346893202451 0.3287911235934447 0.027620075710113722 0.6938985771392178 0.3060368666259633
Ni 8.16055273884619 9.193345191352327 11.158392318403099 0.7636451497057364 -0.3160870517731137 0.5868460690333893
Ni 0.11927159331501158 4.508060063758921 5.959922553853439 -0.44919409087414897 1.8812571569494956 0.8323884778187213
Ni 8.123808512933971 8.847860181039577 2.4770555478986016 -0.5711744239344033 0.06869036338786234 -0.17663632984223773
P 8.557805835356119 1.5761842506356993 3.65625729550555 -0.3125468998303391 0.36698332440234865 0.1478073214256874
P 1.7359710679053464 3.0593736304838925 1.7834643237534027 -0.4900139531039884 0.6310824131439454 0.008337830441734027
P 4.88471343431112 0.8639184319325357 8.262253066578682 -0.31757494917254986 1.5051158201969626 -0.0074389727765484795
P 8.765333724725947 1.386067275155843 12.809363322919392 -0.46093503346016096 0.7062110759579837 -0.365302594265816
P 6.365597758578904 7.881085249227696 1.1283073959163354 -0.056602321875076717 -0.12213742746340901 0.5638511508001127
P 2.0898654311853604 3.1880740855386893 6.082441268942593 -0.7175630106356933 -0.1441041615424873 0.2611240652736728
P 7.009209364552356 3.8181286847783493 6.2230560369717045 0.2005077371431966 0.8124457161482073 -1.2762930381591568
P 2.2723748121607033 8.544932145493991 10.326933260052872 -0.10560420569507618 0.08102343103191852 0.1991622788588957
