# total energy = -340889.44835124706 ev
CRYSTAL
PRIMVEC
9.14879766281176 0.00000000000000 0.00000000000000
0.00000000000000 9.14879766281176 0.00000000000000
0.00000000000000 0.00000000000000 13.39019015416463
PRIMCOORD
 96 1
Ni 6.626959019795686 1.819924571324833 11.674116470748983 0.564287467006583 -0.1830437760304783 0.18372254726505777
Ni 4.684888851126337 0.4539816366886056 6.005044798193835 0.027269634349230455 -0.31710623706624735 -0.29561567129263927
Ni 2.5662926319167707 1.5678660474360786 4.655246746759905 1.128906863431288 -0.8762509835296264 0.7856620202964598
Ni 3.3556966366258982 4.150599068719046 4.815956355933243 0.09421730401437323 1.5816009970388953 -0.33819005431974014
Ni 5.186489979551756 4.807208275626088 2.7517643767932523 0.3983404985573914 0.026511416026967244 -0.6074922845288312
Ni 7.272919026245158 6.491154267568737 2.9638783352887113 0.7110324086060271 -1.223709607635486 -1.2447384032813273
Ni 5.267109184390336 4.757841363539278 11.664596231920678 -1.4995905195033594 -1.4425020020204833 0.01274264437764902
Ni 5.322276434183418 8.019177301265367 12.318492820326284 1.0074764893372326 0.27267294645353685 0.9500578422084476
Ni 1.9072315472411476 6.583026493509388 0.2733550950443656 -0.8227180446084927 -1.0567115722139606 -0.3168362712343124
Ni 3.1461342777933403 1.4486206189446982 0.5460212856261409 -2.010237318366351 0.08375162859635898 -1.307527056472774
Ni 0.7370490953117996 8.960487942054815 4.793982773751979 0.27650106195037544 0.7387663841861858 0.27879037220518443
Ni 8.877206437101844 2.8024322479050343 1.4890958146013435 -0.611255094005373 -0.948015357857122 0.8862978262426672
Ni 6.903042286297481 0.6889465470593843 4.767765064343681 -0.5564384032758094 -0.15141586471255214 1.6226610003039992
Ni 0.6581416305124052 7.6314787035072555 2.7130530693223625 0.27817253611552734 -1.1079773123674725 -0.2449405135352749
Ni 7.754996620498366 4.114168556500796 3.9930220078590004 -0.13813740243609113 -0.0056060333328677645 -0.9910718227269643
Ni 7.4234990866671025 4.029935576592852 12.862844450382402 0.944431754270922 -0.2614626795600142 -0.03571827933721591
Ni 8.16411255354099 8.671779334804356 7.147897961801145 0.4997988004048941 0.7851652831656994 0.6905083205107463
Ni 7.069129558725939 0.7205547280395033 0.477150051842171 -0.6288584089094331 -0.25865092114283195 0.04937237978554078
Ni 1.6829945169876772 7.027822737363457 9.121210359544854 0.8507484683831478 -0.7377988780665938 -0.19311812954734484
Ni -0.019132880512814494 5.353830637257437 1.3647416975055755 -0.4456914770375292 -0.32147017046189796 0.6214045237345491
Ni 6.523495267240137 2.0836569610072813 6.912363996216912 -0.4489050988788204 -0.5469559177066708 1.019153925675161
Ni 3.2569994076428532 4.295067732314826 0.5017923382961785 1.190430790977698 0.4020333740279463 -0.8471625508041023
Ni 5.873537236220256 5.689865974720104 4.955160801364688 0.5651806682448137 0.5113739068370032 0.4058743450405914
Ni 5.241181491867352 2.7720948349176613 9.939189718815127 -0.6284534601615307 -0.033155403706046124 -1.146917955296728
P 0.09268921357025653 5.491218131476791 12.448177026929423 0.22288919016219033 0.853800110725278 0.17075750246395754
P 3.9338457549383357 6.135586247136215 12.624244722707678 -0.7994598454115006 0.7286436939298871 0.1634689392223443
P 2.421485462808165 8.406272078378977 1.4577099494039727 -0.7431645132538813 0.9404352315170191 -0.8371712439193452
P 6.410205706014975 7.944212053370756 5.967552110569121 -1.3954163613865902 -0.0004059771891670427 0.22820983104415538
P 4.65881477784105 1.1265371978890704 12.44733350778665 0.34108177404523843 -0.10819664901260076 -0.162266691384127
P 4.131679355191336 5.96976428983943 8.24281325551363 -0.0867096827834184 1.449609302489226 0.6674820348189021
P 4.947065945209312 1.2488840687817535 3.808651778218852 -0.4881879556388431 -0.7543184729881719 0.5577761482506265
P 0.019108178759175802 5.8252773286483635 3.870997174643384 0.5926135676447859 -0.24860690664326862 -1.009846532231306
Ni 1.3390729159559156 0.890360071830467 2.7177262751588973 0.02512893385714382 0.7536417586361215 -1.5300056414601069
Ni 1.8832342510210394 6.349604070421381 4.829158985813242 1.2599433931565398 0.36410523152360524 -1.063138044565595
Ni 6.073228042394979 5.252599191327016 9.153332702952564 -0.35096072372184717 0.9164182997771314 1.423836050179864
Ni 8.749086674895821 2.3785135602744827 10.061831180991947 0.11828077272148019 -0.6956124745065311 0.6754773943195528
Ni 2.4173227598801628 5.210167067854326 7.024466958387652 -0.1470529597581661 0.28128665626447685 -0.10496065857380635
Ni 0.5195922389922679 9.359402965724422 9.386965548386382 0.30290629141678155 -0.5456179156215377 0.07283266769101004
Ni 1.6021557410056424 1.3625944746985381 11.659977003990242 -1.0033979483924849 -0.3162546876992295 -0.2145179353793596
Ni 3.9500574243634334 6.844252112637391 1.519545757799737 0.44579792070840646 0.6495642739982168 0.629368258666316
Ni 6.0862742278352675 7.908915992060357 8.252052626254265 -1.52800043810462 -0.776662902121643 0.11076106730566732
Ni 5.404780291336652 3.0817541887727904 4.935503694746875 0.5600376905912935 -0.5090876819059877 -0.23682816884078567
Ni 1.0039433094600003 7.198896104507874 6.778998313441843 -0.47755413007408076 1.0645974027199407 0.8128894885538451
Ni 5.151999012434026 4.341113630856879 7.178038675639172 -0.6586117289124658 -0.16636374427163605 -0.7215037404509962
Ni 8.351425036503436 7.107975353522195 9.509137677244066 -0.5797215421734662 0.5444778884798236 -0.3837430603591907
Ni 4.795159309128992 0.21990690432858423 10.251596456602739 0.3389307891405066 -0.7252315829245446 1.1565225682660276
Ni 8.268719905802033 7.415676864681517 5.2006431695069635 -0.061661738675855095 -1.1137039304386045 -1.6695988025061181
Ni 7.297739714253223 6.193827492937666 7.1744642403996775 0.23999653926643827 -0.8254835231687719 -0.06477020239784974
Ni 2.454329646349983 5.237393889642752 2.584440186923331 -0.5390875707021877 -0.38960954644229673 0.6277713464928414
Ni 2.3338857253672436 5.21937075828415 11.198845581942882 -0.41493054170558863 -0.4297922893087695 0.5893842620742108
Ni 1.018599683285625 3.2030306503411308 3.7153898499160833 -0.08546963972873023 0.7005027127192968 0.06026614387990911
Ni 3.835349799503457 2.882850179195447 2.845027219975785 -0.14961377850680685 -0.6164664630029836 -0.7277602628836692
Ni 1.2532205988649907 3.2118134960793325 8.043808609162202 -1.6797942549818814 0.526505620272119 0.6198073544507584
Ni 3.5118757612059475 2.421311635652929 6.90420967287685 1.688193791899486 -0.03990917749011191 0.9333747251258119
Ni 4.227503861714178 7.043878877228608 6.165539410622541 0.119192228792156 -0.5371715846263975 -0.7729108912783785
Ni 0.756482056387336 7.280622313861373 11.34220083686539 0.3390071509043968 0.29070229315142193 0.6803848589234991
P 0.21121554656682182 5.641999465446904 8.254423079723816 -0.019788495480836887 -0.3175757205034982 -1.6116206833294373
P 8.485637897940336 1.5443078935028804 7.923765405516269 1.0672484671895426 0.8143840708215008 -0.07549453079388935
P 1.7178605848088102 3.2493693104077903 10.22473558672007 0.24608259755951814 -0.17295836677001827 1.2902986084096295
P 4.060117460020278 6.34287970415307 3.92540141471296 -1.1435400399634306 -0.6330043127570066 -0.5664412801247922
P 6.982334915477686 3.711612311368892 10.623549058735831 1.0367790949560918 1.2077183744135522 -0.4648263980947672
P 6.59030893643398 7.935301124465539 10.531960445522143 -0.9449315767254757 -0.8668595150123973 -0.3789574660450893
P 2.5544632365631297 8.53669733759128 5.884640217040965 0.29871950702894356 0.839873987562489 0.3964746489932462
P 7.03295521284172 4.24464870849896 1.6202264461119933 -0.4024799746470617 -0.0609135476559209 0.6612064862228354
Ni 5.523065096075418 2.7491405016289643 0.44342300932771084 -0.6305409388181786 0.3590625268933752 0.19435560149887174
Ni 1.4388862982515243 1.0550393443015196 7.127411059237025 -0.303075212894478 -1.3485996581433677 -0.7593850888778018
Ni 7.1228147033006985 0.49937522595864414 9.283137673684605 -0.2465104291255561 1.7629200770687834 0.1912563937482577
Ni 3.021985093764797 1.5804730905894562 9.416397230407004 -1.4118837629139942 -0.3423040764881137 -0.5225903443781129
Ni 6.700716626401295 2.0997771424559395 2.6712622765645158 -0.3668385712943682 1.135195010432845 -0.14371283964133957
Ni 3.8991352166771494 6.9797732521373765 10.428253334949265 0.6206362781099569 -0.31706535652598294 -0.34191301169728217
Ni 8.217257919054756 7.286450097960575 -0.08694376864984936 -1.0618861744363648 -0.6260515355882572 0.6243126985202796
Ni 7.802067184376543 3.8416441722825017 8.278511863920365 0.5004927411481251 -0.1461042226916516 -0.8364623907777787
Ni 2.981684640143151 8.445364890711621 12.587193922009167 -0.15221367802349914 0.3249247046694017 -0.5032708181138946
Ni -0.07660288267288087 4.753257815919653 10.201235985091794 0.037243457732490694 0.2479934414289858 1.1731138969658055
Ni 8.648376710431103 2.6323103557155894 5.82020706499408 1.000750997687941 -0.6000332571476247 0.29333561700921096
Ni 3.5092775026750624 2.913032062622872 11.63089297628009 -0.041585793861586444 0.09045346609656679 0.39681172061769077
Ni 0.9253917328889559 3.581305986525963 13.052596917676494 0.7692285573307849 -0.3843439271679832 -1.2725932207100663
Ni 3.668631260037566 8.372659395835068 7.998429657968395 -1.068788815093469 0.5675108590398872 1.22081840213062
Ni 5.63067325396368 7.968438069531963 3.644207629847249 -0.6927557217840262 0.8933580755235583 0.3984114610046428
Ni 3.1820067133553094 8.390956991122989 3.4130925335250493 0.02341323671761774 0.14279084204770248 1.6305008080633918
Ni 3.3268321800592036 4.059907037674466 8.912228949362689 0.7245926637889649 -0.06346433910223265 1.2395841127738976
Ni 7.073987570274881 6.066457932138449 11.625872116133086 1.1626212249645977 0.853172504443608 -1.245163663744204
Ni 0.47379244310683755 8.857051635892198 13.887099920371526 1.0035501576996328 1.550674225553052 -0.23752030981180383
Ni 4.7278516048623755 0.5985481924191755 1.7669557776055953 1.8631640468932107 -1.564944105208505 0.6597964932491863
Ni 5.861927412010068 6.07565247377063 0.46296941549403237 1.3325642019470598 -0.8256989816136875 -0.09260110856718891
Ni 8.138276348994445 9.01813451600941 11.48906465568436 1.1753697828795178 0.2943110935486028 0.40225474601013306
Ni 0.02201383689089764 5.075304641784705 5.977983569642765 0.2574669281370598 -0.8233101696665369 0.32955808967635497
Ni 7.869502971810175 9.09117851639879 2.6959274350126328 0.6643517167200366 -1.6511007437019305 -0.6251166824788137
P 8.598296192128064 1.5051693371820176 3.810955445465601 1.4804003197281534 2.364048624163116 0.1762568350156319
P 2.0494130114259375 2.919234947425477 1.5910628238623403 -1.7754372356991872 0.8764967809918452 1.3115947987842445
P 4.908229299210699 1.210568904248847 8.353429538067228 0.7024158705816096 -0.039161500690809974 -1.6478256724950848
P 8.71270190666579 1.5756059302428693 12.859349609682411 1.0501028086481914 0.8338383228913704 -0.5846189794750836
P 6.494630810673442 8.010824449016432 1.445712216173683 -1.0621895646093964 -0.9857892341717861 -0.5534710931173694
P 1.882154692899052 3.2391226570465546 5.974622301388374 -2.3714590576945738 0.1898998797203633 -1.087553754405798
P 7.000486130003304 4.214119170761063 6.124619583400399 0.6618981129732213 -0.696460167218807 -0.20004133902973936
P 2.462636754610699 8.681824714617424 10.273663356519972 -0.13490192621792896 0.9212779418622778 0.5429707078066779
