# total energy = -381165.7901749191 ev
CRYSTAL
PRIMVEC
9.31842460777507 0.00000000000000 0.00000000000000
0.00000000000000 9.31842460777507 0.00000000000000
0.00000000000000 0.00000000000000 13.63845633427179
PRIMCOORD
 96 1
Ni 4.773744923431673 1.5290229762111953 12.162202442898087 -0.30999353728086615 -0.2536015316443826 -0.1360506951103915
Ni 8.00428422880706 2.8297072824013094 1.124494334301541 -0.3376714628121088 0.2076777725290746 -0.6519176047217418
Ni 5.73390604897453 6.1944318982690065 13.2201781368928 0.2719062434908414 -0.0006013810294247707 -0.7395310302663521
Ni 1.5061089707597652 0.568446248942785 4.3998617836481335 0.08771344145758443 -0.766123693153216 -1.8788817147387835
Ni 6.643356309260502 4.153212409799456 5.461274112539345 0.9040353527317463 1.2091504788743888 -0.769650732469868
Ni 3.7708681407154296 2.0026132564299925 6.741393588054079 -0.5447915630655004 0.37132514631081215 -0.3045805937954109
Ni 2.0199641625505955 3.3059439951325937 10.820409907733193 2.1420459503709366 2.611861831260495 1.7454715425750325
Ni 6.9743094681108415 2.353163061666813 3.2804711503574704 -0.22763493237729182 -0.2651380715290724 0.20322565029499193
Ni 3.3853090152341916 4.266133075948471 1.191627058772357 -3.1338284260116804 0.011794678642082912 -1.0140253461993438
Ni -0.001324148098677589 8.016547275238162 2.573590389423452 1.6370316672033745 0.8559526382919066 0.31386973240682076
Ni 4.260253150190092 7.715226705788208 10.774966747755565 -1.2237548590511245 -0.8493690715371178 -0.44557500606432293
Ni 2.8772126096853228 8.045462345964387 5.7776318233463435 -2.2947257693975773 -0.5300830532107322 0.1891079799466872
Ni 6.804742100400524 3.2726865386640487 8.268654450222629 -1.4167367201309213 -1.6870231686301527 1.6362001724410142
Ni 8.1424857801898 1.2312527264346833 9.187191106082285 -1.0027646856838601 -0.05569343690756215 1.6969723094230644
Ni 1.8691081909144838 1.6743065300921403 2.2682256238100487 1.4787689547723177 0.07731821426618941 0.03219072579993166
Ni 4.9746128784991885 3.4619810107016034 11.249966905576965 0.09864062989304948 1.4592072305903063 -2.1932091035083134
Ni 3.077875559417365 0.35528915585601434 10.509358107745243 0.2624594962556448 -0.30887973539139707 0.16819488394310386
Ni 2.0511715656643976 4.311169020782453 3.4470519630669 1.2499217472544797 0.4641239727111039 1.2046839584626026
Ni 8.951735023550507 6.750956155111523 7.0081614400522625 -0.156330271295034 -0.2866126964630806 0.12754702851475452
Ni 8.110588813674857 1.176348570224913 12.359727879154937 -0.941214789995521 3.0546914133691976 0.06713356042370373
Ni 0.2983330826066325 1.1636568762741821 0.44029741373776077 0.6461727318181646 -0.29493921405090495 0.9288159021105359
Ni 5.509658167238597 5.30007748541342 9.709380696602583 -0.9222217938327859 0.1958463271117853 -0.3136355049088276
Ni 3.432702521426128 5.247223382558393 11.566597646217119 -0.15880058721239745 1.0368361734462725 0.5878459710528133
Ni 2.9339245402170038 4.310842875930561 5.577159901313267 1.44898940951704 -0.14138084907405327 0.7833066326904059
P 6.254377322046579 0.8591112001602423 14.017605095293677 -0.5824816214171066 0.7946176868278508 -0.6102559633168975
Ni 4.459732660030987 6.659533093914298 7.739332537712692 -0.5102505918658373 0.35927104335975546 0.7157102736976706
P 8.816645825897242 4.910092108370804 0.4271444577822125 0.3287435641948596 -0.7119515779861868 -0.7738213189077898
Ni 6.1757484574678205 2.122494785560796 6.188081392081472 0.642752393282706 -0.4577653774829277 0.4915141917985986
P 3.4343425641099232 4.487324514500968 9.541150522785017 0.17737577911142355 0.1903058569095303 -0.9191634666224363
P 4.640482136948997 8.413801023265778 3.779434568210956 0.4970114674677441 -0.10913664432836688 0.34962220741608174
P 9.141616556321466 1.631329957037242 2.9186022550751627 -0.9314996195902862 -0.10265772147224254 -0.114875346584357
Ni 5.996639023233606 9.564244373826206 10.35548855767766 0.1289109987418167 1.0204330494979006 1.0073456201863233
Ni 8.864141834756916 5.876272936037135 2.9682051596780528 0.004878411138223856 0.3214578291667238 -0.5127638452059943
Ni 8.885564892313987 8.88613331619871 11.09500709986163 0.09516167020551353 -0.5442436609818304 -1.6613332200632165
Ni 2.654632725906204 8.393887550451748 2.654070824918517 -1.166882571344113 -0.2496811135440539 -0.48207747186573097
Ni -0.042170529349510405 2.0318451535837685 7.430408134001506 0.07640495842330067 0.148952233663408 0.08340144434579184
Ni 1.2317745581977089 6.771521917629339 4.291531373328876 -0.6021086516194146 -0.45287333949794906 0.6734781045013368
Ni 8.41486332364051 2.164343829270585 5.14667572024769 -0.09224783899282822 -1.5465548040680397 0.6016782489502154
Ni 6.267432434546559 6.677778568771515 3.3944205705535926 -0.8299425873813899 1.2473452447765552 0.7066047118519766
Ni 6.881525916960013 8.858233953725518 4.172590073213954 -0.07382048552557609 0.7157503829069867 0.3143934661207747
Ni 4.547251301429861 8.876824210283306 12.893605569324574 -0.4652416312553149 -2.675786397828598 0.4120375364285097
Ni 7.730462329583689 6.615894912731278 1.0125418524414254 -1.0449737149517422 0.9171832029676141 1.3654087592809065
Ni 1.89906692516676 3.8469158017520786 7.9654860372261025 0.06042349539337981 0.07736680811593771 0.07153117527076712
Ni 1.5267492806722978 5.82043693739339 13.155218468978013 -0.15052214925368915 0.22882586736159946 0.2235409648135763
Ni 4.625488792186349 9.207423269008736 5.994892750512338 2.726994545271297 -0.7148481828076915 1.0422588871237406
Ni 6.973508083617625 5.3837569359843185 7.548244268989737 -0.11503192676687932 1.0834034796828502 -0.09165468549351957
Ni 7.755482298935901 9.279547873398354 1.7158406110592461 -0.6505636617970086 1.5870201111719378 -0.20524550893849813
Ni 0.8797701469214544 3.809278685843853 1.7139042424814475 -1.106722871135081 -0.5962833031868893 -1.6893119646643295
Ni 1.2929593324124664 1.8997378517192214 9.456823441722506 -0.2210202552742516 -3.151661340428043 -2.2150318558103597
Ni -0.20077849819385504 8.16789712336428 13.349743372597466 1.546217218222963 0.9716167993261459 2.020408088251765
Ni 3.3855512942670245 -0.15014031664681948 8.051871558225264 -0.07661167511746805 0.3160747104779395 0.24221591551526028
Ni 0.6778529372732826 4.572979471031894 5.785515210337767 -2.4230585270384206 0.214384752235605 0.3780740349988715
Ni 3.756377990867128 2.241379243287247 9.40340184682519 0.4411233980508726 0.35713959883904944 -1.0945854644415989
Ni 7.804925858482582 5.496724194255032 10.041899350741998 1.258512060026652 0.290230495721326 -0.5998831047230057
Ni 5.727802481031998 3.2064698153058293 -0.20783534094634298 -0.8048144248551945 -0.4574020806062381 3.126708012916815
Ni 0.6907375226078463 8.874746201655544 8.461188938403112 0.873027334386006 1.1701854104651008 -0.7684613401474572
P 3.2786876039388435 3.237947452725484 12.900519840184664 -0.3323796182855501 -0.42068724168370775 -0.7140033183088929
Ni 1.5860517331704271 6.045961443263869 1.9016509242361708 0.7630229427407053 1.484482203107011 -0.08910672226068525
P 8.307338025184206 6.344756719717753 4.951795784660893 -0.6234413516589199 -0.2470724722766132 0.6513514478056266
Ni 8.145057665307569 6.37070853150394 12.444750114673193 0.4696616146998815 -0.8072058079055067 -1.9861702501148182
P 3.3195582130929595 2.569872338111894 3.9963544410461154 -1.1384489985937682 -0.16414051136807215 0.6168552138009699
P 2.014531521160525 7.943313778352117 0.5021745468809613 -0.5658118740709094 0.2610831847334084 -0.1742670582791128
P -0.0496839748946458 7.3359016061902595 9.68630455056764 1.9660503394364917 -2.444969725289215 1.406638455354655
Ni 5.649285437545317 1.1658373875696821 8.214114644404543 -0.35668682757234704 -0.6809147632850402 -0.41883064809094317
Ni 3.808607759291392 6.646067970743368 0.7785291938398742 -1.2875598693222277 0.9515444540563031 -0.1611166369400838
Ni 1.8663778925829386 6.129370659528917 6.797269655922484 1.8013920078917363 1.036119606995222 0.6936648638618569
Ni 7.843355040459685 0.30136436604435113 6.8374078369234965 -0.2961661444794706 0.21314342362933617 -0.35666445897484383
Ni 9.133649303510985 8.378186005439279 5.224919733901217 -0.3507856315965636 0.5281066462106517 -0.04079440830854265
Ni 2.678310842153492 0.9008856964753136 -0.09338365767830815 0.376323627966668 -0.0773477819525442 0.9464027619543637
Ni 5.044594245290664 1.3760703590986412 4.469526324012058 -0.5641126319916155 0.5350349978993688 -2.454517002658018
Ni 4.411668227286589 0.4790611271486609 1.997365119841849 -0.1658394963370499 0.8571566859023366 -0.10224685918706906
Ni 6.500952148500538 7.591468712132071 6.731055728091567 -0.17734364032190747 0.13420361459932373 -1.3252488992325693
Ni 2.474479628145937 7.11949983774839 8.993170329219613 -0.7705876424618406 -0.44476202324472436 0.8830700633339889
Ni 9.036159948068587 3.845555311798476 3.812916598706089 -0.6523734613122377 -1.025484238768563 -0.40453428607292913
Ni 7.023305743289214 4.365225200377306 12.110785241076247 1.609196904379293 0.32303442962522433 -0.9718371428670681
Ni 4.666275535521408 4.1978103886894695 7.425266227450836 -0.1941529985697624 -0.17601566553910333 0.655501208307942
Ni 0.96880862333014 5.881966493308719 10.799925215507134 0.27900583065010015 -0.6981694366004298 0.05685660397772788
Ni 3.367594690564339 6.544571692834879 3.985511522484389 2.052772877735716 -0.917095271239498 -0.7179872426573054
Ni 5.676197047038498 8.151328964888217 1.184612148929398 1.1067041020820036 -1.3557128721493812 0.42718416226196104
Ni 0.7506931966521916 3.267393673639074 12.912494947303669 -0.11891634942295005 0.6841252998025379 0.3263904905816508
Ni 9.107855904938575 3.4125094958819036 10.264206204687962 -1.49809285191191 0.5990508386296973 -0.10118627913303863
Ni 6.989433270814247 8.562168975603178 12.494216970280723 -1.4106594035885898 -0.36914639349193845 1.774926614611356
Ni 1.426184845197783 2.38346657761966 5.765220613968239 1.8846078185892834 1.218103060081986 -0.6281819516676987
Ni 4.605333040339484 2.802572030723976 2.255500383531695 1.3704470930357624 -1.4491403332726074 -0.16201652304653388
Ni 1.397605237747789 1.2855698219110496 11.757071830776084 -1.8989437755959815 -0.06581252761943504 -0.22226544053526234
Ni 4.810599291695359 4.313144526742478 3.9428909132392693 0.02420667915319057 0.6883213401617565 -0.09176344315724196
Ni 7.744822021491235 8.061340941039312 8.648349491266865 -2.086073291660059 0.6286354942653496 0.08636284096696094
Ni 6.417514976962473 7.307732009411214 10.78177199305088 1.062138142546171 -1.4105940975682933 -0.5989238261335299
P 5.172908948448937 5.166059906559225 1.503694567013338 2.5642462862650612 0.34679296549740274 0.5169128343773614
Ni 1.6435464113466463 8.287303412853758 11.916941514276031 1.5697764936001415 -1.324492480682519 -0.017462675561137668
P 8.669358810783251 3.954366552813664 7.940745620604083 2.1222057757165578 2.3487346195138645 0.11909272709981426
Ni 4.871933160699553 5.908906058074918 5.6724249488657685 0.59802856801277 0.15521261275082301 -0.25617726279135883
P 5.544648850634334 8.29559681051613 8.63767057697352 -0.9791969256662492 -0.11934058144456221 0.18979806403517635
P 7.051820121768831 2.654502267965447 10.77492574668847 -0.14883396291798884 -0.9716311975038493 -0.4948813084986186
P 1.2006323840542852 0.39994118160719855 6.487131993362264 0.45088999051933315 -1.3773474197000215 0.8335740134863902
Ni 6.98710366472931 4.759580918435262 2.6260027989647745 -1.0212298343675832 -2.802860857582308 -1.019373754995451
