# total energy = -340860.308766816 ev
CRYSTAL
PRIMVEC
9.41056187909659 0.00000000000000 0.00000000000000

0.00000000000000 9.41056187909659 0.00000000000000

0.00000000000000 0.00000000000000 13.77330854422997

PRIMCOORD
 96 1
Ni 7.818087901641134 0.03613091185558714 10.536292042634548 -0.3110615735340643 1.1423426772212197 0.7164720915643596
Ni 6.5710566848803715 2.8087422172218384 1.1293916629439367 0.04842132872618112 -0.6648304561286679 -0.3685262434094363
Ni 8.714980336974897 5.679895281822501 13.046683683389446 0.11708598108243062 0.5697736869321348 1.2236427589532928
Ni 1.29927865714786 7.875351171589889 6.518672791343848 -2.1016876011585484 -1.6075195166768703 -0.19933711387386313
Ni 2.31749205816434 6.509031670544752 3.498640871213643 -0.49174944773785634 -0.5960071667073671 0.8976554173473315
Ni 4.948534632585467 5.249107983803744 4.238570778234626 -0.6119469778660751 -0.1979309775549559 -1.2146788648917854
Ni 6.6186741287490145 3.5056413883072963 4.66543293083093 -1.02874928267308 0.9783841999569666 0.008970064709094228
Ni 4.781083091834747 2.7477147224613336 8.609130335268471 -0.6438307139485492 0.5063970224477021 0.5073894682679585
Ni -0.16035221275575937 0.6121598831795333 6.491071612911688 0.24401543061784425 -0.8618744030929802 -0.29118231811163403
Ni 0.8969263133570671 8.30938511350878 9.83445891387709 -1.7375448315287882 1.1589386339066878 -0.8152147942529121
Ni 1.040149421106956 4.527148486034058 2.8945712482107644 0.8210992780581472 -0.9707295116251864 1.6385630162462361
Ni 4.289155372311132 3.207731226143332 3.0114240790419347 -0.2401528623386445 -1.5114088522945262 -0.15738493781179347
Ni 4.573768410327587 8.541091971796082 9.74631017934792 0.6221277750538189 0.7458631431319671 -0.6342875503448044
Ni 1.3893377357689907 3.3973164087871464 7.098832058342488 0.16913873591361192 -1.7324684454471455 -1.0339390544041356
Ni 5.313015110545238 3.840365669130179 12.800100608646106 -1.0620044451817838 -0.9410486967313018 2.3455374527328057
Ni 6.290716042025253 8.257523506164887 1.1349043701807453 0.19810761234213622 0.15815678298081148 0.7124413731384117
Ni 6.558992344358711 7.3690158815993 8.818967047399504 1.4139830686451842 0.6406173492175742 0.2138201379813866
Ni 6.170430238165767 2.3653824083318358 6.758328751377364 -0.12665459860747222 0.08260645924832224 -1.2897653616139788
Ni 4.174139483188096 7.316570819409586 2.5376493336729884 1.8770675443481801 -0.8637672492403188 -0.2281293555152071
Ni 4.502266960028386 6.23872268681295 13.912557024161977 0.29194465019895527 -1.6513681384307042 -0.808026504034589
Ni 1.9438174611018681 2.210239882715539 4.65467571737515 0.14446180199222217 1.1782339918011902 -0.9114481002560496
Ni 8.82717305748912 2.7896105446161163 4.057575556611227 0.6377222870579662 -1.0079475154363804 0.26898495607898837
Ni 9.214784696917096 6.914749231317251 2.6165841869191935 -1.7169500380965719 -0.22103516767258705 -0.689336154579516
Ni 2.2827576737139124 0.4113337841916296 5.953017082544884 -1.1061819110299467 -0.6653202512808929 -2.002836140806273
P 6.623219430209203 5.42204588221759 6.0405051956195885 -0.14655108042108309 0.22142520402215413 0.2692351244165815
P 3.5136874188424128 5.022181691027365 2.1689651576546947 -1.2400695370507482 1.3768044027123578 0.9625976265466712
P 7.672064210631303 0.9105377502763569 1.2813336564140425 -0.4757435592279033 -1.2283831018517555 0.416256973826496
P 9.032982049071578 7.7086148335534 8.056627769017966 -0.6481421968397095 0.13240564215863646 0.1794987389916973
P 7.270637866144201 1.4587406307356405 4.760372326920495 2.6029701851978206 -0.44030424458368683 2.2328778828528453
P 6.109863860944701 1.6657071214477122 10.84284486496629 0.4856153098156604 -1.313559635820099 0.23030605145155175
P 0.6746610719538385 4.139489793795933 5.046429886208459 0.9737742119887809 0.4377855919268912 1.4515363443086098
P -0.11827194358520059 0.1780459514833926 12.763600802758969 -0.5512404040146377 0.03892110254522974 -1.1314085468072193
Ni 7.338375091631651 2.473152164692252 8.639858643462995 -0.760498890767271 0.4427745605010504 1.9892522314742516
Ni 1.5285481798695533 5.21506998094349 8.437928685549045 0.3646873292793203 3.2939521029108754 -0.9638045023705787
Ni 6.5731646507749515 5.045821022845158 8.367518860445252 -0.5198030114409629 -1.4210345761753267 -0.327810510857629
Ni 8.442930399267658 2.788622435603032 6.475603472104002 0.5737064463276378 0.9512667749148843 -0.06602515785087339
Ni 3.2338173040887637 8.378740955665283 7.552580186656718 1.2416271113458552 0.1863018779564598 0.8350783659460586
Ni 3.2029224289463207 3.634443750803369 0.6106786607161094 -0.2399325187977223 -0.13685339351734496 -1.0744442136070333
Ni 5.90422425947877 1.352053089008602 3.30115928597098 -0.6691560800872153 -0.22072792084481338 -1.9253695738876777
Ni -0.02242536931600358 0.18658885969366035 3.5926570911681264 3.105966152383773 1.1201198612672774 -0.5785995127538809
Ni 5.817863531735185 3.6674654129644497 10.546414984209546 0.40882648569037977 1.4700549719380875 -0.8456363439675629
Ni 4.3545587784152975 0.13023841426175542 1.8523722066938104 -0.9797335148960095 1.5679921480062091 -1.2303582233002552
Ni 7.540438679526418 7.429695185564719 6.254583248057259 -0.3228084296573473 1.2990655559689819 0.5167354282592327
Ni 7.393285721073062 0.15001094614167781 8.187901345102953 0.9102646214709098 -0.07181811038356664 -0.7598090637890978
Ni 1.93368228579623 1.7981513714491533 1.7633144118726054 0.8581321624417286 3.336606190135976 -2.934612411096714
Ni 9.259626024987075 2.1945524758125687 1.8894084146166235 -1.7588705895897578 0.6553587691928068 -0.47687253062602386
Ni 5.914444129842673 0.0963538035625804 5.640210941744621 0.4617976385707724 -0.36061058810678537 1.516527404468014
Ni 7.030894387883812 5.77855561413848 10.628559780163972 -0.0019470964240418077 0.12087964379690795 0.5992197601073939
Ni 4.6308905218459016 4.814518818725119 6.497475500372678 -0.2835188880291053 -0.30966057942147956 1.9547572830211757
Ni 7.541445609663561 3.806233560649632 12.639848147847859 0.673782266005317 -0.9327337491077033 -0.23376032854873935
Ni 4.157078134228837 9.244296219441221 4.214136253925351 -1.171283528625286 -0.32006197726046165 0.4290726375339256
Ni 4.17830836216711 -0.5218834205755241 12.43421231060674 -0.7859954923764786 1.8120973101243825 1.5660327102869933
Ni 5.6891364537353475 7.407175710628421 4.52325063124149 -0.13732724782996994 0.19322997253486077 1.9562670347974827
Ni 7.559918542927226 8.698408337241165 4.100176229862011 -1.124013797005045 -0.9617149668314018 -0.41529383858227836
Ni 7.6874881217974504 4.252887066249916 2.64093589828261 0.6826831680393727 1.4529293680013944 -0.374820046837948
Ni 1.648344634503513 8.80617809360158 1.5060559955631414 -0.22237368397835253 -0.9575644349981379 0.3856096812542843
P 3.665442142128134 7.079612867509892 5.1708855101031626 -0.5993231184544776 0.21343832916193564 0.5041555347116929
P 6.267293153134136 5.779299048538801 12.661307052443446 0.9646611939439194 0.29083239097138297 -0.04473436679289715
P 2.483739046975301 0.6369303645532575 3.1272022236893506 0.8222994690138354 -2.567262704493882 3.952145256228684
P 3.442684728330769 7.891612622776651 0.5859458215905028 -1.2516333306289478 2.7334865807535436 -0.4818591852073379
P 9.37059537243748 4.448259744541796 1.1865787073402532 -2.3855124504638465 0.9347263540576999 -0.7977590606703099
P 4.196179019460895 3.254275865940627 5.1688340075807595 -0.4805749191782755 -1.4892580272290998 0.07309260622061606
P 8.971879269814838 3.9673800248406708 8.412957759204094 0.7448629840022268 -1.503658518925146 0.3632688516652389
P 2.7774803301602504 8.480883195932133 10.852347650503555 0.23403697924889375 1.6684819152928556 0.5163052827003495
Ni 2.223329974498401 6.562549536805815 10.515783604803927 0.6469710593497439 -2.3078869893698832 0.3745976464144968
Ni 1.081170060993007 7.664469887073597 13.061448855213538 2.1202016008023357 0.4424804262993992 -1.094997869388669
Ni 3.684827899908649 4.821576740247152 11.556150409893762 -1.0734911056651448 0.12059245157379231 -0.7005114544700451
Ni 8.429002767464182 5.616439862058416 4.8872248209640805 0.7851035766898286 0.10804932480145907 -2.0251887974698604
Ni 2.2870488899993076 5.507757281181149 5.970246880564469 -0.2838778140304208 0.03840996723676611 -0.07903416851603162
Ni 4.124075293191814 1.4300478271080723 6.736979950357521 -0.4794523755380582 0.13052488019615585 -0.2305698466358997
Ni 8.6452104300891 8.129615147061607 0.4086828288679543 -1.5881058880369487 0.6287198264490398 1.2315877248319822
Ni 2.1407711138146834 1.0995488886363787 10.05166409607712 -0.5351622675058526 -1.823558002465814 -0.13305098905211923
Ni 9.471260154465718 1.5939045331635713 8.913424622713164 0.7757403903073737 -0.0817669940661624 -0.6906415036545008
Ni 4.5881101068603565 6.402664087926713 8.259219289442582 -1.3903525737104379 0.3341760480643406 0.44932598846632293
Ni 1.0158795816331947 4.641910289982301 11.716595787213612 0.6045684260138168 0.8004330079580473 -1.5336213838358232
Ni 6.470702451399103 8.16031240040143 12.517362154585904 1.1366559112490875 -0.6148253278551347 0.09364471934035484
Ni 8.59240776654227 7.503069337707765 11.656268438268093 -0.14258309691227058 0.9594125439504704 -0.13136923047432214
Ni 8.700713924938361 3.7594348356775438 10.433046884497855 -0.8988589507371294 -0.4030250485172543 0.6779497671194454
Ni 8.589622240181574 5.561322200252359 7.216649471781669 1.3026579013059307 1.0569378292921539 0.058383067924583316
Ni 3.728351749294514 2.3312408892892584 10.909177093542754 1.746812372873643 0.6050620778207838 1.4232148716560975
Ni 6.947742661792243 1.0263817688579784 12.98685321211908 0.20445180939260918 0.40672152353223495 -0.5806903338446386
Ni 9.30330985392744 6.148315417396732 9.976310902739296 -0.4738885082970355 -0.3321209653075248 -1.1203615449644382
Ni 1.8170101377560233 3.4773155965988733 9.662788618168598 0.41677273712065 -1.8732186029157352 1.3302152420989093
Ni 1.9932040906320345 0.9427406935408824 13.323734393759095 -0.32468070697939566 -0.1955174830174568 -0.7742697192991181
Ni 5.57761188312521 4.90246052088964 1.804055558066384 1.1978070288371114 0.9920177315800013 -0.09027297465464452
Ni 1.5812755589201484 6.149783465073314 1.2036231172878593 0.5502880674036975 -0.05368771933144303 0.1262535065143116
Ni 4.8172102394655205 7.014755274003432 11.477987222733965 -0.10892478542787692 -2.206740819446161 -1.083642849387166
Ni 0.5812028983276972 3.2323398458501513 13.416166816124035 -0.8000044050610609 -1.397087064220794 1.5992336225189943
P 1.6307280623845206 2.514445710877155 11.850238001761394 1.7896284395979052 -0.40181688714176605 -2.744784522264866
P 5.376479940871352 9.107579574278443 7.736467273991746 -0.5054781101778584 -0.21131871171577155 -0.021981903587729886
P 4.662453546892428 1.9086784224841773 0.48044212856675994 -0.2162187201205502 0.27831548945129486 -0.07576989594246306
P 2.1925668472243705 5.811520812927386 12.999221513794287 1.2958231377722844 -0.8930847672575134 -1.510732909273424
P 6.717814399728494 6.846673225596742 2.858278474688272 1.1506108307672829 -0.9506800491734788 -2.045808787713057
P 2.1564302890315656 1.1714832247889306 7.853664531393191 -0.8143213359043654 0.6161077941119841 0.9010906682811254
P 3.7136995042147753 4.657945887680358 9.119789778511558 -0.052915617052108864 -0.29241927584252864 0.7360510421375517
P 0.6218922864303142 7.4412137134886756 4.416466160725549 -0.7960780734234613 1.1370063526099707 1.5395174376052843
