# total energy = -340890.9757455435 ev
CRYSTAL
PRIMVEC
9.07753505983114 0.00000000000000 0.00000000000000

0.00000000000000 9.07753505983114 0.00000000000000

0.00000000000000 0.00000000000000 13.28589013136740

PRIMCOORD
 96 1
Ni 6.464611892947502 2.0319244977978976 11.402030201162445 0.7248939970794677 0.4871572003814836 1.2065927454495413
Ni 4.688229081156674 0.6188936234450515 6.200936735637021 -0.2722535995279311 -0.07544002340687007 -0.8003671877171183
Ni 2.6019936918316446 1.5543735398404557 4.596824658617121 -0.3420544223711528 -0.32552325748534905 1.3304381567429926
Ni 3.5334032415613685 3.99238156303803 4.524178054271059 -0.13828395531628443 0.46752837040696255 0.13419024486288503
Ni 5.0696126339932 4.431834106865542 2.615766127837823 -0.3350396816162165 0.22530371314095393 0.2734548189248839
Ni 7.032175687338681 5.991073205432145 2.64607057047098 0.44876651641842713 1.4168171956598696 0.03408280061632195
Ni 4.888307028699634 4.815822912228942 11.541120730232223 -0.0183497061517813 -0.0017156971395260777 0.024743268382950934
Ni 5.37481751363974 7.764986927720151 12.553253167141317 1.6129959664104092 0.039559507460177036 -0.28559145428741783
Ni 1.7720891377657007 6.507784649107128 0.25080048950955713 0.8504209098404 0.5049111819307949 0.9809601882142589
Ni 2.6280099069606373 1.6268122686364637 0.25112364975330875 0.179576129196852 -1.1171314680629147 0.3609304333400494
Ni 0.35517761722735386 9.056347970300514 4.9349909753728305 0.9025898785344714 0.5873209517872787 0.15357276315455484
Ni 8.22877634271334 2.136343382176404 1.4861068461014209 2.125553352032552 0.6320095529439052 -0.9459479338051322
Ni 6.924743061361142 0.8534226315803172 4.972324153307585 -0.16476914609100657 -0.14912064092047222 -0.34115942136070926
Ni 1.03410370247023 7.554950924351475 2.6028914600368984 0.7764952661955272 -0.6155881741630882 -0.6079139454472821
Ni 7.559171978097107 4.036616390785266 3.772847734864935 1.0346828745486956 -1.5800290245660853 0.2623625656664643
Ni 7.620781207713461 3.953066759226562 12.48117663198929 0.6394577816918342 -0.2267065070257515 2.4664083547789653
Ni 8.04143417668677 -0.35314243389451366 7.321282466528222 0.7817452017405568 0.7008025033479028 -0.28402410980029796
Ni 6.714235026175751 0.533792641165641 0.2713120874528478 0.46960607887159767 0.7496521778607541 -0.1671942105927314
Ni 1.9453702021750987 6.170999025415313 9.100980394077986 -0.34186313229595316 0.4799928214225605 -0.6581538154394407
Ni 9.07853346568616 4.73272715741708 1.3307412046433762 0.1927311785215713 -0.37732301576545985 0.40678117312557677
Ni 6.3717577880785345 2.1139127933474646 7.215885931637018 0.16332752854847357 0.09065786879788902 -0.03653717569408546
Ni 3.2037434827949745 3.9681173121518483 0.12894547602436263 0.10866587533953542 2.445033745757931 -0.31049490239731686
Ni 6.0639839660448684 5.659325613630276 4.860842038994721 -0.32851602156508586 -0.3234036400391849 0.5042581217278284
Ni 5.410446838266849 2.7966795836221188 9.408164176340755 -0.06544923074274535 0.6879372173494603 1.7226391180615495e-05
P 0.1470088627951867 5.620800555358315 12.458232254682926 1.0666537710283372 0.3805654339621575 1.2373040584904693
P 3.9484916816183935 6.225037590894339 12.897370715801621 -0.8733754617540443 -0.9322984613424975 0.21520570547500356
P 2.426606639316899 8.628042639375446 1.2192363964931703 0.09631121042892445 -0.3895596670409678 0.31895588868047653
P 6.703006115458876 7.928282703699021 5.978730481178519 -1.743042621418566 -0.38189983650286485 -0.8431937959643414
P 4.6384660346329 0.9577888662561898 12.69650120721217 0.6915935831551251 0.4181102249851509 0.3597654664976707
P 3.9270051564228856 6.139844925512067 8.020452362433753 0.38941285705045836 -0.25391469200942723 0.5099148057929734
P 4.625348996649163 1.1415635610525785 3.9011759385135925 1.0771454145882804 -0.01760408623500839 -0.08332842501601134
P 0.22634924140367654 5.663383271747045 3.440925854392279 0.053340106184037166 -0.8114278164066542 -0.6281438993409117
Ni 1.3874013622121635 1.0145416146813329 2.4821765849397717 -0.6352236890058286 0.4976784116277816 0.20444795273786726
Ni 1.7894453845649447 6.737255654775585 4.728169327125291 0.4247063901454298 -0.7255660834458278 0.5949283318208916
Ni 5.789688092858281 5.400298154207459 9.114944366071331 -0.12146328421451985 0.9452257109271269 -0.5882414067190191
Ni 8.871293343078031 2.295091313151916 10.180924740225779 0.5768707029882324 0.9709190019281732 0.5123946347920336
Ni 2.45461083459706 5.17060021016558 6.586453290130291 -1.3355538807030032 0.8349922339901555 0.7567347957391484
Ni 0.3891593692634261 9.16231911315322 9.194965559800083 1.3900867216435606 -0.6161188498555775 0.28056983270311037
Ni 1.396851076081417 0.9123739589671638 11.624542368548317 0.24856165522763 0.5101130378467086 -1.1469030428983926
Ni 4.262892104155954 6.967216847330631 2.0801588874383072 0.4493650692343745 -0.38773701200993227 -1.8302881221007963
Ni 5.774292593605395 8.149656548203815 7.980329658012905 -0.5641483703255574 -0.5284959112292704 0.8590451611743013
Ni 5.629351593268821 2.990484954523719 4.9177854156535385 -0.1430831764771407 -0.4409727314056212 0.053849184609971776
Ni 1.1045816837198796 7.6159701141969345 7.212790492223554 -0.9396919255930913 -0.9894597410448379 -0.13935970487896646
Ni 4.71406374558693 4.6175967818130985 6.657957940581298 1.5846834926189612 -0.15246821723646645 0.5737236727188184
Ni 8.253784951464342 7.005596665043604 9.211837973987194 -0.18201996275165425 -0.160977026038426 -0.5645687456924277
Ni 4.9589484055781465 0.3467963292201667 10.643778261366979 -0.7730864976242944 -0.7881120244988492 -0.9241951155090729
Ni 8.202660274700042 7.10541323920913 4.636629649315178 -0.19468753091699373 0.033108866738826855 0.19242881678980409
Ni 7.346085922989652 6.113429298845853 7.112136061583357 0.022248012764922973 -0.22034971156978825 -0.22857492769305796
Ni 2.6344004915561747 5.173323470646634 2.5712580662889875 -1.3372042718222326 0.30565557202714455 -0.6628165110224327
Ni 2.42220403487253 5.5285637228650515 11.343492809368717 -0.4962475927185259 -1.2771684987855747 0.80331778570501
Ni 1.1564416408140645 3.358651616492202 3.4861909823548474 -1.440069738429907 0.24687346889192968 0.7428256418572239
Ni 3.4820243938188367 2.548989965335418 2.43236724298782 0.8272472999374141 0.03572624975701589 0.044186978929859386
Ni 1.1664995495240866 3.399400670823691 7.920103844720926 -0.45404421987759863 0.4384882744208706 0.6378762961373272
Ni 3.541001138303506 2.5696050471769887 7.273958553641978 0.1993252867993212 0.7011040937487216 -0.23317643102081131
Ni 4.390476857693284 7.266575794477843 6.1040295114187515 -0.4911151565879671 -1.0236597839653143 -0.9446988918893795
Ni 0.6772394792516104 7.301932793056848 10.984109570205124 1.44301493710116 0.2764169868770014 0.8051304134337166
P 0.3121709799570723 5.496256776024827 7.864689124945474 -0.341500863860528 0.2036761075688492 -0.0701738899119243
P 8.467297650713828 1.701257132653514 8.094933536590549 0.9141873535640836 0.9013547205757895 -0.33323502430730995
P 1.9826062504860291 3.2174687156194812 10.341803168650967 -1.5996524552239677 1.6749495252950701 1.0307925383553538
P 4.014104104141895 6.12275192722599 4.020828742023109 0.3031400046941425 0.02140494803833733 0.8140092039805852
P 6.757816271407535 4.302769715133506 10.70175738476209 0.082919876723683 -0.5218380395931206 -2.3531908555130054
P 6.463894767687492 7.828892773675526 10.124366251048285 -0.46673312819917684 -0.6234413516589199 0.956080908474076
P 2.4190541302494455 8.571761922767019 5.833422748430497 0.2710989170981976 1.189747905978061 0.007824895361057491
P 6.912279605892857 3.9638690258014053 1.5201984363102288 0.0175007278879247 -0.14102963638222163 -0.03315514659573
Ni 5.1987133358649835 2.8761352469243064 0.40791809521041233 0.6910922180386743 -0.20172412604880097 -0.37031033189305257
Ni 1.608738896577209 1.1061520972639536 7.354258427693292 -0.5961904863627667 -0.8985596743291556 -1.7944001499549354
Ni 7.0238515878015955 0.755398870564817 9.372145425464856 -1.1765159806688188 0.4178117199081256 -0.6860700822337346
Ni 2.671609307262295 1.5013788908791654 9.454943437130789 0.6164317531103061 -1.4412683867236984 -0.8161478475901429
Ni 6.240732648800141 2.1428973624008045 2.4827475618872987 -1.1836106827320714 -0.9337305658033339 1.9701761886794071
Ni 4.044895102647667 6.910917975652331 10.179808203428546 0.9076914614270948 0.871539694096886 0.29236991066183193
Ni 8.38968472700382 6.996482819967013 0.8414738723429507 -0.4678027071142718 0.07177311607824413 -0.7390003545738628
Ni 7.640579311410716 3.905464166017757 8.58559427050378 0.5886167877805668 -0.10444078151459432 -0.5536803809146981
Ni 3.1702746114828337 8.353973704562279 12.314492212218495 -1.741609231406149 0.11785679781018413 0.017745496908879117
Ni -0.08930841972263723 4.959384127255116 10.499373743345172 0.36728568613411583 -1.218527034993282 -1.5618307563905038
Ni 8.64833092995929 2.3061023630303072 6.03091722953043 0.4764704100915988 0.8590006810896109 -0.8281302167629995
Ni 3.8125102082644835 2.6191956205369626 11.447534976047345 -0.13465638586602618 -0.247657912466438 -0.02111878425648621
Ni 0.9415491562541775 3.362237242792255 12.353592786205454 0.6571436290073714 0.5075871861010612 0.3640658936452375
Ni 3.2578183584137483 8.248501826131099 8.08677555594281 0.1194159147671879 0.9615822979082794 0.20698357467552736
Ni 5.761121090412035 7.939992723767549 4.031935106018336 -0.5674715211615196 0.5392300098173229 -1.1099508911540756
Ni 3.142896766113315 8.422127836868098 3.676179249815505 0.6267308210434691 0.15801305831409562 0.07051070442605276
Ni 3.5246615754171886 4.29683300728481 9.307775717474208 -0.11353605894764317 -0.11649822689976067 -0.27328332634402613
Ni 7.497390275316953 6.583464057875589 11.65799671580456 -1.5470577118463873 0.04223731140265629 0.18945379332188017
Ni 0.3404402392573891 9.067976292554611 0.3220092123216229 0.31439500878267146 0.12115989404148811 0.24265454571457565
Ni 4.703034540638666 0.2793329973230424 1.8124478580949053 -0.44280027153266316 0.30706813610395506 -0.5719670950390279
Ni 6.122098344710539 5.644102587541191 0.4967072799346621 -1.3252257593041177 0.5667176737146303 -1.4319527657497275
Ni 8.258804828284417 9.037484852701755 11.173260888944606 -1.2159610740383187 0.07314814204889983 1.9866124798585594
Ni 0.037091715505434615 4.9818510262238025 5.559440957952724 0.34126123704589617 -0.7927112138337573 0.7180592335458215
Ni 8.099185453954966 8.612438356819013 2.672762154199274 -1.5905047272864286 1.0754821679532447 -0.21595261094335713
P 8.497734625357063 1.5625251662137407 3.603080584229589 0.22967998783177862 0.21319818812667155 0.482469307987511
P 1.686324587682407 3.312283568034807 1.4079320229788217 -0.050960035987634815 -0.918425045794515 -0.2463790457540144
P 4.673142218091642 1.0220215034692917 8.48823589279915 0.20617521984161913 0.026844116776037638 -1.2191777812034035
P 8.493023384724841 1.7848793844917126 12.56406723451158 -0.5853093206738886 -1.2102987335462188 -0.7179178228719506
P 6.301361504643316 7.800806880580934 1.3455021842041768 0.6519245467002772 -0.9521180671715862 1.0003571046836321
P 1.8273985581358856 3.3221236159063454 5.683650684000535 -0.6646072843742683 -0.8484097929476422 1.0084715062606504
P 6.959137841236841 4.105351485327042 6.325677497478638 -0.014281963840310889 -0.35731417674370075 -0.6582777426118147
P 2.388726086025453 8.490663225641262 10.143112268446359 -0.37861396666274144 -0.6132806090758341 0.6601407639624824
