# total energy = -340870.4129244041 ev
CRYSTAL
PRIMVEC
9.29860324078290 0.00000000000000 0.00000000000000
0.00000000000000 9.29860324078290 0.00000000000000
0.00000000000000 0.00000000000000 13.60944576010577
PRIMCOORD
 96 1
Ni 6.865623487431411 6.930648617854121 8.835347479989066 -0.38314039377818526 0.04483155449239375 -0.8569378850233113
Ni 1.126721017939394 4.9754964659779235 0.8144107004102258 1.1313938915191997 0.4771738639165266 -1.5766385108272973
Ni 2.366252686856668 7.451602848074673 10.269279461600368 -0.32449790154462826 0.4287767035600615 -0.203713645675004
Ni 5.321618363550429 4.736522370187327 6.525197914025494 -0.6733639475209758 -0.5099022073874832 -1.0085242138754564
Ni -0.27482578932095597 7.968549380424185 9.554388918972947 2.073044997721191 -0.5920890625998835 -0.417114693841101
Ni 3.20567476947925 8.22750617395229 12.699435867364091 -0.04102760736527128 -0.7039125097317942 -1.154581899599889
Ni 0.6628090675097916 0.8272548606637492 8.337609071751409 -0.312670569892397 0.36010999432128304 -0.2492036596870031
Ni 2.2601184327962063 4.682153438744228 2.893463017141342 -0.282142833617185 -0.08929929788746557 -0.16996843090375888
Ni 6.10307295538863 2.7750564669087225 1.079106591678486 2.0208624021803647 -0.24982843775519553 1.1197987304824326
Ni 5.44303952085913 1.0650433845783422 13.3672243367531 -0.8266919416545763 -1.5575012757772144 -0.8589911680079141
Ni 7.462528706539808 0.6763245868962365 5.010031477330696 0.10266080679603609 -0.1846849111783271 -1.1804433407476833
Ni 9.11259369565766 7.322798600024426 0.5522765742544289 -0.5836715279601496 -0.49614526281270677 0.5101554610488698
Ni 7.2486329429028 0.06694994123316335 1.183673101281738 0.8454116295512666 1.1587023495261657 -2.329932399205697
Ni 0.2558389719592898 3.418287325909289 2.4653646359700074 0.5795888732503438 1.979825538843713 -1.600548998896308
Ni 5.309390700672428 8.491902650205592 6.070424630574219 -0.38950181721983884 -0.3039972104881152 -0.6212245465132591
Ni 6.208286647757135 4.81374726767919 4.042712690305695 0.41395866471062254 0.05180078672137531 0.973116523800124
Ni 0.7436483319679517 0.43861975040818496 5.775222812611008 0.6185786242499798 0.5033674915927588 -0.6060210992999433
Ni 5.964635354683167 1.3199087928088664 6.758423613472988 -0.18573726370224142 0.2683097843888347 -0.00757909789883856
Ni 1.010999904238461 0.0166751846685322 0.4943369792788954 -0.4317190740178371 1.1266900582856274 -0.39968672817264067
Ni 0.543108151746665 6.676099362123865 2.7933523980712747 -0.5923569715492896 -0.40858403066227045 -0.006053662393247639
Ni 9.34184145276355 3.199723663591858 4.76111438540668 -0.37078984263263237 -0.39686777066660683 2.0997435900583
Ni 7.479656733171959 6.950082698017637 4.358996300874993 1.2037804728117267 -1.8909242477256147 1.4758001019519809
Ni 2.6527240465110147 2.881218616778032 10.887474762020911 0.35259928776653465 -4.20454119760074 -0.708302925490006
Ni 4.761172966605259 5.589650593556808 8.825344042936479 -0.39029680231730846 -2.5085176252441896 -0.8676221042100348
P 5.25324573606606 0.6979233818262911 2.2409316954711356 0.6161610159474227 0.470126470151442 -1.2287271154547355
P 7.012197365717294 2.8865932092825832 5.701690390350213 0.23737195715939766 1.1537637745739677 -1.8096964139923735
P 1.9516093841526099 7.472868753019152 1.1585240997457364 -0.010435850621343317 -0.5538680714454719 0.16733947792134407
P 2.4617679363493146 5.828699078170997 8.700627460742634 0.021260194930356933 0.48625371473060774 -0.7542451965480752
P 8.473379833131084 1.9136059938998407 1.0991720469822421 0.19685548510259002 0.6198780597876937 -1.0033812362219365
P 6.188452727666811 6.644112167979132 6.509656229056452 0.49761619093127846 0.8027847960196755 0.6180816300089033
P 6.807544413411642 3.250317362237641 11.127381507687298 -1.5796806400877312 1.5456641739329702 1.4085858088890126
P 7.797194725279083 9.287277250658521 8.491681343455404 -0.6077982458050242 1.7307949143994643 0.03999942321107305
Ni 4.184417820087455 3.1158688621973205 2.827308106460322 0.3416409889828181 -1.133841324618428 -0.18314970548072332
Ni 9.185764402263738 1.456328596674386 3.13379284924191 -0.8153832015099765 -3.970905567555322 1.160462269640066
Ni 0.5532984907185294 1.8827160349030947 10.367389951176095 -0.022641905769231974 -0.4539778854160375 -0.17147946823164661
Ni 4.785870056037937 6.144061197188044 2.8698650225772417 -0.9638878061130045 2.1928116109595783 -1.763297000792228
Ni 2.831889528133319 0.43415456127205093 9.24304565615048 0.5696150498670836 0.7815598252026282 1.9843995313676404
Ni 1.3572705794581512 4.795010582736853 6.510731147557362 -0.18573469259908013 -0.8771169310743475 -0.7812968013492286
Ni 2.4643529479691506 3.5729788845696926 8.654872755071535 0.9576212563780023 -0.012825691009758555 -0.919142897797146
Ni 7.81191441374743 5.286311568152883 6.181260258285721 0.4522416194512212 -1.2951358818972727 -0.25611967008054604
Ni 4.8964025492933 8.026981801356017 10.500952294355372 -0.5190450502290157 -0.25513056669439926 1.8031840667951526
Ni 5.144042943032412 1.3453404718745194 4.287138557005321 0.35346060732556545 0.25179558878389535 0.8050697353991104
Ni 3.2799706070421633 4.882938172223074 10.972533732497352 1.5814547012690183 3.057335535860264 -0.7332022598348469
Ni 3.268133485488022 3.592041020615246 5.940087042897673 0.9339856192369334 0.5294811579606753 0.643238331780189
Ni 6.785367245378157 3.3939621805945728 7.865850960153397 -0.20028379405784863 -0.0315831741229198 0.2567444481487385
Ni 4.95720611397714 3.1943118766755103 9.65677211660376 -0.23027545532393245 -0.7191018158777229 0.2074558863262556
Ni 2.972224043840389 1.2835791510869263 12.858489400667894 0.12953294859653175 -0.0619198774332482 -1.0401922344026988
Ni 0.11058177585099285 3.3452746955533446 8.500758639654268 -0.4204190756239856 -0.18325923447539408 -0.9413551722281273
Ni 6.743216678210111 8.521704672657298 3.1299004540474376 -1.738286080570187 0.4514728596059966 -0.11118709909949238
Ni 6.232156161527348 5.201861656169608 -0.029238527112994284 -0.9269492812154424 0.5383650907138664 -0.27313754479478125
Ni 3.3501006704839016 -0.05576372188545564 1.1882229077047088 0.3961566035321952 1.0376843803791806 0.9618651192560208
Ni 5.259178244747554 0.5899461446613272 8.820852817712087 -0.14067893791102226 -0.08025929917238435 0.8731126950109608
Ni 1.9405161508343927 8.386493687175156 7.6563069426965455 -0.1596112560391509 -2.0894049271364534 -1.1371716745432416
Ni 8.85592435845502 8.274789569948213 11.944533436246905 0.5142576561427015 -0.020472923142371192 0.5799948504395108
Ni 1.590888679950095 8.874149620235158 2.9617287106917956 0.054910021774318335 0.5124745961003496 0.45915120208686094
Ni 0.8122590036878155 7.442127571669591 5.509607289511087 -0.42253817884951744 -0.8283518458555024 -0.7473489836488741
P 3.1059937458654288 8.456540063190353 5.356337487241594 -0.8914104648788843 -0.12018544594336075 1.121980825735416
P 1.9911749397008196 1.818248820657328 2.646220603608449 0.31278704086560327 0.15369591899598048 -1.343697849966376
P 6.796553464725864 6.200764077971354 2.0747461337054105 -1.5215629100093924 1.5738874304447217 1.2449944851561914
P 3.999831252945854 4.750228510934227 4.1709952867305 -0.0009975880265789272 0.15010383076934794 2.6023024697068347
P 1.8070718999125694 3.881562322036881 12.4531056467805 -0.910745160651754 0.8625554883204049 1.5225802955303134
P 4.4684064527544045 4.014523045605354 0.804752241527047 1.8125943043654589 1.7426181322866376 -0.3177287011415947
P 6.782075539934193 8.717672729808537 12.607014263072594 -0.051000659417583125 0.14442246411385448 0.8477274221686368
P 8.799277269289405 5.7495586684716296 12.784018749369539 0.10349075889649918 -0.7203801683695141 0.18002530091912866
Ni 5.249954030622097 7.838620001417103 0.7034625596030403 1.0732118838618292 -0.6446344407967672 -0.10534940937179275
Ni 7.838908258108523 1.6444579315395749 12.126982254570517 -1.789508883300905 -1.6270835548517268 0.9484470460779021
Ni 7.40658831119832 1.959410912026863 9.701193402611965 0.8479161411406752 -1.2311064143201893 -1.7163306593450185
Ni 4.179006033171108 7.572270818544501 8.445395687555916 -0.7539502910154757 2.751766867119971 -1.5591246703132504
Ni 2.799623375900114 2.9570766196363856 0.8052208911156793 -3.2042763955205977 -0.6557480342114255 0.11191266441160727
Ni 3.9955445969863415 8.684002488530025 3.442359549223791 0.4349627777661154 -0.8669520747262036 0.19433863221800723
Ni 8.037173070188178 6.102905580535547 10.81150703564776 0.09562061211980305 -0.36647013221135594 -0.07909433233000572
Ni 0.8485895752700506 5.012504905715144 10.073807019986315 0.6738342022891749 0.6955546246854022 -0.3113801332157476
Ni 7.063042126642701 8.8605271669148 10.451495814850256 -0.645675737577088 0.31390341385823356 0.6343731680800753
Ni 7.145232478109358 2.895984798261124 3.4100645713214437 0.5110041822024103 -1.057747983898275 -0.025128676746827693
Ni 3.4702200233797353 5.96391936225609 0.5461608830948383 0.2922608958877934 0.29056113958786733 0.8196977697249302
Ni 3.5176614956257914 0.738583382941604 6.816848595522462 -0.26790894940599025 0.747218628718597 -0.05721938663378533
Ni 2.573109408061245 1.9285023558242194 4.648877458230756 -0.1233468743904779 -1.454319820591018 -0.39753780015043794
Ni 8.894587949517172 3.6968734702628407 11.621813332716274 -0.2755168436602352 1.669442479433912 0.16169359248947637
Ni 0.6676629382491961 1.9350857667121473 12.727866345880813 1.2088013230650858 0.33062329771607574 1.48365610766129
Ni 5.7699784005477435 5.243324126719424 10.790765571909606 0.19633252271958443 0.22201115843261118 1.652732879988715
Ni 3.2750795418909626 6.450636136418239 6.426910750993736 0.36766518096072165 -0.29526368726985924 1.1114161628456924
Ni 9.517864006589075 6.37962270569634 7.489155256084414 -0.6239758840061512 0.6250937996606782 2.5797402681356023
Ni 4.907970011361919 3.1173194442573724 12.299359756040015 -0.20041543453970648 0.32417188566377714 -0.386324962153754
Ni 1.8394496353811631 6.186137375532497 12.288267452582094 -1.3100937887586857 0.11315347879724383 0.5444457496903075
Ni 8.00433970317508 8.269387081634815 6.744963885704237 -0.244374870839792 -0.9795710211762162 -1.2029245525693346
Ni 8.393346757548606 1.7151087167464603 6.889292151377924 0.03251982700457625 0.3426267499348551 0.36493004141774565
Ni 8.257131522947967 5.000193555410601 1.39816676508837 -0.6296803905900962 -0.39566577993870566 -0.6427901884991769
Ni 2.585699716454259 6.691153800298377 4.200650391255612 0.7823815497729751 -0.6867596521015915 -1.1664210583266623
P 1.4137130993588876 2.4048139932863806 6.606392385116308 -0.969435475404111 0.5681153253931054 0.6635862993089217
P 7.912376520008972 4.900084796061124 8.836694847556384 0.915869883472829 1.7046478236904514 0.22309616396667387
P 4.3273187502084625 0.9301764474053142 11.206275504408516 0.2355945535440007 -0.10729881978867972 -0.6931398445963224
P 1.40859886773691 9.432874775634755 11.355993240351474 0.48928401691649925 -0.632233238918937 0.3356220364822478
P 0.3976631238587973 5.2580159193789235 4.401825666058319 0.20328787099149503 0.522898362536835 0.803649458012816
P 8.870355790231947 8.661574258216916 3.890994824868398 0.20175652194863314 -0.45384135983817325 0.7796050154691025
P 4.439050763244253 6.396508968651815 12.271310520244205 0.7083720881650445 0.301181595416191 -0.9165627957747957
P 4.452338466858446 2.7039035571425885 7.594927794490157 0.44956561528095473 0.24712389433983892 0.518121767083798
