# total energy = -381174.37055623636 ev
CRYSTAL
PRIMVEC
9.19420123725329 0.00000000000000 0.00000000000000

0.00000000000000 9.19420123725329 0.00000000000000

0.00000000000000 0.00000000000000 13.45664287482159

PRIMCOORD
 96 1
Ni 4.009333639594101 5.660446652274548 13.034117742412258 -0.08206961290824576 0.3040612309568312 1.9211179977001753
Ni 3.252641699106672 6.6742728134836184 9.086530518219254 -0.758419382530423 -1.2461957045531442 -0.34593858791690746
Ni 2.6294219752394055 0.19685244154756437 2.0701028680788824 -0.6574593604755774 1.1165185170692642 0.4963198407173582
Ni 7.909761967769463 8.892576088842157 3.71685966830258 0.18756506093959954 0.5872918983215564 1.0708994336785684
Ni 6.400193680229706 1.5175304656477029 3.0681416666676826 0.6853761414905035 -0.2102982408710572 -1.180498876575967
Ni 8.782282453065104 2.167588062375357 13.099718366892859 0.16161645939463778 -0.20068848569543501 -0.1970028093137317
Ni -0.07065927389744946 1.3811344930941372 2.1748763055464533 1.0030747607251111 -1.4573400954745803 0.339485376092396
Ni 1.5401573944279068 4.305497243766359 12.521109825932715 -0.5070292567150623 2.1797671190707946 0.28723181810431825
Ni 1.3715909124058596 1.672903269165243 9.044935952676123 1.2679876036172548 0.8827497038800927 0.7797466832532893
Ni 2.8250286025449065 3.692308393242938 9.552776728166446 0.5053156164580652 -0.21925133629928692 0.9071731270297797
Ni 8.41584757027964 1.3086749946314038 10.883853393652366 -0.9975846841448175 1.790439879755607 -1.5832547305922344
Ni 7.67369166164979 3.9471900347077136 6.350190098407676 -0.733808268849962 -1.31048665332173 0.13703002830452532
Ni 5.779778187682214 1.0741860910920618 10.561836615552009 0.30032001874684405 1.272495004569305 0.751131590619758
Ni 7.7784411941946345 1.5398539857933082 6.126957655211935 -1.9262090390698374 -1.318334688611239 3.13117196222544
Ni 0.2171495597820943 9.178212332813954 8.421624286798373 -1.8584329599661285 -1.8861993314461194 -0.06844405170501115
Ni 1.9406751804999276 8.333761743319192 10.347041690658418 0.7388797698355984 -0.6932023224031416 -0.7900436943039233
Ni 0.2757809798679782 4.591574809388482 3.2046452113735153 0.051561931237691844 -0.8496215538675562 -0.34372666786725314
Ni 5.547183289558849 4.7490255023429695 6.238822579948166 -1.0711380320519357 -1.6013817792102485 -0.14917823363128502
Ni 6.361550453223125 7.3232638828896555 0.005891644031838549 -0.03133326289564281 -0.40457336684098066 0.07458178917163284
Ni 8.132813285204548 4.50833970729698 13.094565017205209 0.5084130244364664 0.3413630527310831 -0.381616243824175
Ni 0.9401070572027023 7.809067077886978 3.0346343203667585 0.632599106898788 0.3561687502853479 -0.171274294199376
Ni 3.483498893231881 7.964504240811858 6.146617615313809 -0.7395400291274167 -1.2678829597185906 -1.7055060579256887
Ni 5.535525042629431 6.334620638352253 4.635436664910157 0.06453674623080498 0.4945853745247546 0.8478225529856044
Ni 7.968926651516156 2.3704029433028335 8.451080668117356 1.2267751339346873 -0.08340093012515959 1.166871001379887
P 7.391484854669059 6.28563393516618 6.137534664098058 -0.10065611766118147 -0.9520995552288248 -0.32542144180016214
Ni 0.9606101255407172 8.508221708213288 0.5148918082743696 -0.9895088491152185 0.08816878382744815 2.301192608068843
P 3.5958520300437837 3.341347350821994 4.461711316679831 -0.0869613937829083 0.2780342107654502 -0.012442596638726957
Ni 8.118148534532292 8.126947384935646 1.6853365872430446 -0.5143890395142431 -0.9040572071086173 -1.613165144998422
P 7.896503929857617 3.5287619449933376 10.895681733301181 -0.5972204702891779 -0.2183079985494111 0.19312275753303515
P 6.010157283352904 8.073547465246323 3.5862358151672233 -1.571594777755803 0.08046344476339047 -2.073650235405358
P 6.5228810990200525 1.406409351776291 0.8323887171393172 0.27279867339812375 -0.5492763383097314 -0.18361533226323218
Ni 5.123919050092995 3.6626019296554375 2.691799112832423 -1.0321074005120354 -0.6780176442429033 -0.3107944359156067
Ni 8.042250404877443 5.7244290973706216 10.821522227064593 0.2737227278742899 -0.5924042798474571 -1.7907795224832128
Ni 3.8304696523978037 5.46264261091847 10.869011194899874 -0.3213534423783756 -0.5465296288025298 0.3256387000172908
Ni 6.398547918242037 2.6910231222639345 12.39429421087162 0.2728457245859753 0.48752255414070234 0.2689864987408851
Ni 5.479541552445498 9.183397862205272 5.33942100904721 1.3401728675322533 -0.3242672735910609 0.38037182989411267
Ni 4.565426501606727 8.55091957788223 9.723285944870028 -0.6293947410288774 -0.23231665412367733 -0.8178789713486366
Ni 1.1792758090756987 2.7405706717139626 5.196188228594027 1.824323676987245 1.4905150395646523 -0.9077781076036301
Ni 1.3864211586969888 1.1412302051372658 6.788849108109034 -0.2555146895066954 -0.6806900488687437 0.07008621529412445
Ni 4.848405621475528 6.615521868784105 7.34970824394517 1.3304199019105476 1.378417769946065 0.2312514460839566
Ni 3.4717854810961724 3.1669333569331406 7.323333758817623 -0.3998145119997566 1.7256935886171572 -1.939448677688563
Ni 0.9395186283356023 0.27944486898578047 12.007766321114902 0.7198602913103022 0.5817290595217981 -0.16646890239093265
Ni 3.134588157644738 1.1556467123812153 10.861784552875804 0.5571876227370082 -0.014520047993045961 0.9257004964100057
Ni 8.665828702585598 6.866495974803295 12.670559725134853 0.5478781724106241 0.8222187363745711 1.2651401068661308
Ni 8.807097601694835 8.248209702563484 10.600550637906663 -1.3478177856720208 -2.069945789970577 -0.3303882988871342
Ni 4.192206298447516 2.088380020343071 0.9042423177529585 -0.11590353073855524 1.1852806142353265 2.6536522849337203
Ni 7.8013623374083885 3.1482783230058615 1.7344133935993926 -1.6872977624477778 0.2515251087313281 0.33869656164251344
Ni 2.8940034988102825 7.111898394987132 1.4377753686530346 0.4327089487349322 -0.4306106714450068 -0.8686477172610717
Ni 7.774634794960582 6.65714401693038 8.503037098242073 1.5389847050302656 1.597975838852493 -0.14525395887621437
Ni 0.23974155059831415 5.045887865794909 5.686279598960341 0.9744866646747733 1.7664789980646354 -1.9797628039265778
Ni 2.0258502590126497 2.6998035842651924 2.9593043923367026 0.6692537820073442 -0.21589553245317658 -0.8241136394044387
Ni 6.776236503110788 4.701886833567632 8.297473151201116 -0.919498738474668 -1.04408925546426 1.1777801920932232
Ni 4.950930157366649 8.902505825974467 1.6206507857667647 1.1564089255062986 -0.5573388036028917 0.354249421775448
Ni 2.223819795987599 0.3770403936948364 4.677205920273207 -1.25037066186644 -0.15214348690719606 -0.3958035910681506
Ni 1.3431348601609463 5.780890686009075 10.58483315121436 0.10959532913234028 0.3999731490648079 -0.1592559295822612
Ni 7.588093649888839 5.470282991989722 1.8465339171247697 -0.16635963050657798 1.5779965675170888 -0.9226149155061466
P 0.8611389838177801 6.81216744080808 8.685240419259163 -0.1872390450587485 0.7279368976708495 1.2108098688546824
Ni 3.8827478795592176 3.298640286952003 12.250160398715689 0.1807632075264177 0.053360160788695196 -0.6986798005779451
P 5.876087443664593 4.845656555362044 0.6386181717831888 -0.11919325723342053 0.04198791439601156 0.42204992635918925
Ni 6.101161485330335 5.344147747806211 12.025623298391176 -0.4655262523752692 -0.2735666619123998 -0.5119457201800731
P 5.4221237668980065 0.08044190381298663 7.736520234514286 0.0882536302317706 -0.014528018412845947 -0.1788981292932209
P 4.395729132855722 4.829557509326231 8.451404303994261 0.6798415848255195 -0.6755709824746235 0.23248917514579961
P -0.055210257875760456 0.879630360966397 4.828969999879236 4.297870956803837 -1.7363531252135322 -0.4190281088137299
Ni 2.8280626888908906 4.249532141984522 0.9141316004006576 0.0948474813992044 -0.6447192872010896 1.9130958987266469
Ni 0.6108562817174328 7.4327668173765415 6.576517309676321 -0.036238927727376295 -0.2970909702865851 -0.45137464346523554
Ni 5.983383769899855 2.3396391465947626 7.511673289614439 -2.1551698893474045 -0.11662163985150238 -0.022142854645626382
Ni 4.366123805479754 7.9006872913346555 12.145467870217345 -0.8634373767047259 -1.358281661317822 -0.6071063619443221
Ni 8.265421246926158 2.6450337286196524 4.338475004086893 -0.6240807850151316 1.876645369209097 -3.040594826066815
Ni 5.532582898293932 3.6884284404004974 10.237799871481307 0.18305586021533637 -0.15599062856742812 -0.5466517562026909
Ni 3.081693919013079 5.474981228725472 5.882745884063871 0.2527384123131389 -0.6593138971858129 -0.5005385067843959
Ni 0.8464889438672004 5.952849828217995 1.206249756111604 -0.47038666579136407 -0.309507341673067 -0.34744962524479517
Ni 3.4350270653045203 7.628483775094625 3.69185695797146 0.5822643631999779 -0.030794616783353417 0.3001675523293798
Ni 2.2958931380062984 8.362980914251125 7.978510686689047 0.7805825488910235 1.5932681489641785 0.1732116204314049
Ni 7.84748044986735 9.266743294709356 12.85235850130581 -1.2225251004090818 -0.9168294191726211 0.5126936540896913
Ni 3.78766145231628 1.4419725214316461 8.694767450385553 0.7493475021361418 -0.6260373945208701 1.7250245875745904
Ni 6.9797225607148 4.38597408554333 3.819385123613808 -0.4022763432766878 1.0044806399337023 0.8123220460861494
Ni 4.218225887414594 1.0381356287811396 3.6299027536266704 -0.8008520977733369 0.9726272428685313 -0.07250382359668157
Ni 4.993683192241883 5.968774184433888 2.3792551200722687 -0.08750158255709446 1.0059443689634224 -1.0789333597266386
Ni 7.208557030609352 0.08235613647127125 9.028384551948728 -0.8637345962301706 -0.36029408530763113 -0.305704422987209
Ni 3.7542497257062597 0.9342227685317026 6.5532238013201045 -0.014654259578065085 1.032836565368576 -1.4328932752861259
Ni 5.685307771909521 6.453492463707497 9.748705152508643 0.5619804161399613 -0.7991086327196689 0.3675530808628896
Ni 1.31569936423241 4.889071572712765 7.651325848179361 2.066604127191854 1.404637622874542 1.105523194400025
Ni 4.893420429808675 0.8287790738077007 12.7457554178296 1.5842263504768845 0.04243760033892046 -1.5270725269737122
Ni 1.96272287461408 7.159294501391826 12.527340735983241 0.7954121577046881 -0.9766489624334148 -0.8669528460571521
Ni 2.6386713414941334 5.233688616410287 3.1906240547746485 0.3952551747638483 -0.17547084877922683 0.5248374885410768
Ni 2.0956066623671425 1.9462192837321353 13.217787538496575 0.1908463027940326 0.18646180057309178 2.273678204698659
Ni 5.647151837558507 2.52785363625732 5.105665802751533 -0.5454451374890994 0.4990626935698179 0.28068476101441986
Ni 7.6277482390107485 8.352968429309378 6.811913680859143 -1.0921100063179128 0.2288901449406316 -0.5849802194692441
P 6.40240948268238 7.933188792040881 11.148491921269745 0.7524019726917494 0.6686086922241775 0.7208879612438681
Ni 0.47975341070745237 3.7500663642292205 9.536668487929585 -1.866893689138972 0.9922997815967943 0.07273573710182957
P 0.6256377987430052 3.4247847253365613 0.9988837456651515 1.3952494967914228 1.141713271167337 1.1460746334598262
Ni 8.259371462636286 6.558444268675407 3.82981410586305 -0.6337900418830956 -0.13036521468984 1.300188870940148
P 0.3916766423438435 3.1197395229515124 7.16318640669563 -0.575876457395763 -1.1183005486703514 0.9503118672007828
P 1.6215444621086728 6.70315179897676 4.778696108546381 0.5271833630654339 -0.270281820513541 -0.6586464388051432
P 3.070605712548664 9.233736112945467 -0.025700550190696468 -0.5876078869000784 -1.4106843432892544 0.010007761944989216
Ni 1.325417634740608 2.5612193918620987 11.287687528042559 -0.5500674667524591 -0.5429059160070133 -1.9149342374869665
