# total energy = -340866.64491972566 ev
CRYSTAL
PRIMVEC
9.23166893307566 0.00000000000000 0.00000000000000

0.00000000000000 9.23166893307566 0.00000000000000

0.00000000000000 0.00000000000000 13.51148063495487

PRIMCOORD
 96 1
Ni 1.484553909326817 5.556846162904397 7.986554952394362 1.1034747965114287 -0.8370635146968876 1.0394538135747775
Ni 1.9878829617194809 2.655775744128499 7.178730378958649 -0.06528827968484884 -0.5199482787695755 0.15512108147828124
Ni 0.34129479965806087 0.4971262940510289 3.005574757187831 -1.3160957719783914 0.9342743541219458 0.03879923225538479
Ni 0.36209836555012037 6.550579931213628 4.48794629998397 -0.8724064129725557 -0.760251293532839 -1.5933820488342236
Ni 6.292859430211354 5.45335915440651 2.1156677227924288 0.5661947113316249 0.4121452656509676 0.33692995666039394
Ni 6.781740920757524 0.7030700567962788 5.055861031248361 0.7241797446212626 1.2096407882472457 -1.0604682110429156
Ni 0.5178024629121099 4.095953020997747 0.48973080408602837 0.4229261583165555 -1.5085549277854988 2.3044080296823477
Ni 7.2407487307060885 0.116331952621344 13.426263237981441 -0.04317396428431274 1.8608924772502147 0.04759626172172448
Ni 6.558168363058879 2.4102872044339585 8.318438065597153 1.4115104387349755 -1.1608075687946267 -3.0029962989877506
Ni 0.8816890027303872 2.3102620717778835 10.143609170083925 1.5122804562662018 -0.012905909428390675 -0.4341973603550006
Ni 4.956086076819788 3.9619830417540967 0.505202158014807 3.490360730284034 -0.17754547192006842 -1.1739525908170168
Ni 6.241614436083631 8.849477818561459 11.229243279240224 1.8760977242357433 0.8403817804368429 -0.7733322950865134
Ni 5.958534540581474 0.42296737451807875 2.7803515770878096 0.4091345038491019 -0.6461179673208292 0.2746310986211722
Ni 4.245866092451554 0.4189479058740128 11.932772149981405 -0.5641820517769703 1.7230443239197677 0.9710856094130244
Ni 4.406035548066035 3.395057022230126 11.676405011641554 -1.1136327108810369 -1.0801304653585333 0.7018098615664946
Ni 1.0201363413961146 7.862012353443133 7.676804765406889 0.41509920607296896 0.10986169541984951 -0.4945786896565353
Ni 7.598392816006412 8.304430854357737 6.423912202078972 0.388090538694609 -1.6238264813670098 0.24616950084636957
Ni 2.870735154732717 4.0066920142924785 0.6781371654001064 -1.5503638934014847 -0.14915200837903989 0.5206591887936711
Ni 7.27983561687737 7.4963736428654535 3.7598399570997096 0.005511930957164701 2.862174664851277 -2.2380226602785775
Ni 4.311429405061009 0.6546979580338144 4.735652286551051 0.33133035108542935 2.3773563970156153 1.0282923976413194
Ni 7.070193647566173 2.2884661014778382 1.6560617006983989 0.8293499481027137 0.3571398559493656 0.5216300373473726
Ni 0.3734367013072215 5.7469723841366855 10.201788993897965 0.5892155977068304 -0.2213658115391284 0.12034691122188952
Ni 8.793053858174385 4.039898327367134 11.91970656897096 -1.348388056353194 -0.7589462015681703 -1.5707280588801336
Ni 8.330076430593877 7.2984005030583905 8.650117158916997 -2.012323768581734 -1.554457603854884 -0.6853468309144648
P 9.234438412170901 1.9011883589716083 0.6356650262389801 -0.29523231981129155 0.5409966147994426 1.7638739563416204
P 3.343156579609688 2.3699632746285375 3.6610574070791224 -0.33041066748463743 0.7527441865225165 2.0334854902610138
P 3.6717116761698816 5.48449757364499 6.470310570028158 0.1310594125433872 1.163509541106822 -0.9810522337074331
P 8.631748907283791 8.284748936238424 12.037378036751363 0.1023191071859012 -0.011100223678219593 -0.6369596978603288
P 9.126547897602231 6.274913065847402 6.590022236638001 -0.6940590139764822 1.6041649983823403 0.753841019131121
P 6.285704886804942 3.4609157482447492 3.4410768917539407 0.27323833203870357 0.6317447293182926 0.3122823333150428
P 6.862527255402038 3.9506927106753347 6.858427471238442 -0.9156109733844876 0.6816328723979874 -1.0488869339632194
P 7.793799551856079 4.922150461901124 0.544393362044787 -2.6268660179788115 -0.7233402794391026 -1.0169941990196807
Ni 3.166333193278865 6.385471532731496 3.6266574392142097 0.255787740662424 1.1095824520710633 -1.437706637514369
Ni 2.131647741678231 6.817319772742435 5.792074625770698 1.4000700581085177 -0.14779986522651967 1.5756746042521317
Ni 2.3107790452369272 4.489988345147193 4.534169266223837 0.31503444213888326 -1.8284932349839025 0.9420110606445712
Ni 5.748837181256809 6.142890968744077 7.007999894109415 -0.15918728112785485 -0.5455286983418411 0.1280980159222181
Ni 5.984383213533666 5.962614938240355 9.334135820580618 -0.3566660016367406 0.7495861005095091 -0.6771915487971821
Ni 5.518193165171956 0.2887924522245925 6.931565368189781 -1.132641647883372 0.9930518292714704 0.022007871729658873
Ni 0.3881261328791963 8.341939125145151 0.4798104526737332 -0.4568711478034325 0.2578821612976075 -1.2538807319022276
Ni 4.817906456552494 7.782435367426024 5.413158928964503 0.2468809250910974 -1.0316433163914234 -0.3112173823856382
Ni 2.7218744935348207 3.996130985057725 9.834020537302402 -1.0017863809309908 0.6070271719669547 -0.6857101277911545
Ni 4.143893077655154 3.9634878037866703 7.765966993254805 0.23524334085216903 -0.398813581539068 -0.16328741933915747
Ni 1.7669783563362584 7.158032977259072 12.00497764837268 1.3904060526561923 -1.4999157640532619 0.15315367333926527
Ni 4.986338255842765 3.1748170970085314 5.311984453528947 0.2999065853585093 -0.6313140695387772 0.07829806168095547
Ni 7.399634984341871 0.3572988208830328 8.480899744602358 0.043611308932047475 -0.5018870503924905 -0.06954705496120281
Ni 5.208442978184482 5.4414779965174125 4.721086559342491 -0.7599985540920846 -0.19781553502301416 -0.5836751275045754
Ni 7.862510863564355 2.03393052625003 10.506675937702862 -1.9453403605826496 0.25877561964615436 -1.272228638281796
Ni 4.362923654249342 4.1417790254744205 2.6569786305876666 -1.2332296313107793 0.4501402568375022 1.9864160475770367
Ni 5.072968236908257 8.479777173662718 0.9074841320028935 -0.6404201456051035 0.6103495514719681 -0.04594767037470796
Ni 8.310228342434158 4.403709167500338 3.7420588396092747 0.18483763470610748 -0.6318066929044797 -0.5233601326646019
Ni 7.368284236718426 6.058910476656185 5.219363119339893 0.7703251328290733 -2.2803756713234917 2.895052132305588
Ni 0.16709966946634194 1.369758106412346 12.174465550586428 -0.6140815077105748 -0.7986964848829149 0.16558752822724387
Ni 1.8575594916958715 6.143186382149246 0.8998135383043301 -1.557646285995511 -1.5589210389428765 -0.561134266089582
Ni 3.998041940522405 1.8658218353716618 1.7918253932115538 0.1335739514351248 -1.1823886373995118 -1.1869803705352526
Ni 5.858740199648185 5.28906314278859 12.058158523471144 0.5386821077336529 -0.7083466342437478 0.3723582155610168
Ni 4.34380486793363 8.382299981626218 9.864245944485537 0.3881167639468541 0.4002654834942461 0.7299264172970527
P 3.5510353001587873 5.42660577790099 12.286651560699617 0.02354410586852719 -0.4839032122205601 2.734194405453846
P 1.2846790457239856 5.121286791991035 2.772677290721682 -0.7126956552410629 0.17053278804766114 -0.2839099528199368
P 0.26372570162920345 3.253803256215304 8.317599830059988 -0.06900069553942954 1.3195886156229983 0.2545533540346906
P 5.219124019115085 7.266772805367601 3.204856024479653 -0.45689505906283245 0.2651501557139304 -0.647427173050556
P 7.876044490188609 8.603463073738963 1.813483811644818 -0.36917750384019005 -0.5377819645168868 1.5810368970053092
P 7.21079196508828 4.71801056726118 10.514323452229148 1.60949463812537 -1.4216418707420226 -0.10475856986532926
P 8.344182420690645 2.014497863191328 4.045337626689789 0.4521562588262664 0.13223826334283678 0.6295132688846126
P 2.4094748175697465 1.9771465307754095 11.831206251784 0.8303909877727182 -0.30760729643687673 -0.09809118514748268
Ni 6.981126505908046 7.0384459381795335 -0.16074181908699364 -0.2145145929452499 -0.6504934706807055 0.6417792307361592
Ni 3.8614040089633312 5.8852627844309175 10.330148887944098 1.140610010800829 0.33079993250325607 -1.065379532301604
Ni 7.518271161523526 6.831619627886345 10.88749705097239 0.5945161839841375 0.37007404751253037 0.557041326967131
Ni -0.02719188077881575 6.07256411497629 12.885953043096208 -0.6128874874024736 1.2816645868837153 -1.303674258385587
Ni 1.1926300750074443 7.7519616283491715 2.5428881271780344 0.8553908522511655 -0.9699134434817942 1.0883831922856289
Ni 2.647587253804 0.2616956576355652 6.50841243712658 0.2965669794623151 -0.8235600808938139 0.2954860876933105
Ni 0.45494772196128824 4.293704600750934 6.262774344395674 0.24934275636802866 0.5341556806182092 -1.1702383751902232
Ni 1.8683974709979694 4.0073751577919285 12.000612915311324 0.052282611453800275 0.9218592682870445 -0.21269656589990465
Ni 7.120746266525534 2.4800601580670563 12.648191410280592 -0.5433183209540836 0.5106938500508431 0.6971726199047994
Ni 1.7258605030044487 2.232771442934774 2.1956970605862 -1.0869552015898505 1.1785407244083317 -0.36735150637504477
Ni 0.5142898128912851 0.2608038784187145 5.598616695228248 -2.6908288939840173 -2.127310958153607 -0.3739962653850721
Ni 5.4952432362579735 3.569314004603552 9.635280245808794 -1.2010813287130089 3.305605113768771 2.2625093325660326
Ni 3.509982068509358 8.895977734868671 2.9312478212806914 -0.3339952995121022 -0.9616974833299051 -1.598301854733344
Ni 4.846755421900923 7.305102694688138 12.355735831831918 -1.311080321041671 0.7124179760996441 -1.0192912225839736
Ni 1.8917443616751464 9.202229119338687 11.299853545243593 0.03799242008337328 0.8025287141448114 0.483532973365335
Ni 2.049753606764337 0.7360778889893379 0.27547853932043087 0.7908502493656187 1.0185949678478972 -0.5885753930196702
Ni 3.515825714930336 7.617197725579132 7.8713160293721405 0.7061725094105644 -1.4288077923628426 -1.270763109479863
Ni 1.5387345741683953 1.9425554673640284 4.80406079951903 0.528315162677032 2.4221838377429505 -1.0926699925864407
Ni 2.1832527708935014 0.03811017560044379 9.154581706585775 -0.5269023414899054 1.092506213315067 -1.731671660577463
Ni 8.552762748077019 2.402172567460752 6.30683525377647 -1.3251316569284146 -1.6702973712350395 0.501942072000142
Ni 3.4879830014932596 2.0334874061422785 9.16056752070799 1.2858341448803725 -1.4836620211985612 -0.20255793480400597
Ni 8.97993976361874 -0.1554945384776985 9.973040239440643 1.23163169069604 0.33770411582225707 1.5318208402919749
Ni 4.116595032683856 6.266429162117737 0.8784560722775808 1.2106406902666698 -0.36550956807029955 0.587159229398434
Ni 8.608660503336136 6.458660203861848 1.6859898481425823 0.31718285594045376 0.36667967711900074 2.1558843989159255
P 5.4068592380992975 1.8820788043248087 13.801842609643021 0.6048515044718745 -1.56280726137116 -1.752816670086194
P 2.6416051323493503 8.021009387105854 1.0035507250297182 2.034143692670303 1.5733325863825163 -0.4847323929900748
P 5.910354460532368 8.00101359224355 8.306763697091672 0.19256354259545547 -1.5849971672046381 0.6594871895388836
P 2.029360850138839 8.45511938600011 4.429671389980142 0.19965438800396582 0.5046466154154986 0.19934945516903732
P 5.510964768414254 1.5682943780230103 10.18503536115738 0.13484690461027743 -2.098723633434218 1.0744367574078657
P 4.00029446773681 1.8380714386237003 6.868736475911912 0.92961988606907 0.8658189895630249 0.3435690592434663
P 0.30751519994400045 0.6355930192214704 7.666103414804681 -0.33586192040719576 0.6530188082057206 1.162835654968249
P 2.314462481132615 7.189097543146261 9.802443613790626 -1.6962148624317497 -0.0007255653121148795 -0.8090174071929485
