# total energy = -340857.51613228704 ev
CRYSTAL
PRIMVEC
9.40056726695054 0.00000000000000 0.00000000000000
0.00000000000000 9.40056726695054 0.00000000000000
0.00000000000000 0.00000000000000 13.75868041907697
PRIMCOORD
 96 1
Ni 3.8249122884652476 1.3425326411527594 4.378796543345812 0.15877410484983623 1.939944129267743 1.0689955317876363
Ni 1.9336779252723142 7.521647839621004 6.0717879797270475 0.011331880073051451 1.9328820802146387 -0.6233274517888748
Ni 3.7269207732680236 6.149240195082137 6.380340925334822 -0.8702518285233981 -0.17354920627648174 -0.527305490465595
Ni 0.3749472734603225 6.645270537647057 7.816031309897161 -0.3022439752424343 -0.4997651189534812 -1.055710641753272
Ni 4.321572469049951 0.42066693329931903 13.529997969961498 0.3017359252577642 -1.3812583247186534 0.6931367592725288
Ni 9.703829765683668 0.411939446469973 0.49208022411846253 -4.007495707974531 0.9561266741103469 0.5294351352140881
Ni 3.1535143599444355 8.922802419450843 3.284280013532259 -1.136474648476217 -1.0249977860504478 0.021329357605395526
Ni 3.252568139264577 8.297382666374162 8.62688571662205 -0.5485687707197455 -0.11859367597620865 1.0472542834558027
Ni 5.339324905046446 1.7623243816216043 12.038033908473446 0.5049497484782143 0.7126853708284178 -2.2933510005372373
Ni 0.11245710840381357 3.9638808772181795 1.9981178751500437 0.27198183392378317 0.2531032518517254 -1.8173765562454507
Ni 6.2254505954758335 2.260065627464143 3.498928810674175 -1.73787213296122 -0.3361339431216598 -0.6473091594154529
Ni 0.6780986530059022 9.158794264952677 7.125442122907898 -0.270559756765276 -0.1547654979110754 0.70312446661286
Ni 0.9019694068255313 2.5600659367973173 9.466481418297438 0.774145535016428 0.020628989104261246 -0.7794792885245156
Ni 8.147584623907953 0.18585297890015345 3.1558974037954046 -1.0328039123584278 0.4784735565645566 1.092538609214899
Ni 3.9079004979972023 4.321628872454707 4.468681949222759 -0.34474276783659336 -0.6087945482800224 2.0607427833150704
Ni 6.352508665257652 6.174875542544035 8.808595865442827 2.7916346498491857 -0.5176054895690119 0.06525871199849406
Ni 4.265009254646488 5.941910679764142 8.463666483993995 -3.205249043846512 -0.8929261301924621 0.8331677791869071
Ni 8.130503792834146 7.855678203157358 1.4121494835304036 1.7834228250078255 0.4680045387124327 -0.05146140110408556
Ni 8.003774742913409 7.883391076027793 8.456223114679608 -0.06697492335865239 1.429432570431035 0.7984604576127088
Ni 9.10972330281439 3.8472480367488817 10.9752583946867 -0.6357157981508987 -0.19792429268673653 -0.017300181841344398
Ni 6.659286783729085 3.914997926429081 1.4989947458909674 0.6306059877281591 0.6090107780558867 0.33622778838704676
Ni 8.738212876817238 2.6867479838807586 13.535927847914914 -0.970724883639496 -0.2886940044721415 -0.24200354239413804
Ni 5.836943943512011 8.132769329591872 1.6701941202353425 -0.11683606985515362 2.789374135949783 -1.2621645691775745
Ni 5.30959091017223 5.415967731543277 13.730048625895646 -0.5928210556699016 0.5988202106761299 0.9049077280343706
P 2.523638737891979 0.7691478491343283 6.006572483033914 0.40581700944009463 -2.19705727360981 -1.512530110383163
P 4.255900104778289 7.542911923214261 0.2887891925810441 0.3587370252331564 -0.15624645333197607 -1.0024435548990154
P 6.349481682535712 9.209707738313016 7.860292941723198 -0.8022428074732764 0.10750836469632452 0.7260121698443109
P 4.921244067855219 4.233695964439086 12.098888481922145 -0.7201220296121211 -1.2335098815553596 -1.0079380023546836
P 8.821041276702383 1.2914029547408539 8.15924132755766 0.3735540356413309 1.096597352665305 -0.4264467698753043
P 2.2504300458182147 4.275857509494684 8.30581309527179 -0.484362668355482 0.28850194306599347 1.3156658835298245
P 7.631850691948042 8.285500349105428 11.865720566885127 0.8206236239733093 -0.3964119140761108 -1.7311414991056056
P 1.1712166997718871 8.319784218630012 9.437326498378724 -0.38719219525005577 0.4799686530528443 -0.2308830070009443
Ni 0.45778977419665573 8.6306985867836 12.183752104662258 -0.29543389429913636 -1.6967864186645036 -0.6183981328080576
Ni -0.04350300603206005 4.004801547369131 7.768908145336471 0.3003655272727988 0.08682615375662465 -0.8820009986395263
Ni 1.5723389132662802 3.5746221798576023 3.843198272287354 0.03642044761056308 -0.1378530384264529 2.7269202403899357
Ni 1.5590371103111695 5.294785016423609 5.924391782246726 -1.0763704840954689 -2.2427185230923508 0.3426820286528227
Ni 1.709070166963865 4.21257288935772 12.277929809641186 -0.8997485524309344 0.23130261103686617 -2.326204556732148
Ni 4.9910338806741175 1.3471577203428047 7.169029734047093 -0.7834696406308314 0.3030281617066265 0.5383033842379956
Ni 4.120268717473459 2.877946125438351 13.7381255934568 -1.9409211484690314 2.0164850990482757 0.17197671958303928
Ni 1.662903980170545 2.848625755532351 0.12587923862240497 -0.6172028269483758 -2.8550707068166443 0.07250639469984287
Ni 5.184431755017219 3.8191027377753124 8.217261629917338 0.08495876153058272 -1.2662896470895417 -0.17283958180396686
Ni 7.416173472726063 2.889349013766654 9.093249748398462 0.47444669479335067 -0.013552284763137948 -0.5306828915782602
Ni 7.259917240415217 4.478806360376578 12.328616729325752 -0.6508889063469113 -1.5068238040270048 0.6569621091241846
Ni 3.583797133698018 7.001044413717102 2.224778717391635 -2.4140349833835715 -0.7080956945752063 0.4665266686153256
Ni 0.9581622388710922 6.163717068969677 1.628312712090036 -0.1121116677962908 1.5944182034082217 0.9564989698481011
Ni 2.4627982652944707 1.2923336109193388 7.955943715623021 1.4441557355738226 0.15862420953553324 2.6213358321892017
Ni 4.213428340996529 4.147116738137624 2.3963635150018474 1.0041813635257286 -0.42515761875023544 -2.4107637688314676
Ni 6.394707812583088 6.3339895473625525 11.396521323962949 -1.5129414868889683 -1.0500596141150818 -3.2630405009336836
Ni 7.416511893154603 0.4177715585218108 13.299416151032572 -0.0030778675943753447 -0.24254501671990486 -0.14125100836440835
Ni 0.5517569064644927 8.860880881595499 4.237316122967718 1.5280606019185943 -0.7045817678846769 -0.061012792237946534
Ni 3.1352114551009023 3.471789372418766 6.61345337702383 0.7497185123223153 -0.9412926944213078 -0.5172298513971479
Ni 2.691081645479562 5.216722704240403 0.5580947690456486 2.097626029494665 -0.5316678811993488 -0.29401721645726786
Ni 4.571552358931434 8.342101165778727 6.804589474836189 -0.8814978337508624 0.8305817636272856 -0.9445086302554442
Ni 6.501714471973917 0.6228139157769234 5.34173897077003 -1.8908450577482467 0.8878201764244645 2.024603100169719
Ni 0.9652972695728087 2.1228549448261265 6.414118104273344 -0.7053849805122626 1.7339164907475817 -0.2966543969697988
Ni 8.967915742688707 5.229939902088378 13.863384394626882 0.15168480210322263 -0.7872753875301668 -2.446565094800793
P 3.3733560305509482 0.7167302849804794 11.503743256348598 0.668565754801384 0.8288046171222049 -0.411440269164143
P 5.554842314621615 5.135219784367039 6.527035840482671 1.8792527249249569 0.20231342289336773 0.2816689793045601
P 8.70769863484389 7.926925103932469 5.770322121926946 0.2853623689957473 -0.3117202901639857 0.15205452673781555
P 7.8519367773085 5.742928868350132 1.8090461419517774 -0.49479723342524456 0.4012694992787283 1.544617734946327
P 5.25585726657406 2.531958240093586 5.464122138354269 0.06079219158670821 1.2973100067304562 -0.9961572076696715
P 7.153117393508496 2.4980503932673783 11.141023300982772 0.8413449156810607 -0.25952946709304336 0.8199659357846523
P 9.03842939920198 3.579266060182567 5.415953630692088 -0.24276793136398833 0.7556726730232212 -0.2765771666039495
P 4.608985418554933 0.848863721133651 2.4178127897740564 0.9837408362831896 -0.5246143167866771 -1.3858906812843421
Ni 5.759802886939831 8.724450446056617 3.9360279358925987 -2.24256914199868 -1.0169993412260032 -1.6840663999946741
Ni 8.817986092278064 6.305628035337415 11.234224287002665 0.7458595435875414 0.25097412132386454 0.2945970002201378
Ni 5.556656624141287 6.128088918298392 2.301799446700336 2.6717335679154632 -2.7784778007522535 0.6832210428207137
Ni 6.611146477769282 0.1553406170402964 10.326068366732073 0.47666041461521774 -0.19112681014892888 -0.2054529969636139
Ni 6.64640800630965 7.557228987454991 6.450523681873525 1.0676824694031677 -1.2222715896373788 -1.1364129420003461
Ni 5.2037311200114535 6.277839957927305 4.6211694940391155 1.1135784606043337 0.9627536925085611 -0.19902703883261208
Ni 1.674325669633767 1.4115234057376047 2.8863652736550276 -0.33137097451537767 0.09127493355659765 -0.4260035116902986
Ni 8.401014522047051 5.693904909049141 5.886087290019737 -0.7052636244430499 0.24221565840494416 1.0616635169025974
Ni 6.992151476900469 2.9783347853377333 6.624515964810101 0.912390152454345 0.4570138440288839 -0.30238101504093085
Ni 3.2421899127893528 5.836520917976337 11.721281787927545 1.8490759442312608 -0.8038260927999962 -0.12401124744735419
Ni 8.529802296241408 0.9457064869873314 5.598820049310376 2.1562710928313833 0.34466254941796126 0.17896652063731117
Ni 7.292302195312995 4.809161102036291 3.842758325730253 -1.2406012411845022 0.30391262119410883 -0.28253209863580375
Ni 3.297267837534224 2.9761726548220615 9.832709665439127 0.12695773167018778 0.22642497122959068 0.16315655018824804
Ni 7.2147569143400565 6.784784359312637 13.288574476581598 0.5962372804403021 0.4866087840771813 2.714419279709448
Ni 7.595686708931569 7.405297016175488 3.7362931390250873 0.6356592338813504 -1.7230718347235938 0.8812260681467146
Ni 6.013731015154279 1.9925160770009622 0.4908647307459567 1.369266699574416 -1.1447939669751899 1.8623693189060568
Ni 8.409503234462928 2.813815454230037 3.407378564300161 0.3389639563712872 -2.1240353727261287 1.6480336747408328
Ni 5.353858182338743 8.283018599296135 11.89388372693687 -1.2089028816399567 0.7920512116522552 0.9467881703182405
Ni 4.652839065753229 0.9311826102624935 9.484381038796961 -1.2116459916027325 0.09599984983609273 0.34324612868640886
Ni 0.13688448294717376 5.48246734575137 3.869202121993663 0.5352972504218201 0.6870270468303652 -0.42107959202611994
Ni 2.322889619795594 0.29030456405550614 0.8337222271267278 3.409205144549625 -0.16949946168714036 0.8804727349204579
Ni 2.8939552918217806 8.01552545223771 11.205234817071236 -0.644478117724561 1.0082187668198959 -0.8708244131974164
Ni 8.787312040657905 0.963623968565028 10.32710054903912 0.5681117258486796 -0.20728979306203654 1.111683814684782
Ni 1.748364538944333 6.283743514291833 9.539581170918805 1.2923446923053807 -1.4664780532201065 1.3954508141689517
P 0.7622920152861572 1.2878965430784821 12.291606695237927 0.5096217000325868 1.9260977103029535 -0.695048631583261
P 1.4015682047980556 6.224294325678322 12.890728360846822 -1.0835803715803467 1.566752104951521 -0.7197497338743669
P 2.730216207813219 6.322539656196951 4.396311680636244 0.5140414263668373 0.22082202322051647 -1.2454624259315454
P 1.0896667770612272 8.269603989531511 1.8459057669602499 -0.04899982693747045 0.31089933692458716 1.7302819793187878
P 8.515757848457001 5.243025491991921 9.266842507218012 -0.8182196425175069 1.00250834669868 0.4450103918101046
P 7.945049397994274 1.41514262420949 1.592374342692589 -0.5545671543950256 1.8954614734743356 -2.027885370465417
P 2.249348980560379 3.533692109139192 1.9174506657238255 0.8582938848305735 -0.09743375406914188 0.5451178360566676
P 4.7232399154569915 7.049786355994309 10.12349929877554 -0.6802948703128542 0.9680568498890296 1.0847594794901125
