# total energy = -340870.2648282161 ev
CRYSTAL
PRIMVEC
9.29812182449293 0.00000000000000 0.00000000000000

0.00000000000000 9.29812182449293 0.00000000000000

0.00000000000000 0.00000000000000 13.60874115870513

PRIMCOORD
 96 1
Ni 9.102294181064197 1.3929144533913789 2.4062293598655153 0.23279127976725073 -0.7370720272028982 -1.1381466368620012
Ni 6.827415670412189 6.229750989190535 6.2592316145721805 0.9131198315315177 0.33731562213458677 0.1195095029222587
Ni 8.96943331684975 8.753428646364355 4.154054986833652 0.6939566840706629 0.8644321365178274 0.9612848212725187
Ni 8.40791973368015 2.1042672714140713 13.352815323265757 -0.07296739349666143 -0.5044442695967055 1.0101787187597442
Ni 6.5890025260828 4.151220919270312 13.37948884563765 0.3463543352980874 0.37432125282465856 0.3380195901801469
Ni 4.481434421384656 0.20053073597453502 3.756434749809752 -0.8615072495615484 1.2644096564580094 -3.135793263047535
Ni 0.29576581999931284 5.596353625403543 9.245601485263593 0.17966663202812927 -1.482554132846363 -0.9524057736153341
Ni 4.58983192680925 0.2673405314563787 12.995680968736263 0.3149318551227479 -0.9487542929056758 0.7714805865897552
Ni 6.708846019599492 8.386097041517555 8.999066431430997 -0.6324237576631883 -0.5630026867568885 -1.8805822423696579
Ni 8.680317513652605 8.031448074979139 12.3856423468542 -0.5831606497620022 1.2525486433543656 0.956095049541463
Ni 6.098015197729252 3.3975709446018416 11.20383152388051 -0.18349551885591622 -0.6435797742800078 -0.10929990937910854
Ni 8.38758474102587 1.35212359249777 6.0506645118161675 0.31737620289818247 -1.60575162614317 1.3738509765109888
Ni 0.7985124831538983 5.013993652873679 4.879291760517693 -2.116648850454071 -0.5212906517300829 -0.6843530995426278
Ni 4.518022531167275 5.144306831680136 3.3703813764630017 -0.879807076312001 0.17602389306921945 0.37011698493532386
Ni 3.193598043889943 2.672559185468433 6.875735220630063 1.0669404490308205 -0.5903587101723381 0.26756236469984884
Ni 0.09412953732766129 7.906611489987665 8.38934022644568 -0.7442903993282085 -0.23142448132671112 0.4389091640083731
Ni 2.4017792787112686 0.9901198115151221 0.7301275858176263 -1.4378279935835818 -1.3597219933087743 0.9878597435475697
Ni 8.391675914673735 2.97807687574475 4.545319957520468 0.4065289479054547 0.18301369412349125 -1.1134033684790503
Ni 1.2719737814873053 7.280829288058861 10.715182673191595 -0.10072553744653621 -1.4553557180546999 -2.450638236428902
Ni 6.488778069832012 8.711531308961437 4.7638760326626235 1.3349303881863912 -0.2790742219941903 0.861961820600464
Ni 5.676522032657862 1.515156862365228 5.497918127811503 0.05033268681628106 0.11391092578855866 0.3582022357756089
Ni 1.562093781852563 0.4283012499463157 9.39147414130264 0.16464496180831645 -0.7678486462641227 0.4904970633879939
Ni 6.566408089800268 0.6203995191452834 1.327234379723662 1.110631462160868 0.37111431585158666 -0.9974689845025597
Ni 1.3042475626958114 1.656162881387699 4.509419908760444 0.1043965585402202 -1.1682138885610267 0.034202871133954
P 8.398510034290057 4.749899095782005 3.2948666792331305 0.30972691388304074 0.0912484511940364 -1.6112473591504186
P 9.074529988990271 8.893913970558916 10.416498172719407 -1.2906940440758352 0.6703629559111229 0.06478460057555295
P 5.1388395359870795 6.715828909166645 5.053687335379906 -0.6391644188211314 -0.37918629422644373 -0.35682823824621773
P 8.692488755255006 3.999940475518541 10.602883675806444 -0.41557614570938756 0.03508527373890732 0.6161378760189712
P 4.350005467946962 0.8003888441587605 7.51835353193203 -0.4018004320815339 -0.3881774419814605 -0.116926829796747
P 7.602637287951225 6.400232054721495 0.05560462874765446 2.0916487288653074 -2.185461341242094 -0.15527817588143578
P 6.433417051878844 1.2699746852730072 12.607886057152589 0.52977040706632 0.8899819599624736 0.07630982760633308
P 7.3205229705650865 1.108122276890274 3.5058299080097237 -0.7984972243879151 0.11680367395532142 0.48450407902935266
Ni 3.915848260811042 8.043042833022067 8.289547203052305 1.1826408626196343 -0.03246711938976989 0.4914712543758052
Ni 0.5743552193629375 6.50755097800256 0.3803536246055194 0.4855849707983572 1.0216355544464342 -0.24112731043677182
Ni 8.454019822194056 0.921189114421737 8.716956763105824 0.4122349971512965 0.29871307927104035 -0.32731248817528785
Ni 3.332149358723694 1.9239301966405256 9.150558872362703 -0.19555193579981806 0.06984967380328616 0.6112327254078699
Ni 0.03112081408956214 7.111147861013619 6.026072838943722 -2.3904158013027343 0.9804351689487244 -1.1655437979280314
Ni 0.7875611551483154 2.821217558836799 9.339910476344444 -0.4246637098329525 -0.7448259601167043 -1.134215420128395
Ni 2.4357360199885565 4.663212705056882 0.7006432411872104 -0.8151901116625638 -0.08756817412897178 0.329262155702491
Ni 3.154434354333553 7.329728111272785 3.080080062720168 -0.4270887743346773 -0.4917918709400176 0.10271351441084246
Ni 1.5850508448902474 4.290748536906395 10.926689842100915 0.23826412995636384 -0.3136861556411049 2.153773008999878
Ni 8.740355486935039 4.301766811389851 0.9182964686902573 0.7621377119222745 0.34202331202290126 0.3063448847846853
Ni 6.968775018067885 3.4013552802261176 6.60750671852966 -0.2356014955225362 0.34612782110957807 0.018011863196388336
Ni 1.2019310290114547 3.308801774565077 2.612361284488856 -0.2029222601219602 1.3288844391026275 -0.016407751934062065
Ni 4.343933794328652 4.600664238854167 12.6536802374551 0.07122521399457411 0.9619571647491948 -0.45175182429899613
Ni 6.375257299225659 1.1422556824841736 7.635116557654317 1.642275946321449 -0.17361836895152033 0.2509998323554774
Ni 3.746120343156167 7.872115457638614 10.901037253516602 1.0743963910882335 0.6624686407647107 0.10984678302151404
Ni 6.72627070009063 8.885554958946571 11.197108981727313 -0.441142424214266 -0.6720817383744426 1.1907673483815104
Ni 7.860260352181729 1.6941085169716559 11.009022852139832 1.1831671674367494 0.5198138100742402 -0.7475731838445383
Ni 1.4512973609708115 5.790851739871861 7.073429099604681 0.9425803028844798 -1.2357973920379555 1.3600323254603417
Ni 1.0800419486708304 3.3607224874052672 6.7112049531323645 -2.001924427625281 0.2097557381040258 -0.2846751131207355
Ni 6.118638432163268 7.658091287123663 0.7090320067897211 -1.0348674797556758 1.4031805787130414 -0.33529962014582254
Ni 5.975968049315869 6.67082599904012 12.271465128839802 -0.6189491202155212 -0.7990086168066949 -1.3521344107695037
Ni 6.335954137840365 5.684239473857246 8.475728147456948 -0.2665622055701087 0.08077480535622217 -0.712949680233398
Ni 0.56340575098174 6.517286111660096 2.676893969910785 -0.7961783464467513 -2.4623940914132496 1.3649840130386621
Ni 2.732857506164821 4.333538494014301 8.83239945551448 -0.9706202397408316 -0.09355344517812919 -1.2764349630536598
P 3.3666267948288917 0.6457620063254741 11.285442999657896 -1.2465790560344918 1.0729414038092617 -0.8537288911677104
P 4.830560303498452 3.5598324703493613 5.7448353344552965 0.12230326361731196 0.7948506287742634 -0.07240792144876562
P 2.7167996495969473 6.491046811582192 12.380647395755032 -0.3328077069619042 -0.6079008328211595 1.369402710931648
P 2.909317264094821 2.0715843728407783 2.7807558514594044 0.02447124566848689 -0.9963888640645033 0.8838239107808779
P 1.2328658806624775 1.293954541722658 7.302968116366971 -0.7787946037526652 -0.34061280482861983 0.49860298032458
P 5.523037934009401 6.67493576893184 10.102490367311574 -0.12890637075612638 1.1478600074950231 0.3011373724418169
P 4.785975808858641 3.842606954392314 1.1869815085772755 0.7853876835891506 -0.2313236940827887 -0.14676396776283757
P 3.96814089852831 3.1911154453354422 10.801312106413294 -0.011041859636458403 1.6315953266791512 0.18143606522372624
Ni 2.3461207208564376 6.6659444850284615 5.052476719905014 0.9519949113301603 -0.4348193102097157 1.304444303782392
Ni 5.553526475807928 7.367562169393619 2.976313022015204 0.7297734366589561 -0.11090839151680898 0.8854763587826363
Ni 7.748097107376713 6.573651326781377 10.174697722572024 -0.3953073681580224 0.738075271656432 0.9054178349015697
Ni 4.275945926798661 6.063463376648638 1.0966874465444887 -0.19962893408266907 0.3512399455251628 -0.610107096443859
Ni 6.550926716791866 5.418257398014396 1.902556603767004 0.9975715715186949 -0.29076991316456374 0.16398598806807888
Ni 7.71489351397551 6.792510520698351 3.8345352547475136 0.08396991525475217 -1.5873893215858985 1.3369682445520263
Ni 4.62945122434006 1.5270677565536743 1.5056439538217472 -1.3740034429284531 1.2000168920042367 0.5739255043169793
Ni 1.957626590503858 8.3833540955491 6.930455597982465 0.04778318092154996 0.43427500767047145 -0.19648910290210678
Ni 4.142759628316771 5.573963747803404 7.062637699296243 0.29070872090932515 0.1260781572787119 -0.692035298678234
Ni 1.1518699405566588 1.6766838364805177 11.748971114336722 0.42250398317747234 0.012939076659171263 -0.16553842015686332
Ni 6.994660989512564 2.9122089800141078 2.0026350795035395 -0.3242009391294997 0.18599334557710548 0.6476742560643556
Ni 3.5213103512059325 5.5765207313333205 10.595997486707331 0.9104366282723998 0.04599909243793368 -0.6822018575275799
Ni 4.939692360555277 2.6578402584580427 3.6831106901058748 -0.5440698544081276 0.9081848561237457 -1.1582722039672826
Ni 7.290517931106761 3.6312048542607682 9.029236977459624 1.2822536266179658 -1.139346570707373 -0.07579149320901786
Ni 4.237256441460547 8.660196377802647 5.707614952381643 -0.9705549337205348 -0.9622489849580007 2.4015849305456767
Ni 2.6362872118313305 3.649596539432311 4.738169514971134 1.7195856759472061 0.05209646358492318 -0.6919779630777373
Ni 5.547278137873006 1.1913032756489301 9.83175788097624 -0.3009975044298429 0.5357513072401031 0.32758271111753906
Ni 3.4749313190342157 2.5323342086878275 13.142315140961127 -0.4683426387781418 0.2994111337793295 -1.3539130999364812
Ni 6.570796803349797 4.570491833201156 4.425113837248625 -1.1267522789821305 -0.08099232068366696 0.13174435442555377
Ni 1.7928452737141296 8.589400477450711 12.288529972012366 0.9132753832727756 1.9776467860248392 3.0179104970954223
Ni 9.108282171585165 5.830870856645532 11.889059408725 -0.32124699870749834 -2.6210023601091827 0.20297291085423752
Ni 4.9954996883609395 3.7235166087517073 8.533755866778773 0.05996429636877415 -0.8183119451209971 0.16496634970347718
Ni 1.302053205921047 8.475786725625088 2.3959409879533258 0.28640880798239066 2.9972550256285997 -0.48514068417208706
Ni 7.824053465398117 8.24976797782435 2.1210587498019833 2.26515602616026 0.0668150007420204 -0.3877966616032741
P 8.657964828540175 4.8300210124266885 6.787168749651308 0.19127850523544476 0.46938110734498517 0.19717944410091204
P 2.258960125913039 6.752956310021029 8.819498311340812 0.22204226878086272 -0.5772129168189994 0.014644746496368329
P 1.106913521039768 3.3145201195501626 13.216660134452585 -0.13956410758028867 0.04015934582770503 -0.09602221843359592
P 4.185586777912386 8.233942574304649 1.5679311427983136 -0.18961602993135732 2.6210036456607635 -2.050470969075417
P 2.1229007077557154 8.776181150719646 4.73416853310596 -0.3998237679711372 0.8103903762810752 -0.8194203476938273
P 2.3045860102086713 5.2715609283726215 3.097621899547586 0.3611227518565135 -0.5009701950051759 -0.3708806025742258
P 0.3976295351458261 9.230161953803863 0.5888751665640909 -0.29926972310545885 0.008139855498315014 -0.6461346794913775
P 7.555709666585818 8.286160827046501 6.938539385185769 0.7015254975568563 0.7239717423755144 -0.07889790004848347
