# total energy = -340866.50739937805 ev
CRYSTAL
PRIMVEC
9.31341841380630 0.00000000000000 0.00000000000000

0.00000000000000 9.31341841380630 0.00000000000000

0.00000000000000 0.00000000000000 13.63112926336588

PRIMCOORD
 96 1
Ni 7.375398417864592 5.147898844049994 1.680445214312008 -0.9397088948739558 -3.245540544376707 -1.4210960255408818
Ni 3.735816984699898 3.2194438191799284 0.6745811339205947 1.001740872405036 -1.6488803390118443 -1.1461291408468455
Ni 1.1941571840019651 2.2344008167922027 0.29220663721152756 -0.3787679757421025 1.0044173907959348 -0.3366512490777105
Ni 5.61612163683823 4.6585532185043945 3.1735174907438117 1.9420102677681523 -0.6731857700718986 -1.1560165751638865
Ni 7.181316093424244 3.0338087651588617 8.888695713527389 -1.0113403431680132 -0.7512827714856416 1.7054739191361723
Ni 3.5762874422391886 6.297239859079986 8.773076144435791 -0.8264831680778798 1.1328874453455908 -0.3487246353024768
Ni 6.303656804304776 1.811804460370072 2.9980573462410076 0.8922756410926569 0.6700305122723687 -0.039093880677668155
Ni 0.44682148882300343 0.413336024583221 9.343388903517289 -1.1104975076861647 1.3974886705345868 0.7827484461940907
Ni 4.084287844686464 2.037496526599879 2.8432217666152684 -1.5872741361642728 0.04454667626212328 -0.344208235489362
Ni 5.971624127658927 2.228551990085137 11.551509116484656 0.14705424530974676 -0.9110920024682116 0.9124063504042608
Ni 8.406710482482735 5.502609694313206 9.47738291561903 1.5197178863808536 0.19772734618458204 1.8327777212918694
Ni 2.1250333454210715 4.968131243572639 13.67188575274405 0.9183898216812053 0.29668370754583745 0.1787991418215114
Ni 3.092669568962451 0.31457187997322683 9.245218023654493 -0.599430076345987 -0.6094689486392278 2.1799648369038973
Ni 1.2268193420619633 7.349432607579085 6.410761115023331 -0.0357200791094288 0.6792983107275398 0.6282266888627052
Ni 0.21278832514280174 3.3954115449813553 9.85887729429654 -0.5789003318237514 0.03238124454418294 -0.3780123285230006
Ni 2.9439529051751543 9.304542635690586 7.084397868325938 -2.0586473342386222 -1.3280120638000033 -2.213011997166853
Ni 5.480518266050214 7.913406654149711 8.095036938291734 -2.6955419831889706 -0.764258100699387 -1.2905220372743453
Ni 3.173575233937416 4.368654446353394 3.5220926610155994 0.8345988552064788 -0.10364965307186665 -1.178887052004157
Ni 4.626440552125474 7.697633378434273 5.082284880620141 -0.40036627073816855 0.8420522261607304 0.2381108922079512
Ni 1.9916651950306603 5.583971716786016 5.0150149914123965 0.060304196206696144 0.6287725340638461 0.5247814384921606
Ni 9.370043906758726 1.2166677160895087 12.138765777521831 -2.3252308799649692 -1.1268810912505107 0.5611430078403303
Ni 1.153783515570231 5.781052961926483 2.352010663379501 1.2380026272193905 -0.44299053316659837 -0.3078332964047537
Ni 1.9226248249996465 9.10691189886904 12.524867504243902 0.629092122186794 -0.32601073864472885 0.2083971671936024
Ni 1.7117224670673237 1.8131828462819282 10.887142008439282 3.215737602082662 0.483800882314741 -0.7532766619872189
P 0.5866168291983604 3.32072724344639 11.964573189252834 -0.10150663858693486 1.2313671241807438 1.8732399430719737
P 7.5408699212156005 8.771582272136726 4.047845370129017 -0.001692300100758376 -0.42448604660450767 0.3139206402494142
P 8.265006822692923 6.599264701887991 7.595660761211884 0.9557304671131928 2.2180796414977477 0.49985356490222943
P 1.9892250794299418 3.5138037187078153 1.8686507717903202 -0.2810316028308773 0.2259755423969979 0.29708274275646895
P 2.041724818518681 4.445862684253988 9.513914798992381 2.0627173905429377 -0.044953167671922575 0.46821125540660014
P 1.7223863310475622 8.314228238531841 10.517902225591639 1.3394521873161447 0.05846200079163479 -0.22393485781788527
P 7.8112943356524704 0.7582770990252364 10.604378246065801 -0.7944873318975737 -0.36299965716425225 -0.06912873647686159
P 4.962720147526771 8.006792299677969 10.112157568283783 -0.5665574939876823 1.358715663531447 -0.742415808013315
Ni 4.07591508161377 4.198116443434481 8.121358521157195 -0.10804341126418811 -0.05427933016885491 0.2560474220817138
Ni 2.8904845705807864 4.299027330968008 11.436326346712423 0.02213616977740704 -0.3375948439379025 0.6260381658518187
Ni 3.35934067581501 7.6931536242207414 0.7030597044697426 -0.785428564129415 0.9529179373650623 1.9697095334556338
Ni 9.189344964449036 4.935254876891205 0.04051709507391376 -1.279748600807925 -0.7726324408060113 -1.469238389574063
Ni 5.437825556455965 0.7303405694225076 9.751532697385242 1.4596067800215702 -0.18523589858579068 -0.5786141680419002
Ni 4.215569789372444 0.5827480352268396 4.900785915676475 -1.0583509075895967 1.6981642728486366 -0.5743191402109722
Ni 7.97138268321258 2.57695765614344 13.751901054927304 -0.33218447155560854 0.1698470748345462 -0.360193812284341
Ni 7.748140046001816 3.924450959421084 11.399045664505874 0.3340996863004504 0.8704282062002622 0.5833449978586662
Ni 8.614744307571465 3.0589363677952677 2.4844372271774215 -1.1870839859926523 -0.5742481777637206 -1.511127059388049
Ni 4.055826038290298 2.6879456623028344 9.958043778578103 -0.3276742423900808 -0.16846099312029697 1.433211063636861
Ni 0.1048281112803291 0.3360998464276567 6.861173857951821 0.9897230220085537 -1.2202373328161693 -0.24085528772230777
Ni 3.388538242258721 3.6299513586183476 5.992884799007477 -0.5247498139232769 -0.8836115376597555 -0.4940606123695363
Ni 5.713418918062296 5.039974952518982 12.498845813448455 0.10038126673324002 -1.702185735303204 0.850419110068187
Ni 7.5075744507096145 3.4887692502546432 4.606353371485667 0.19801402418706543 2.202121061285962 -0.21495013782077174
Ni 5.791055573205765 3.061236782121136 6.756746223659396 0.11325863691654042 1.2262539713238945 -0.6093151966701829
Ni 6.734812192166068 6.74568095134942 4.648392279113616 1.1987313404235937 -0.3228994467092568 -0.2346864399074345
Ni 1.4290974746268612 1.241078185515016 2.486263588510631 -0.3881072508651574 0.6741944138420711 0.7918771479682362
Ni 7.949812806375696 7.034471426719942 2.334385019202556 1.0840200302209266 2.803174532167985 1.550178002642924
Ni 1.4746307768097329 6.309030646677351 11.530572552093759 -0.36089649477832036 0.3328033360865301 -0.03649809492603391
Ni 4.829761787542587 5.472015115120993 5.141170830653204 -0.8881356507823543 -1.0477330228644344 1.994202119280359
Ni 4.4620121516266815 5.312737034955014 1.3116822784825208 -0.12817669167895343 -0.09018941380190273 -0.4217617056948091
Ni 7.000859299990962 6.760656928013371 -0.0970467502711679 1.1244817377803988 0.10443538219795563 -0.23584137944748415
Ni 0.3888352149999769 7.620890811449848 4.259877445703963 -1.1336834588843248 0.2611022108968019 0.41829817262624086
Ni 6.332817117075193 5.551989438263623 8.834512108405788 -2.4995565593961597 0.058591327280647476 -0.41380568407252605
P 1.091290478620534 3.7539129565021723 6.188914559219238 0.08167674834520126 1.4953466566253408 -0.2010831500306924
P 5.7282458800330724 4.062149849331855 10.458688443233594 -0.42283976925033634 1.0836022259572178 -0.3666755633539427
P 7.748000344726965 1.3547763964065065 7.379634160518053 -1.9644169175981265 0.7997344392291259 0.6875649216117061
P 3.63281989146194 2.0112326869280244 7.987364509055454 -0.5634999381082813 0.8603057730542797 -0.9606867826772034
P 5.799838126684685 8.276927998146814 0.756481471972494 -0.11588013369978752 1.469629968585527 0.9561320734269856
P 3.300749961142798 6.808565151868697 6.60381896344811 0.44612727902336713 -0.3468456731122091 0.41766696680014526
P 1.9258100140662329 -0.012699777225723796 4.444743211371521 0.022923698675708908 -0.10144081834600593 -0.28204693146926907
P 8.392796235507646 6.229838650673882 11.816785073272376 -0.14948162380431676 -1.3806263475616092 0.42683397801139394
Ni 9.076084484218743 0.9789333999676065 4.087607146976907 -0.18906272853104858 0.1513230478884297 0.479370100236897
Ni 8.423232486588361 3.5985651388686484 7.130225474527829 1.3953446276083905 -0.6028128767752909 -0.7067859746248473
Ni 5.3730321051804 6.9643786404183885 2.6879903667107867 0.8347554353890011 0.8236996917954718 -0.44605734501738015
Ni 5.781332364476183 1.365989752067823 0.3392831728105786 -1.9164072224880675 0.04530592302565101 1.022348778463375
Ni 0.9789892804775467 3.3036184939863906 3.8825405769659973 0.7626033387047834 0.9266276362099655 1.022375260825936
Ni 1.193840527778971 2.247020498620346 8.124630325014188 1.3186380787842709 0.472652064786773 -1.3666698853815173
Ni 1.4589562937715304 8.157092244580234 2.355077572033381 1.2436675388146519 0.6855103530755225 -0.3865938995444245
Ni 9.040917016629763 8.136779679217003 11.24189197505945 1.52360128059566 0.60928151521877 -0.012658312193958845
Ni 4.021981076103234 8.857964227085821 2.8599337644546923 -0.7467848836152882 0.4579756937215209 -0.5779629076111467
Ni 2.9196076296779103 0.755817425246039 0.8510797245664524 1.95879288654313 -0.3593191229888715 -0.26423304321629976
Ni 4.383220632611117 6.334242070078665 11.03779306921234 -0.43862377155747034 -1.8294597126622296 0.33792368803223094
Ni 6.800862954915285 8.648635836850145 6.206648239048733 0.794279843872458 -0.33127275837461656 -0.13947900406565011
Ni 6.97579689128282 1.5421251193990702 5.349141324497335 -0.38244336771116066 -2.122356185251493 -0.005728417843344973
Ni 6.836570600767019 8.120797853374128 11.227293191837596 -1.9317934751361503 -1.1640327606001437 -1.080113753187985
Ni 4.713819042835169 8.505460656965242 12.452663366008446 -0.22783290732071088 0.6742075264681937 -0.006101227801731428
Ni 7.40825615770938 0.18160234388705507 12.954234715787111 0.6855949423695289 -0.3162302622191973 0.8760674067639106
Ni 7.447232813392612 8.562887194347036 8.681693815188886 2.487004947983394 0.8416817301951892 0.4142751675097769
Ni 8.824352100356842 5.709190626143493 5.463274472024526 0.0929939731302334 -0.8021021681303541 0.8858689662353646
Ni 1.6117429213661318 1.7987284210440848 5.630801446799498 0.8370182632812487 -1.1925820329927461 0.16553122106801169
Ni 4.9846718745149134 0.83645020706413 6.9470230853728205 2.781473393045468 -0.48395900515916007 0.9754600843316361
Ni 7.695649620331399 0.19716506590537752 1.996142155218696 0.3492583963187598 0.14828477528273817 -0.9823930640060435
Ni 1.003260048628204 5.364165730936567 8.024032368336327 0.02617177329936138 -0.30229565441597617 -1.993716180782876
Ni 0.8056227924138325 7.639918125084456 8.691876175441807 -0.14443120586460287 -1.02135556131217 -0.22583078928901754
Ni 0.3447194150859197 7.198154753752866 0.486788160874007 0.03275302606130488 -0.563199633259043 -1.2923991996924
P 3.20397423134484 6.7829439380611545 3.05194199063443 -0.21450045187786282 -0.7087032462522181 0.03753604927224503
P 3.7615406461089984 1.4935090757511689 12.521377766398144 0.17128714971518244 -0.006862017227155924 -0.18946459195515755
P 8.788551320321874 5.1441455364656825 3.365593704877309 -1.59868134955995 -0.49547934709393376 0.858567193096618
P 6.099515988075207 3.471921276507698 0.9293524861814059 -0.3465422829391773 0.28940748559939833 0.27128635051865535
P 6.967414814791802 5.100381783764248 6.713876559117002 -2.139751240799489 -0.30338554504604526 -1.6451509538763989
P 4.020453675498205 6.260433229866095 13.133906388055735 -0.46243270105161005 -1.5862220407506746 -2.3431617534117777
P 0.3973337092200363 -0.06763218118052293 0.7074472558418742 -0.10383425827884699 2.2416322320067072 -0.29876887220964027
P 4.965169576545813 3.2160630483285515 4.456888840207005 0.1269998977620329 -1.7893872701213762 1.6046987593986235
