# total energy = -340890.3553461278 ev
CRYSTAL
PRIMVEC
9.10264949399880 0.00000000000000 0.00000000000000
0.00000000000000 9.10264949399880 0.00000000000000
0.00000000000000 0.00000000000000 13.32264764437785
PRIMCOORD
 96 1
Ni 6.527018547573283 2.231214183365531 11.768707458986984 -0.9564573179768884 -0.14873343278438256 -0.3766660989077513
Ni 4.567427430872355 0.17696734336281977 5.966840575561006 -0.3635136206861933 -0.2052491084829239 0.5139205845182567
Ni 2.439865119494419 1.3829382590198762 5.002494034259576 0.777804471925254 0.7778448382448861 1.0282324909376614
Ni 3.5632049120864195 4.43744159333983 5.250122516348847 -0.9478803749411545 1.4266753194008719 0.6568975744348364
Ni 5.3752056667598715 4.586661329661307 2.762637795281064 -1.2959825461682841 -0.21150151715053897 -0.22876724620952213
Ni 7.268857189127074 6.308290978240717 2.859013919373718 -0.2393303664373491 -0.08478649761877655 -0.5732536750609353
Ni 5.112230117298063 4.3736775322813335 11.586147447656378 0.2849355658709738 1.5064692489010636 0.6920669232471177
Ni 5.4464976191096435 7.97594191417532 12.430829645905545 0.9428374132006085 -0.315417793620231 0.4325863071141388
Ni 1.9637055143595206 6.460532794258327 0.19648342429207274 -0.2777053666711217 0.27284829568913654 0.1831517623632523
Ni 2.644483581811899 1.5466767215923587 0.17351288780654575 0.8354617174274063 -0.6097178314252402 0.9694838121435432
Ni 0.6036977401665478 9.062898415967776 4.426436489868064 -0.1512140331143912 0.11956581008149086 0.22441282589556835
Ni 9.147070617624866 2.7023309205737474 1.4606685154933696 -0.5443336495924754 -0.4627137226271386 1.156053856159725
Ni 6.842379845984649 0.5821435759723417 4.696139807713647 0.5636241223909711 -1.5133767746541744 1.7981295350903805
Ni 0.6303502984505276 7.443810116114127 2.4486491764425202 0.8448737547699255 -0.017285526553325072 -0.2666712203441472
Ni 7.734139127885826 3.9760919992459276 3.9437166051036354 -0.0041358765452444895 -0.08349966048655297 -0.4836180768799736
Ni 8.06021424497897 3.877856203822188 12.819491851452637 -1.2863118558477395 -0.06838131678787578 -0.30284484205122686
Ni 7.811220365436626 8.809462443378102 7.045016661465236 -0.283802223597479 0.5900213814375773 -0.022151853506690883
Ni 7.117589356625989 0.9021171869801873 0.4733241297573508 -1.1334088650666996 -0.39812555433310787 -0.5058264946562128
Ni 1.6418540267212154 6.471783669271647 9.333501075602449 0.615619798731972 0.3306888608466885 -0.17436270331671264
Ni 8.796327319879543 5.344302171071993 1.3812788459819085 0.6593288095841484 -0.8369182473682748 -0.3892038263634458
Ni 6.151379502933599 1.9593726531084363 6.888355509024514 1.2736987950694194 -0.22737499384768586 0.3263686362047799
Ni 3.7931196378844936 4.501396810041757 0.553029661212956 -0.1942879814857299 0.18743007802363204 -0.4680315352956262
Ni 5.907856315853233 5.4974997653067526 4.85962248582992 0.3276575302195325 1.1120977622937493 0.41590319003150306
Ni 5.253612472238902 2.6526304532818994 9.310265652011026 -0.05315344409452782 1.5168397935021103 0.622653822760618
P 0.1227683465955819 5.746493644849098 12.39485870513683 0.5146770030683071 -0.17457610487909933 0.5947630098876208
P 3.9441963147421486 6.047673015047882 12.415521719926662 0.4415255185852977 1.8153538693884672 0.17610771103227732
P 2.436651884154854 8.47446672959155 1.3920563832114958 0.3777184514316656 -0.23917764290956875 0.13962529983552727
P 6.473777149553133 7.5230759895898425 5.755384202798538 -0.8697435214284117 0.4858351391359504 -0.6427477652970156
P 4.842036166634343 1.0204707484775006 12.738090496360316 -0.28584599350038514 0.16087212502944553 -0.3170188195587637
P 4.0032178953136395 6.10391828746479 8.316583091297844 -0.4429974751451338 1.0340149019473934 -0.30600472783644717
P 4.804551455222653 1.1429013867696893 4.094182494167282 -1.546173509469221 -0.7596496553930981 -1.6638798977444698
P 0.4021759992726367 5.551833481289361 3.548034436117813 -0.5819157216113076 0.03268489182753081 -0.9099938843080264
Ni 1.8860143992796816 1.1080200331685246 2.6747080198331172 -0.4288517797723711 0.22599096901596563 -1.4791893301391879
Ni 1.985169562321824 6.563101450933152 4.85659767533888 -1.6197949916101135e-05 0.17827977898293168 -0.997483639790579
Ni 6.057731442952184 5.7859445285932125 9.10575004963501 -0.5108442595857783 -0.308077808315392 0.813409108502741
Ni 8.44400926373834 2.3843298537531075 10.338267932839676 1.0822176869048652 0.7622811794786742 -0.3709312533065031
Ni 2.1623435358325422 5.669248559603928 7.078416103697332 0.7543994627377525 -1.3425470241913848 0.5146800883921007
Ni 0.3482273253717955 0.18757739183816363 9.317087177686577 -0.5408127809234106 -0.841245671099035 0.3835029193239266
Ni 1.4011435583941794 1.141026240934136 11.345073783606825 0.057804312602977866 0.22790232710606556 0.20216609868222601
Ni 4.290788804230131 6.913444232092241 1.346759777838292 -0.7081396604392644 0.543626853333438 0.4505243796497983
Ni 5.658816923062453 7.9071440878398285 7.739086417990793 0.04945825463112773 0.004218408956721767 1.5822841391488494
Ni 5.2278064603758265 3.056906433837362 4.831644581751491 1.939506784620008 -0.1738734223851199 0.7926739328379188
Ni 0.5058205891404819 7.449408245671726 6.993404637739086 0.928332277605898 -0.7207658338437071 -0.0071749204818844165
Ni 5.284989305710512 4.710248004463763 7.12075525818718 -0.6951856713817576 -1.0462520674435338 0.10665578688804211
Ni 8.050920439648388 6.952485496600434 9.07263005874831 1.1107595030982997 1.039648703194403 -0.1363988224784296
Ni 4.820808787563906 0.5212941833436708 10.518337459215877 -0.9558970745980441 -0.8515020587197206 0.9737184190501812
Ni 8.36360555905173 7.2512981778805585 4.734509296674927 0.007034281138962079 -0.6607889390694426 0.3615302717075774
Ni 7.537503689343978 5.84836139749801 6.827737323697897 0.1436922708160493 0.16199415444903068 0.45964871054856965
Ni 2.370311773234894 5.306098350335017 2.3686732962912065 -0.8470483938237411 -0.01299101294302924 0.7942888427335224
Ni 2.2005109459707684 5.062620676503087 11.466310154260059 0.703878056949433 1.4666117505844936 -1.0191636958671737
Ni 1.0251039971682607 3.14827883139699 3.905107716455582 -0.009700000896583294 0.39363023756591564 -0.6290167888641683
Ni 3.34714441911219 2.9889551539227757 3.3730942528403216 0.876413991470052 -0.41750987239699067 -1.0728719840239072
Ni 1.1263709749378221 3.0023542542622628 8.270339810357177 -0.35832590583766677 1.117174148375392 0.22559116247438568
Ni 3.748644091513071 2.6686602193809734 7.270555743558697 -0.7354635450651978 0.9244967059098917 -1.016383304908559
Ni 4.110201337086732 6.806624638013517 6.1345068314734945 0.13665310458108076 0.28374617354856296 -0.4831313670515422
Ni 0.7063028074401203 7.605482277207626 11.312726607678563 -0.5933962114470812 -0.7460114957843733 0.18783374121995391
P 0.2582558255990207 5.168520902963408 8.003340889733646 -0.3826711674512507 1.3473405889252859 0.7181934451308406
P 8.405641595306998 1.6168854586293586 7.932291067865554 -0.5796845182879435 0.03287463924083371 1.1209385005138308
P 1.7553276577212469 3.1367912874918047 10.608824168960945 0.05763153447053945 0.13368965107738268 -1.65773007609299
P 3.9631844419895463 6.006947760347566 3.7175649146862297 0.03773710953945759 1.3802435103008937 0.17320750666634685
P 6.693114596414737 4.002689941631784 10.316631844798286 1.8798741605590399 0.06386903073981903 0.5043146859973765
P 6.585621406259165 7.997724554876674 10.360996338843524 -0.7676694403737812 -0.8594994751029004 0.09641199767284686
P 2.2383961739686935 8.478025865619227 5.938610528086243 0.40110880533114796 -0.44090999648848583 0.05340489798370158
P 6.850544922754024 3.7854643094975993 1.5758962270881152 2.4469659297836373 0.5287607348548828 -1.0666409155125307
Ni 5.195482951336752 2.7199991636165084 0.7876085847107267 -0.028629490811234566 -0.4086819896927156 -0.5348488500304918
Ni 1.269719502211085 0.8348668110915116 7.271740908547963 0.8897287063010871 -0.11046898998654522 -1.1023147147650563
Ni 6.754548379153323 0.8461222374296745 9.36659375854009 1.4351956981670573 -0.6246042616187695 -1.703117245978538
Ni 2.9103355685748475 1.5695516802561704 9.289255826268112 -1.0530516068638702 -0.3342079297435406 0.8510981384130826
Ni 6.426388755281822 1.9634233322192187 2.899620839628102 0.12322114744589101 1.0093742205805778 -1.8855637547446493
Ni 4.2688423158344095 7.154682654101132 10.400391696424547 -0.6219621960102321 -0.5392680621441099 -0.5400327082242764
Ni 7.874165188023278 7.292423949167109 -0.04060692025438314 1.1088568867589483 1.5339491994888872 0.24213878242042167
Ni 7.489669265237997 3.722920003497181 8.32255169869771 0.9129809919608084 -0.16798431059419455 -0.4615914360972373
Ni 3.013823592868074 8.468431672848968 12.381922019401449 0.7321733043497003 -0.2921433964733227 -0.4040717446142138
Ni -0.110330486063058 4.898336054949375 10.346834436460254 0.3217745890761942 -0.8342607551407696 -0.5708255252354169
Ni 8.843433532010552 2.081539314559697 5.799534784576129 -0.20916798392135588 0.8352830257576971 0.5897928103665391
Ni 3.767304523371732 2.665010056856426 11.592035951738996 -1.3201195484258037 -1.1388914854478256 -0.07951007971118565
Ni 1.3225421783456255 3.5177462795487844 12.834465710188 -0.32432872295661563 -0.8173351830300247 0.5403219573299212
Ni 3.1515284773353027 8.431702481361311 8.106364678892827 -0.008059894189999021 -1.0073517908339105 0.05778631488084887
Ni 5.5066115176435915 7.924575661990724 3.4713355098538736 0.5061792500099412 -0.33948743297492506 0.6466830957956798
Ni 3.2402702091353435 8.496831939872882 3.811116486580961 -0.2682557912224477 -0.33955685276027975 -0.5235786764333112
Ni 3.569695101313359 4.3032321263524675 9.412077878496849 -0.6640701809238757 -0.056009168375768054 -0.04474079455080037
Ni 7.139126225785789 6.020401476585175 11.418055187738531 -0.5005973850467895 0.13582726624567573 -0.5322710620009865
Ni 0.7618735735152118 -0.1837570097644661 -0.0056299888315032446 -0.49623190898924213 -0.4532947433060839 1.363864040501606
Ni 4.810677538462106 0.4776315035893109 1.5702735203763616 -0.7586309843205966 -1.1821559525634155 0.6369332154977676
Ni 6.228078429197538 5.638290448017926 0.34443880257200304 -0.6627879717773424 -0.7445500807474984 0.6346842715625908
Ni 8.038859428812913 9.303181059759517 11.392089879505932 -0.13775739338885307 -0.3258168774663679 0.5817051482623982
Ni 9.53584478576311 4.828810016638911 5.5491755075807125 -0.8446942917692678 -0.27774984675581194 1.4286162451773268
Ni 8.023539669389436 9.07196465505618 2.348689339168034 0.19783533251735605 -0.27300667564387177 1.0261709804229424
P 8.439630889238822 1.711134293490126 3.7175248630276063 0.8607953110961885 -0.11026150196142945 -1.1538234241673095
P 2.2935946416715804 3.2316226919325493 1.4983580365230205 -0.6941032369508563 -0.5697662307329672 0.929811947475218
P 4.674256127600765 0.9442542626469808 8.184715736074986 0.7549082840533708 -1.3721450495634755 -0.49798360157302624
P 8.871478795696666 1.6591854717255519 12.873754566767685 -0.13464790122559392 1.211076749362824 -0.9603247713520945
P 6.363516753892666 7.766235070682723 1.3857154774394262 -0.311604847632044 0.30821124856946275 0.26722375041350754
P 1.9570514774382126 3.2596133397205405 6.108221109971907 -0.6215965851406973 -0.48983731831680805 -0.09193904950315779
P 7.067834273436019 3.82614405094948 6.090062234111009 -0.22827616550571656 0.17282312674373462 -1.2189078153714685
P 2.3165515241825765 8.517504057312403 10.211183109762446 0.5435929147717089 0.19512976066073492 -0.36956214087311834
