# total energy = -381170.4786422085 ev
CRYSTAL
PRIMVEC
9.20112732085823 0.00000000000000 0.00000000000000
0.00000000000000 9.20112732085823 0.00000000000000
0.00000000000000 0.00000000000000 13.46677989827660
PRIMCOORD
 96 1
Ni 6.8403021680741185 9.040245735473007 11.577107906781645 -0.15905564064599703 -0.11180570652009775 -0.472701944188102
Ni 7.275809932486274 2.1407895190297985 8.453771392555486 -0.653005695579598 0.3855646869489618 0.0004746256435733761
Ni 8.669357489134597 4.160906251567046 4.480519374970873 -1.9560538903454117 0.1933785822975831 -0.5150395286140484
Ni 4.25631274208487 1.6501209955613843 5.664868257715124 -0.6129052280142864 0.950690333586124 -0.7509426145374034
Ni 0.7964854763753345 2.452661733910851 5.781476906213488 2.764027686765195 -1.071929674715296 -1.4889872900662164
Ni 5.54162743655158 6.523360131968713 5.986697932721395 -1.6718253778437915 -1.6386833438741841 -0.9840467975593828
Ni 3.494321372402782 7.579824384525951 6.73294525322564 0.3857678040987033 0.9842712548653629 -0.06599893259862827
Ni 5.136317772426772 4.755271481384759 11.255521141540026 0.3795925285259269 1.2158466599476416 -0.569202130699381
Ni 0.39257438362276176 1.7241256636330262 8.178510463793675 -0.5110280934618103 0.8507664661052767 0.34446020359916807
Ni 6.434468039684722 7.236806353230313 1.3415225418266563 -0.5503168637591038 2.0643546690360446 0.34717528853748597
Ni 1.5601063657286263 4.609902868819314 3.8754293109987024 -0.019471221350734206 -1.2855608366143279 -1.054044566904759
Ni 1.8110211112606016 6.893346667817127 3.4094382113482844 1.4103755537995841 1.5715456696854226 -0.9542423126034404
Ni 4.706358287866315 2.170021500935009 2.263496674801305 -2.434088816710653 -2.7595753074207963 0.7200688077766825
Ni 8.355166590136418 2.2956997007597706 1.7856812062662832 -1.1943897756254462 1.1830095588129625 0.4668028050948477
Ni 5.071900679156902 2.27853959806754 12.103874293457652 0.8955129170830319 1.261607154012208 -1.3755404483982696
Ni 2.2937858662503956 1.2748898170670868 9.372380673222064 0.09718538550376166 0.2820371612772562 0.7902699513821164
Ni 5.665658634562986 3.7234294458808233 9.265239064755892 -0.5683588088624791 0.8193943795518985 -0.5044370705078538
Ni 2.711839091891955 5.820421598253775 5.379062836896854 0.4535420834301995 0.175249219686724 1.445294991384588
Ni 0.7745656304537787 4.633660179892418 6.680250396325691 -0.23239841520420618 0.3217457927207878 -0.43847850422885776
Ni 6.965483507016638 3.037853439661993 10.921733681301141 1.0409447962980072 -0.1507196099764759 -0.3968253474644456
Ni 6.548359595247421 6.546326146081211 12.50494223782851 -1.891807678771832 2.075909720863496 1.1244231166283214
Ni 5.61684665344648 3.7879845560624275 6.870952963831951 0.9392340121200663 -0.955764919895554 -0.6833565399573134
Ni 8.408560732722485 4.463549735616835 8.501483838941846 -0.19763632913267254 -0.4459781550400126 0.1204924356608183
Ni 8.227813785115954 8.918901266676686 2.0640668379097464 -2.4191260247532336 2.186958751723227 1.1878419472045996
P 6.531466325251208 1.1014393635275463 2.938034088419669 0.3414358149505475 0.1080287559761688 -0.32249244107882524
Ni 5.770974739343293 8.714166979810825 5.94573175298058 -0.44343430557223634 1.9661459844740914 -0.8502887551379098
P 7.1384739041837335 5.192720683688635 5.884323428386507 1.764736818562548 -0.8401719784188819 -0.4300424576463626
Ni 0.3060755045882349 6.449769514632272 4.981483039941881 -0.3853679975571234 0.2713354585890359 1.5201876269284207
P 3.1917975030098287 1.7968237716069222 3.7942514439678847 -0.9532043582572294 0.02741310190563021 -0.582506561117771
P 6.211598330617046 1.473772186875435 6.5568540761082605 1.6153996907558954 1.043943731025331 0.65567732887449
P 1.4870494137842227 6.246829447618951 12.328689120868027 0.1440465688316745 -0.06434622748655369 -0.011838644506140902
Ni 3.775185787780983 2.7440338368357162 8.313837885974117 0.6847217957359563 0.04410727473185952 -1.0380139958044576
Ni 1.089238668530282 2.242563189742273 3.1021803618828643 0.8499478268587232 0.7792592020939095 1.873426348051167
Ni 4.7301432023217655 5.632249340795966 1.011977721454468 0.9582259798415368 -1.694813611208849 -0.638587720382055
Ni 8.05506261726253 2.896772552487744 6.380506187535056 -2.539866057648484 0.7532661204642574 1.2812138724995419
Ni 8.209705966296484 2.4405162456782805 12.82383583306583 1.4084631672682197 -0.1413070584133244 -0.5093239662865099
Ni 3.6899925487314573 7.008903627448079 12.850702205103923 0.6198613476171455 -0.2871942799981635 -0.4994036218490044
Ni 7.499572150916494 5.284069477001487 1.044832187236317 0.4766542439676308 -0.3665665485799042 0.7602142696473166
Ni 0.3852236029038217 3.331452215429496 10.629410181798058 -0.24154228648700335 -0.21367127110834816 0.2792449432440997
Ni 5.645250533881287 1.1868074239986013 9.928545582210107 -1.0337151113187872 -0.21542322080244836 -0.30225605942729233
Ni 3.8155511338993837 7.510190251992544 1.9444954263728311 1.2773356204910582 -3.4961845360546624 0.27564617014924786
Ni 0.603947283943015 4.43240391920225 13.46515073580439 -1.5940993866162223 -1.9423766499686355 -2.637981925386315
Ni 6.137170410682754 3.6798897107925463 2.2827132294783685 1.974815230113315 1.2644158271055965 -0.8189554922422669
Ni 3.4393354347680516 8.90075664334742 4.4154204781570385 -0.2144279467687146 -0.6394924915845116 0.6494794275938943
Ni 3.5757421491982515 4.290973389184942 2.684400409726538 -0.013452525960480058 -0.2756495125833575 -1.5118613664509124
Ni 3.883161018394028 5.1971096214817685 7.582403460549882 -0.36614540188208555 0.31507223735535417 0.33602004325161483
Ni 5.636527865059714 7.841697672849587 3.8147478754730932 -2.4278387220358835 0.843255245329896 -2.510406871847102
Ni 1.8773980446770913 8.316245821027497 13.414879455874484 -0.37225022922824275 0.4764614112305343 -0.08739899554095916
Ni 0.7762043512524309 9.132707865207177 3.9848334767045643 0.6932658286512254 -0.613632335988298 0.7063499155286932
Ni 0.8533309618674907 8.474072760158776 8.65225811388353 -2.5520821400987015 0.8782075930353649 -0.19157418209899266
Ni 6.465494241442471 4.050750353748608 13.04718216053536 -2.8927988174950374 -2.032140803307662 1.5988528421408077
Ni 8.31997227764431 0.08003508700166247 13.330119589927802 0.7663597204234222 0.19239436400744286 -0.83503311453042
Ni 0.9739853461051436 0.650282321550273 11.439921856856524 -0.26177969657980077 1.645413463509166 0.6249583025240785
Ni 3.2537394929959405 3.2638699343171984 10.557551216647504 0.2197586149530086 -1.185053842936501 -1.1430615576651153
Ni 9.006532804500173 6.925845049966703 0.40832211325158374 0.4494725413465162 0.32668051101824386 -1.1162796615855808
Ni 5.923188990730734 7.985870138846672 8.042630053853554 -0.07580563427640492 0.851085282897276 1.433567161424699
P 5.36452413541482 8.48229856809811 13.104146340571608 0.009878435455976536 0.07668366600598406 0.5899812722282614
Ni 9.168012591228672 7.740807310372208 11.558752577633799 -2.8092968430156393 -0.610892825569948 0.46045526561026506
P 4.331108707117119 3.4754314577501546 0.4736712807320293 0.8629416680152299 0.576676327589239 -0.6226512516574567
Ni 0.2608077977650514 6.026563657619319 9.932288600856326 0.5270609785549567 -0.3571041176154237 0.38183067382782626
P 0.9690811451748707 8.338264119012758 1.8891607660077872 1.6463195202632035 -0.9607124937088164 0.49033045590314256
P 3.506439257253006 0.9345585149865328 11.198408823351851 -0.4911856048145863 0.49756631152994957 -0.12096757552502391
P 4.959196069035114 6.5307026316729475 9.319752064439747 -1.1382700498137428 -0.6821650907523735 0.9753104461276494
Ni 0.9964176948256039 1.1943707507616115 1.0742518721414855 -0.5936191260911647 -1.7137274173942165 -1.8128557855569616
Ni 6.3899069794496155 1.5331194589209516 0.6562106079656104 -0.3787296663049994 -0.9145347096011734 -0.2943478603238092
Ni 7.003088514900364 6.140114771466408 10.279812424263701 -0.2771453804025937 0.9385778665933062 -1.4133315511041145
Ni 1.6637662675681288 6.378083530677757 8.030159765822036 -0.3713691121748701 -0.22100791397907743 -1.1038486349110794
Ni 3.780982498073801 1.2307152041848346 0.0002484304411207678 -1.0225554951575422 -2.3806258117955066 0.8882714050292702
Ni 8.471717271531855 0.3196260049822554 6.584554990405971 -0.25494107639141256 0.7374913741285041 -0.4183246549888021
Ni 1.9506114157881262 2.68400568135898 12.479449594118538 -0.7540875879242884 -1.4724584391732576 -1.11361856981365
Ni 4.3198005214824 3.9317061668145157 4.803681373231748 -0.4968104072005315 0.3387202157915973 0.9234096434933
Ni 8.513968848777282 6.830972224840917 2.7006818047473975 0.4700894462659194 -1.8080254540478538 1.3859708997029745
Ni 2.8617346591622668 5.7688952845398385 9.845091356248428 1.30216450660928 -0.1730128741570375 1.4456336056709296
Ni 6.442500623947627 5.761396365668971 8.044381028407082 0.926880632761036 -1.4873641526404966 -0.8369696694315005
Ni 3.087613136905738 0.1592052680231267 2.0755811287993216 -1.997523213233792 3.8841352067372976 0.38980726427539963
Ni 4.4808662574756974 8.206025515316918 10.699828250390112 0.8962238271071276 -0.06118119949501076 0.39079508210996566
Ni 7.956923391892379 5.050857700681227 11.949006436913944 4.267771309204979 -0.845836118683195 -1.0702108922519764
Ni 2.221234976315683 0.8314976065439547 6.827805196772999 -0.5253607080343985 -1.0956288181044485 -0.19948263831279192
Ni 1.7692847971523125 3.8224519794860714 8.76512282362293 -0.6625989956949878 0.7632450860538402 -0.39290492936411686
Ni 7.423819268629558 7.490030581751967 4.85426273115668 2.6546599002626277 -0.03757821536409012 0.8654011852993161
Ni 4.429109915575538 0.647418010575425 7.641563029595441 0.6987152818015708 -0.8355095399462062 1.7819477831241959
Ni 2.40822948946003 2.8230071137297736 1.1700622921543167 0.562483838138941 1.6925240438437237 1.468596128004374
Ni 2.951574467573496 8.364708159300946 8.861074020885729 3.109984529514547 -1.06274852243666 -0.3917579602438672
Ni 1.6950316986395497 5.475379318919376 1.441188234240584 2.570881532193392 1.9186728785937923 1.5320000461823164
Ni 2.023677568859979 7.931390263221633 10.904536774099116 1.9206603413374665 -0.8471898044976118 -0.17607017292612256
Ni 3.136287101110511 4.640809455920227 12.240696898848542 -1.1464294456960835 1.8868428785673892 2.3802733135520944
Ni 6.439997917281522 2.7831846341308597 4.582287525006879 -1.4171815209778238 0.3643705693698499 -0.1435750285118947
Ni 8.232561566879594 1.4763761059434783 4.261979716480658 0.7249559606656547 -0.5836429887150594 -0.09873833181317833
P 8.37664202160219 1.4387250924225088 10.538495681700796 0.025626185208536514 0.6685066194286745 0.5588884074781988
Ni 8.316540257105864 7.321281904338823 7.242461366160418 0.15610298577557633 -1.445792242735981 0.264379338986177
P 1.328385172055092 7.898560640483896 6.396060693487451 -0.5974451847054744 0.3588648090602723 -0.25023492916499485
Ni 6.4718154159998775 5.65373397338919 3.4051698083247324 -0.28376391416037583 -0.3326130744525949 0.8951838158783872
P 4.1514750959319064 5.983235548462367 3.783438278989917 0.6290013622452006 1.846679418974626 -0.10603409414364318
P -0.0586415455701848 4.513861500507515 2.1673568544258024 -0.06493012501448173 -1.0856169423944013 1.209055348057421
P 2.6333718770075873 3.475164625054136 6.610653988414826 0.43459048202836115 0.16243381308961058 -0.545488332022209
Ni 7.833481066037704 9.168040194611018 9.201177135005551 -0.2851543667499992 -1.57779525013956 -0.4170990101118171
