# total energy = -340862.80317002 ev
CRYSTAL
PRIMVEC
9.30635298755612 0.00000000000000 0.00000000000000

0.00000000000000 9.30635298755612 0.00000000000000

0.00000000000000 0.00000000000000 13.62078829786411

PRIMCOORD
 96 1
Ni 8.852277185924578 4.004728327769989 0.3031227992080186 -0.39527034427249985 0.2935006818321655 -0.7182798341970597
Ni 1.1462820808326908 8.908962180520362 8.353139331935127 -2.739195201102547 1.745560245634097 1.2098685879873357
Ni 9.098420909789935 6.7963828810258 1.4057199296003762 0.2986770838267824 1.7364996780937254 -0.28542253280972135
Ni 7.584928762176674 5.332642495210121 2.3135723223615763 0.37035995418406537 0.4101097232781776 -0.23511298592189184
Ni 8.672915849387959 0.7597455112977188 9.642836961810394 0.9648769094991512 -0.2797511934565569 -0.37611434016933937
Ni 8.60016808994694 0.7005645528945814 6.674513399868327 1.2077911366330167 0.3228192282906247 -0.037213118715187524
Ni 3.298022512696167 6.316314674454873 4.598173968614685 -1.4097255789204108 -0.21607988054984079 -0.317443308690692
Ni 5.471865532339152 7.263664158919236 3.7789375973672783 -0.9115977384600366 0.20491049419658258 -0.41062291546917024
Ni 7.160875492803584 2.175211053497127 10.582575710996407 -0.7043172013693806 0.6665127289270973 1.6592256868019104
Ni 6.355205922594058 3.788662735990262 1.1643429196131927 1.4883956792288042 -3.044181772087125 0.2786039672259912
Ni 8.44722748886549 0.5698317013787061 12.240866331670784 -1.0292768730417756 3.708657158869219 1.213310009568717
Ni 5.870047141069281 2.20398629619786 3.551879341720117 -0.1550148949177201 0.23061458383090608 -0.347425199764763
Ni 5.727585493183505 1.4374685520044996 1.5070316775347192 -0.29829836033112495 -1.9025911425405815 -2.034380234161141
Ni 6.299349193392959 4.381300585416321 3.8844986259669367 0.25818015215400053 0.7391571918667011 1.332620766216608
Ni 0.9643801099955217 2.151424015870001 2.2200928009010163 0.1263938887469178 0.20180228758490404 -0.6757162498032363
Ni 1.8229004574681336 4.323805938131351 7.025575083358369 1.547773506966489 -0.48234203838102735 0.6308448432118426
Ni 7.52266926228408 4.648383602967529 11.643144421737802 0.2681352064841834 0.6976765561244114 -0.18793144314008278
Ni 2.507717730875681 4.0787138321266605 9.55935525510837 -0.27850960773997196 1.1805502986391927 0.12793912174685063
Ni 8.856641865363985 4.559554465975777 4.394474658368184 -3.6845787777637766 0.6141465566205553 0.683955349883577
Ni 5.020442279530467 0.3167640510678939 4.440308445658323 0.926264853553908 1.651053178293447 0.23693461251166292
Ni 0.45195278428011815 3.0206280562987713 5.990435981504346 -3.1107628024414686 -2.296359191235942 -0.9524479397071791
Ni 8.954898337690743 6.406232654718288 10.067873912669084 1.8418933104398925 -0.5333486113358814 -1.0052866807747654
Ni 5.2380155004555755 8.107275729287522 6.0389258018691265 0.14837347834180253 -0.27066208667109515 1.1209179316885405
Ni 3.081659117628463 3.4379807516923906 12.000173338610672 -0.41478373171507926 -0.8668302044363587 -0.29264270470724435
P 5.3142345294720705 5.4249429017773485 0.8713203050439534 -0.7886699538848483 2.9581318343748926 -1.631980477932712
P 2.031185938349474 6.233664955688634 10.511298355289771 0.041868358099011765 0.27625243627467905 -0.4246079168943526
P 2.0111121354693053 3.9545856991569397 0.6903015070826899 1.7460932353194314 -3.984013308581874 -1.582575702247339
P 5.4441512138518355 5.183610562283362 10.506844334863974 -3.516808640062917 0.16412457052847215 2.7784245789168147
P 3.459673859950931 2.5199276656827188 8.142643592275837 -0.6985360759112292 0.5093278229412518 -0.34356623102998896
P 6.773386883382362 6.223856059890907 4.917431191584107 2.2227436226323203 -1.0468043404025777 0.8154922162840148
P 8.423766173584589 2.897207206137995 2.9855542740573346 -1.5019785601195617 0.7810887991034806 -0.2845344737778132
P 1.0392217988051256 5.947569059470673 3.664223770838716 0.7303195389704132 2.338877781324443 1.3640465888260571
Ni 7.129354876041818 3.9441253586667644 6.895101879084198 -0.041824135124637646 0.41378614368850025 -0.8330937314158618
Ni 3.8100487346080776 5.810309662771737 2.3325330854529325 -0.47730910394281023 -0.22363069631390517 -0.3463599917250422
Ni 7.736771213633713 7.751382187450061 6.020756078761457 0.743939443746693 0.5135914833136122 -0.43722843387184057
Ni 4.7291534384784155 3.2454788450738064 5.561490362490966 2.8390920720002013 0.29521560764074317 0.7886954078061449
Ni 3.0147464413612344 2.157082278341555 3.6296134449641926 0.4103051271184353 -1.5059105481841162 -1.2724947474589892
Ni 5.02078661458219 5.679508874880793 6.076696565137301 0.29677421037711466 -0.13470446549514217 -0.4916340052059146
Ni 1.5949227341693448 3.9384112580787143 4.41648604389075 3.7802454126301672 0.27839236543581736 -1.0508319735047322
Ni 1.8900457925540937 1.8147853178707731 9.974353443256426 0.4955533948649788 -1.4370456068916024 2.3522693721400003
Ni 6.729907603337788 6.789589243518836 10.185026003617953 -1.0374306124971615 1.9101568707029812 0.03633945786098258
Ni 3.8792042418878787 0.6074712450731157 9.033347168825962 1.6295240459724194 0.7764435870219853 -0.45442937113115933
Ni 0.9808430480089748 4.835487824991539 11.876141991709545 1.3544548313725642 2.187348016741846 1.0746941248343105
Ni 1.5994735406637361 6.6617757948604055 8.263336750445802 -0.6763052895374868 -1.0240858157591397 1.0089633582954043
Ni 1.640067851356038 7.533808966524952 12.467543026855227 0.1910062254106646 0.5072688835296941 -1.345496850848328
Ni 3.031255911138434 8.643284422234293 4.889481422372234 -0.4836252759688251 0.5231230769531313 -0.24241543312057603
Ni 3.9823186303497553 8.737567081937115 2.622559985072183 -0.966014365537704 0.37495991484992197 -1.369820515195357
Ni 8.29731145242755 7.531612667276125 3.4539318403046337 -5.1915738172613235 -0.6577054150481124 -0.3783414297276452
Ni 0.7017436677879134 4.580549597778124 2.194608284532424 -0.9301073672284498 -0.633085045396271 0.9264692562552301
Ni 0.07395200148677372 3.556245882430073 10.483947915194952 -0.9105150469188189 -2.0097812046655386 -2.4720622106306327
Ni 2.984398425045876 0.4614713218720682 13.05387675292893 0.29692179169857247 0.3785368335679029 -1.249666436710564
Ni 5.239709256655942 2.701652815817652 12.633989007046413 -0.17571201825575547 0.22562741502895983 1.1659515748894114
Ni 8.120704796304715 1.7241693611511621 0.7299968240994126 0.012245393026256329 -0.7799788538687535 1.4673368016759762
Ni 6.265650890087864 2.2219010252401987 8.40642378523633 -0.419166177053491 1.2419587836536612 -1.5352195815608785
Ni 4.581266186939818 4.409601204126842 7.930254009832069 0.3887222587413369 -1.6393279194367187 -0.45276406761359445
Ni 6.637151185485845 6.349305694951022 7.788802101219588 0.2047999367606473 0.8921594272297666 -0.07515797339007702
P 1.298645688043687 0.5157804046109644 5.675700715335793 0.04777726738427901 0.23033613335853878 0.0457070151188116
P 6.1387866894098595 1.1484039292595236 6.386964781986205 -0.27080401156559814 0.21924130899695793 -1.3804674533862418
P 7.996250940988769 8.70766577055372 0.7558312593313773 1.522971360321145 0.31465751841543876 0.20619527444627714
P 6.81961153748797 0.05204112457389996 2.8788895120216127 -0.5011619993010078 -0.2608762109289249 0.9509271321872785
P 5.022396613607813 8.054862350603653 8.181285430161342 -0.24331840455081966 1.0502305924753073 0.17093388014082175
P 4.236670557339966 1.425584339543686 11.350297697235524 -1.6006605847735078 -1.6878886019542414 -1.0196874295811278
P 2.262727994751232 7.482093564297277 1.836272755733555 -0.22794140787411712 0.76573957034092 -0.27160413886939033
P 2.878547968875715 5.962273096814515 6.714953225104991 2.150904943423463 2.1332777172600035 -0.4180801430781638
Ni 3.86750615648205 7.713477412702297 0.34320153795801106 0.6109051668651221 -0.4251928428635451 -0.01274830080460385
Ni 6.816512522022465 4.533440840161335 9.287484119067665 2.5211450842002128 -1.6420270635354366 -1.8583493991133864
Ni 3.7455277909974103 5.6204042285702 12.724322050642446 0.562538088415644 0.2191484921728355 -0.2570856335382411
Ni 6.275264352477857 6.553514993328185 12.652022857403942 -0.801755840534529 -0.8905265196120341 0.7982485987122189
Ni 3.9847289757118154 3.073022822277143 1.5163482672720103 -0.7112650934421234 0.6913318448533062 -0.6714564460856177
Ni 8.942064877249503 1.0306227288648029 4.032978692175664 0.4468165917809079 -1.1477605058026814 0.2539275475252336
Ni 0.7613117704654205 8.109527866652845 4.153672780980905 4.230218547762186 1.108580236058794 1.4379601482860718
Ni 2.7495060816543813 8.541091362694594 10.302941215492265 -1.6296502871376384 -1.5269997647542475 0.8089477302972778
Ni 4.020977219670209 6.346513789126243 8.88895352210944 -0.5628926435415854 0.7672567783163947 1.9389539974403316
Ni 7.461219415080671 2.315113454376855 5.205170589697588 -0.12292572769265926 1.1348620525734585 0.17551892840834288
Ni 6.378639318816712 7.394232287991449 1.6340317509628637 -0.3421678080205655 0.016641465211422957 -0.9891812905724706
Ni 1.5733319957910457 5.834934272146297 0.35974171869928295 0.8772508855490504 2.2503192182577436 0.09254505851827287
Ni 2.8406618068334497 8.52299981295002 7.195998598714591 2.8610840028902595 -0.7890427638432347 -0.9836577896510802
Ni 0.7713793828695773 6.229560854126207 5.852416255785795 -0.18534722735267434 0.455482494986022 0.32896467906673016
Ni 6.846478977875104 0.158990661003749 8.07227825913863 -0.2570601796169444 -3.8110821955053655 1.2461609946604668
Ni 4.865091333086956 3.0216052233374446 9.962666525473896 -1.2044584727153578 0.6113070302892312 1.4939464338437045
Ni 6.367592678103333 8.975940001256836 13.140328116793247 -1.513514071562987 0.44508315402956894 -0.4437513225920229
Ni 1.1048036666292087 2.411657557797749 7.985077733878 -0.4209878036432621 -1.703843325511285 0.6336874548669603
Ni 0.955073757246255 2.534948119020035 12.633812186344176 0.032902407154975596 -1.2241528658204919 0.3042445506122309
Ni 9.138624353666769 4.877198898013752 8.044818934716643 -0.7925965426327639 0.640537130798942 0.33839831367580436
Ni 8.233293051865344 7.739907454510215 11.962252743063235 1.0359889949546286 -1.867784319274041 0.0820636993709748
Ni 1.0003770824296858 9.182624789465303 0.7730861679637928 -0.694656538351165 -0.32845611486142784 0.11753489569439113
Ni 2.8625875739107225 2.309566868138292 5.844829717024592 -2.791213760261683 -1.8510361532814248 2.3522382617917486
Ni 4.744741579333438 8.009019256960762 11.523812782975051 -0.017561920143163302 0.7875101292487922 -0.052274126813368044
P 8.378500073812154 2.919877481435209 8.565922573100188 -0.4704954234550865 -0.5772206301284833 0.16374019060585993
P 8.670924289899617 7.562956463335656 7.929314068204393 0.8753539256366538 -0.4017829485800371 0.7939749110375294
P 4.241398184536593 3.904638503951625 3.605463459579845 -0.9480122725333285 0.680440394751783 -0.4570583241135741
P 6.91518778022294 9.023504770158338 10.798233684525716 -1.1577860083594835 0.4153344620122266 -0.23356518181879776
P 8.682780583302181 5.962021825290285 13.088991483122467 -0.06279996604535637 0.17364973641008805 -0.8775290789111015
P 7.270671842539434 2.946316829595876 12.835835422460535 1.1990324166037802 -1.2310611629045507 -0.3059857016730537
P 0.7783377428202041 9.263711040969664 11.306670446182236 3.0124595012831796 -0.07132960078292232 -1.273234453838491
P 2.684808317341479 1.1879559284439076 1.4341731724959843 1.6588680463521752 -0.6546280616743694 0.648314974972148
