# total energy = -340861.7952294767 ev
CRYSTAL
PRIMVEC
9.38855772054613 0.00000000000000 0.00000000000000
0.00000000000000 9.38855772054613 0.00000000000000
0.00000000000000 0.00000000000000 13.74110323397950
PRIMCOORD
 96 1
Ni 2.6542861135356017 8.01085264799196 1.4066763463123748 -2.1890511154758814 -0.008207732621772962 -0.8004808304768473
Ni 1.2071432054682403 4.8940955666384145 5.194370749058238 0.49405958392827176 1.9476654091714005 -0.4721823242392062
Ni 5.261300838635317 3.606576917992492 12.783884639734035 -0.5152881542897447 0.861883916174677 0.25833081879925185
Ni 7.526750443042679 4.597670631765275 4.4096027976853716 0.8453429810968603 0.9354645177753049 1.7664080356173837
Ni 8.265761380350007 0.34962989182769155 3.9474895339189477 1.7681075348069937 -0.9038183516249338 -0.51534626122119
Ni 2.907504905492763 7.501063348949215 11.626663212563738 1.289525991909663 -0.39516467193257104 -2.150299962849613
Ni 4.592704084698227 1.4287882776021863 4.50151677837799 0.39658314954665247 0.6999159869778914 -0.9238385035006026
Ni 4.5442685150972855 8.064461312931169 2.6725074264802635 1.7302333854690395 0.5664351094772051 1.3941169258488766
Ni 7.200225791918208 8.550488172225904 1.4530943148458142 -1.32924490776584 0.6480339533966194 0.6143648432789484
Ni 9.202701892832184 3.2878541583854437 9.991527578878733 0.08831250849416403 0.5336663996866164 1.1577844656975866
Ni 6.271049616722322 4.412462552385982 6.558133875457454 1.0747632875093491 1.6919931110409183 0.11904413325006594
Ni 4.920439859776666 1.885579167961598 10.849260584771397 0.3456189997939596 1.077940656796066 1.3176680015615179
Ni 5.762236727688978 6.139262431126583 8.383955811987954 0.7005559345547354 0.43702685938399577 0.116139043788129
Ni 1.2146728288099644 4.603209880857067 7.681936731200237 2.363777887000232 0.11195045962807816 1.2079405177266873
Ni 3.347095957994271 5.634458456266452 1.1470451693896309 0.2695122893373681 -0.4749462601375885 -1.795562802804469
Ni 3.4997069647520354 6.186280328502337 7.146844330077341 0.6289368275558523 0.3871001497568817 -0.9859985219691149
Ni 8.319923970198394 6.865166941769264 0.1400331558962827 1.2001385051837654 0.0001956609505738566 -0.520843022669703
Ni 2.487826984048358 2.7453739011433425 4.059232148648626 0.03891030391195235 -0.33427709241857917 0.40934970518370145
Ni 3.53896991339928 3.660241914278396 11.159836892790397 -1.1610996461137488 2.94906535329725 5.109269205524137
Ni 1.3629838761032524 8.801594538681957 10.625734045657799 -1.2260534252773143 0.7321396228982875 -0.9076729494843335
Ni 9.38830429163835 7.86820290104164 2.440955548174014 0.8864070981270218 -0.21775469714910242 0.08854879287468621
Ni 4.574715607986577 8.608133917011672 5.158355302548028 -0.9962585091342261 -0.2760909709961503 -0.07027133472173704
Ni 7.812585084736933 6.954179858107029 5.56491365334689 0.15789633023057323 -0.29799702704062225 0.4586110133126747
Ni 4.767584750516552 9.078050011151298 10.458422435123886 -1.268889546606234 -1.6305956817700435 0.06622390412524079
P 8.640787320979898 7.661335418857662 9.57462209854756 1.82927973544094 0.5027481128412052 -1.0633213642209944
P 3.2060985972137055 6.093699760207147 4.698316910051581 -1.0523864624760455 0.701574862737553 -0.2884289237362129
P 0.2648577870403721 3.045253825280515 3.4996938207711397 0.1971961562714604 -0.2982639075487638 -0.8037433032782029
P 5.779558616798057 0.9801842096292871 9.175209379077108 1.5125871888733433 0.11386695992450066 -1.672969518750564
P 4.601369723531658 7.457951091611064 0.6602343655200403 0.23813917434272536 -0.14048944760803547 -1.0759966456958179
P 0.28504036970583907 6.5706478841260125 4.288172130179728 -1.1357876497115214 1.2558959625600437 -0.5224481623732937
P 6.944246763972934 5.473200587790822 12.200135099046525 0.6076992583333146 0.1310038767151034 0.39229943456963406
P 1.004256471784126 6.394518540122589 0.8587347650080778 0.39322734570054213 -0.12200527276091894 0.26797811208102884
Ni 2.2502213636838246 6.890685041822639 9.057228067700828 -0.09955697105973177 0.12414803013553456 0.7155372384549161
Ni 6.139159156990973 5.999588856993379 0.41025838142102355 0.028091358919577425 -1.1434292254171792 1.1484544465459126
Ni 6.928596038149175 7.484896252447408 10.732392756348146 -1.9004879801546497 -1.615401233417792 0.12010882706915445
Ni 3.3337078745961435 4.100978370829394 5.782806118935092 1.40813638005642 -0.8499133740763621 1.1077600541503438
Ni 7.103589366660893 1.714228599869568 2.4583112360911104 0.9317449028318727 0.06586754922708657 1.663240721498574
Ni 0.681227180722154 2.8477561237636695 5.643869546587828 -0.4477339613888547 -1.6276751656891388 0.7212222046548353
Ni 3.4660959278899743 2.0047293547818246 13.350690650191106 0.5965247297737339 -1.0797967361681984 0.14463766544845413
Ni 0.2902932677852589 6.770962152977668 7.26044212382488 -0.40927180075791453 -0.4081001490473165 0.10983598438823665
Ni 5.293973019719108 6.415126424455613 4.81872985789358 1.3923392651231634 -0.39480291771777815 0.7525402980418265
Ni 5.408766915728163 1.2049275058315236 1.1332740328339685 -1.5991924848684136 -1.3883201166614412 -0.47030824714494485
Ni 6.668983638341998 3.258242647138813 0.8473886929276867 1.0242938180048877 1.0514670359855698 0.09191513824375783
Ni 9.047781300859878 2.0769743069196895 0.9042523708501566 -0.7192401412278 0.15242039471766652 0.948035155351464
Ni 3.2941444920998517 3.018731149544392 9.35758117515025 -4.153212979640409 -3.6211884864325894 -3.8661421125939865
Ni 0.5396082974163736 2.3657569557577123 8.012835511395666 0.5512856554302764 -1.4238386212830254 -0.302565363137595
Ni 8.902099049745745 6.1006285158507785 11.260476599086257 -0.3305844740583403 0.27647046582275614 -0.41328117902762374
Ni 9.159326755876117 4.52789487032426 1.810184354687638 0.14950810616687799 0.04706198648480927 -0.05916262640308521
Ni 2.3372532943294395 8.378377130953474 3.7578209507370945 1.9928952275434775 -0.6167096893620411 -0.9990245019151376
Ni 4.681285127377987 4.093674072874455 8.246008793630988 0.9334878536649085 0.7826206623669747 -1.3850100784516017
Ni 6.756269060047745 0.14007728211786138 5.730411394517186 -0.12136738206660387 0.008165052309295614 0.4631932333667184
Ni 5.089058357553931 8.879097083178134 12.794629844116333 1.2764719869391825 -0.07408659470276918 1.0042615819443608
Ni 7.544260103307412 2.4046537506514323 4.978415142940608 -0.1097331402617852 -0.06770948753183179 0.17820727387378338
Ni 8.210950980014614 5.021554627096329 8.852293689564307 -0.31584202564184316 1.1564770597400729 -0.087530636022817
Ni 1.4639108722672611 0.5849756863339293 0.1756486498449494 0.1556155046161965 0.07435913163786548 0.5728590107256779
Ni 1.0505983929995257 0.8914679717174561 2.6019326987719404 0.3520362161742131 -0.22650801786170022 0.6590426458022973
P 3.42579084932885 1.2542737655373866 2.6207445520011334 -0.7722614306198378 -0.507828612687906 -0.5327266614811664
P 6.579989499119798 3.580260790527588 9.222602818764171 1.2668056674940118 -0.614096162998594 -1.3232454956492952
P 5.884100207708404 7.427898318148646 6.593751247117678 0.147466650256817 0.6140460264869488 0.7369907803430017
P 6.204465964927425 1.6593900338608263 12.951800873389152 -0.08439826104142238 -0.6263317858328374 -0.5812847728955279
P 2.9875048063591367 4.0587016951339026 13.177745904987576 1.1615105083989221 1.7928328054678155 1.7692992411222497
P 8.987966799226305 1.0035429413926409 6.153156557789199 -0.1690826858646959 -0.717704421309564 0.4625831105865453
P 3.0981020170393245 9.375742401325102 12.520234221224516 -1.563062829025392 0.716352792377676 0.127330027407942
P 1.1930885344675406 1.6895836356899847 10.381980797657155 1.326982079873592 -0.5430087601334648 0.03366191102881944
Ni 8.71475976774978 4.597576746187448 6.623033219986136 -2.1683113118253687 -0.22217982279999154 -0.9781278609717864
Ni 6.9227000238616405 0.29219632844781185 11.200538168489953 0.654127467888867 1.5327299823698055 0.6859417841859864
Ni 4.29920837985329 3.23137259476473 1.9818794828502933 0.9503792301036084 -1.0987054001472434 -1.3335751597100776
Ni 5.423807385296045 2.3167392955742434 6.592362679421616 -1.5074843204291393 -1.291277684493447 0.16134032291511569
Ni 7.254050393686419 2.727319704527213 11.289580189356842 0.054670137849370366 0.7789722669811101 0.08044184749683565
Ni 4.498180084942019 5.008936405436382 3.2264802173041653 0.5448812945658293 -0.04420266265914323 0.4710469250831823
Ni 1.2088613115424742 2.94851412588759 13.096109578499677 0.9149242317301083 1.0956370456345648 0.10732530215124098
Ni 5.5820045839345145 4.655194325299869 10.716727947687712 0.5837244926852722 0.9598012947484568 -1.4185413774398279
Ni 7.313724066953251 6.667265532267764 3.1971841615990333 -0.03230899654535081 0.46336472594757616 -0.8144812585209974
Ni 0.5568672831883082 9.011973341476665 8.115042167985457 0.0354601405798228 -0.11501444326538257 -1.2637216292520494
Ni 9.214522087080603 1.4688586422187433 12.36713031518316 -1.780758905022417 -1.401332212650393 -2.1987583154613164
Ni 2.1581477775089004 0.9840241297624108 6.3690013789249935 -0.4500260998571411 -1.6775545670180851 -0.64635168059819
Ni 0.7165938778895793 8.62224491935907 5.089567217385753 -1.8319274574764322 0.11116164517819564 2.3573321313748887
Ni 1.0971562510439277 7.961346782803791 12.696820787991959 -2.250393780249421 -1.1052326597427997 2.3952975548750683
Ni 2.90892257771795 0.2462693814864074 9.043762059273105 -1.0956352458623517 0.9533349702978227 -0.27368184733402545
Ni 6.901829259910702 8.84262253619235 8.026810379655213 1.6425315139756809 -0.5305080565632927 1.1151332066859634
Ni 1.599209378473729 5.374611342514705 12.069402248489784 0.3585627044388212 -0.008063236624108693 -0.1612523911869997
Ni 2.056094154410968 3.0171726489524637 1.843877072002408 -1.487862946653786 -0.35224601819217394 -2.343195949083823
Ni 8.86422560765034 0.6693703710983842 9.757310289017974 -2.178972133973325 0.5154858721228478 0.6351028471572482
Ni 2.008325172412598 5.113346556537771 2.9505307880993135 -0.8980313126295114 1.0475597305113635 0.685484899154226
Ni 4.483458826338747 6.110186067673565 12.155132925026717 1.2221093530279017 -0.4279842895657533 1.3212431205072859
Ni 7.514113444267166 2.174925130266583 7.49651365384772 0.681118137545098 -0.3292639554747039 1.4252529851320488
Ni 4.628389992830264 9.289536663764364 7.578149980335618 -0.15560522020355136 0.2926792143721347 -0.9263931516016563
Ni 8.65008199318477 4.251430009297137 13.074206073192641 -0.646597478060409 0.3431638533852477 -0.1940334422727626
P 2.1245179635312743 7.896556345545389 6.96161371815937 0.40915301579186314 1.1639489426370857 -0.14869255224411812
P 8.61344784071668 9.16017172607656 -0.04606495876081011 1.1759986747127682 0.07385545252856958 -0.15255666318521469
P 6.230885366527938 -0.06088291950924313 3.501933930658091 -0.6444704044150772 -0.13537140965517977 0.03402829322930268
P 6.972299774627637 4.629150466010662 2.5017736866345563 -1.3716503693152442 0.11723150552135939 -3.014637739881421
P 1.6696517275173157 4.676271637522027 9.827747004926893 0.22817434982052962 0.4588586105471065 0.6682004010421653
P 5.48561226117955 3.585246114710201 4.763394637178134 -0.2539324326212401 -0.12357236013772266 -0.8674971485963964
P 3.3715249853448523 2.2983658879935023 7.336127982390103 0.35551003365542644 0.44104909316951135 0.3710739495319545
P 4.67405593788531 7.093552998391188 9.961901045939651 -1.1402749960589138 -1.988119660531705 0.536145200244412
