# total energy = -340871.8176208019 ev
CRYSTAL
PRIMVEC
9.21454854425951 0.00000000000000 0.00000000000000
0.00000000000000 9.21454854425951 0.00000000000000
0.00000000000000 0.00000000000000 13.48642321536386
PRIMCOORD
 96 1
Ni 5.979523203609438 7.378116580574688 5.172811602492019 -0.5334733098392038 -0.996794069922722 0.6909230394506617
Ni -0.2350631307369403 5.942001562356564 9.16848859943703 1.2280455160066786 -0.5076131542429902 -0.15646294021815635
Ni 8.875618920508591 5.702192939172366 3.2223782699305006 0.9742951174892576 -2.312152963735089 0.07858191146996145
Ni 9.119371370425654 6.730278537862366 11.836467112214276 -0.47940455301925816 0.25752606350976937 -0.7328122234852799
Ni 2.1353241684905573 0.5853578755514083 12.573702860994164 0.20745022989930081 0.6210198867016208 -0.892124203116457
Ni 5.140944008162712 7.725219405809098 2.9521505794319642 0.4792140342750069 -0.8973281159148998 -1.6858386614037482
Ni 2.3813986846148216 8.771863105059827 8.215039000211673 -0.3198228646664621 1.5461945925151437 0.7152405331501037
Ni 8.517274346175824 2.815947574556937 3.3426502420054063 0.12618871471464718 1.369976581157247 0.00158945597430694
Ni 4.457325873852917 5.3879399791311045 2.707790890772621 0.1972285521712926 -1.2342336470952615 -1.4987238006276897
Ni 1.348401731605622 8.941152789022942 5.853134614279214 -0.31712552033995706 0.0920992292301059 0.2001578100029456
Ni 4.80979156628015 6.280249206538908 7.232741414181215 -0.421625437227261 0.8378718695307956 1.0888963844766215
Ni 6.149172254961762 9.404921012072341 1.259787262155563 -0.20927288493033636 -2.1021102905182634 2.002729954245712
Ni 4.480472819537401 1.1691695498743706 3.035442725702343 -0.018965742469225402 -0.1340064109868531 0.17456350647360902
Ni 3.1815255694161055 4.073309567562757 4.439218364710967 -1.7566987787494197 -0.7221711988316659 -0.8990206731259742
Ni 4.965323929420441 4.898094583992893 5.5210045088070325 0.7067278676934022 0.8203891393650001 -0.6950918261163707
Ni 1.070721314327782 6.859908805334232 7.281090149852588 0.3598695961757028 -1.047784702037976 -0.3071149301814904
Ni 0.746453061585697 2.0876480948553975 5.279678249494557 -0.8901141146649637 0.9968915147325347 0.15054811739561816
Ni 0.7385534292069914 1.7049402544438983 9.144657934258202 0.6079928783143336 0.3353070763449903 0.4775495020883904
Ni 4.0226111220388585 2.0833264716364392 12.09423304740083 0.7937543103862911 0.5855821147193012 0.7235997037480765
Ni 2.615319211345044 4.760760954024122 11.806769544042886 0.24503024503560378 0.06701940344334263 -0.519967304932969
Ni 0.5583362122473676 6.520619917178023 0.9280275815307208 -1.9127698828457957 0.3255325134567297 -0.03484487559332708
Ni 1.765544339542168 7.484756549685571 12.685909338818421 2.2218905306034054 0.46134666707628286 -0.044533306525684595
Ni 6.10790029249329 5.614792947206867 8.847430695371884 1.2984770304553637 0.11790179211550664 3.315627273891464
Ni 3.5878779411279176 6.478408070768539 4.430343833107174 0.23740152484575244 1.3936520703973159 1.3320551235211253
P 0.17341964457449482 1.875280396929319 0.6960356597892576 0.46246535406175837 -1.4047314681399292 -0.7391839313395786
P 7.536210588181653 6.047784578462407 7.400040755681015 1.4010108247552324 -0.009707457095751023 -0.7837524619785727
P 4.910193286096288 2.788902874881794 5.999084768495422 0.7460006971510958 0.358828299395382 -1.2905269223703515
P 4.6305593845488975 0.29570683839350737 13.300863422508362 0.2974450111918942 1.7891453293138992 -2.5037155758698555
P 2.8111928675612394 5.579455153934576 6.756361238680241 -0.5450054788485194 0.2841956023811557 -0.7172768468538421
P 7.783436922861078 0.5003905243744061 6.795107493420962 0.5330015124091079 -0.6029668858546519 -0.783082946715374
P 4.363125545137756 8.715912366924401 4.4880527070851945 -2.2676199143197207 0.8661033535726631 1.5042146485389318
P 8.203325466233123 9.131663578046316 10.570550332435575 -0.7236338994201216 0.7980732494766191 -1.168486168385807
Ni 7.6232051400157355 7.4400291315516185 3.341139977515881 -1.641394057937128 2.191448926284097 -1.0498431272289015
Ni 3.1207648369943337 1.7326115434130491 5.3822831678430045 0.4269028835761164 -1.0956825541605193 0.018563879045116412
Ni 2.126680922052641 7.043084813798349 2.6952618692570187 0.032860498173446634 -0.33475531760657834 -0.1476229733290232
Ni 8.26765222890167 7.705067188368028 5.740253631509055 0.687236848848326 -0.6446655511450188 1.342250061776256
Ni 6.210246282030537 4.0587413664771 7.236072473442737 0.990689499686881 -0.9070407152169734 0.22989493205606212
Ni 1.573457862735337 4.88254042622402 2.1452721949877587 1.7810342701709907 -2.4459241187826843 0.10223040412683683
Ni 8.500255075204787 4.670495237493387 5.9065808381483 -2.151523807954385 0.7691758497159785 -1.599131035502859
Ni 6.031953984240296 0.7104896004742426 5.080430225639167 -1.9927309340514712 -0.6471898602287692 0.25323000723757677
Ni 5.4113541467203845 2.7309525797346117 1.4782061540430271 -0.4981908324878259 0.9549974456019102 -0.22572923071414672
Ni 6.661491933748245 8.010713760165139 7.596847845654311 -1.0062284758627444 0.20263815322263812 0.3945360372096366
Ni 1.313460163916305 6.231771467189358 4.907911763902229 0.1763805050776898 -0.9277926030523441 0.8052222018165746
Ni 4.72151619221273 1.2844619799716106 7.474486013992925 -0.30048276957695347 -0.3479281075431105 0.982307703381089
Ni 8.643780881726096 2.4935950264357936 11.541640263196909 1.1777326266847394 0.18337956210334225 0.09951789029168022
Ni 3.5100150067991387 7.915297111055731 6.375490779227933 -0.44681453489837886 0.7940304468658131 -1.0820706198040395
Ni 3.5945769178447247 3.7493444734643893 7.674826883293449 0.06193093317684173 -0.4740777414897061 -0.315291809565328
Ni 8.252770733169008 0.643513655128831 4.620826057030379 1.6673364888345026 -1.9461764833307003 0.06142673984691356
Ni 5.255149121543881 4.283613206637989 11.6114598181913 0.19005671701320173 -0.043833709355498705 -0.24371255466544478
Ni 1.8204261900584056 4.142418680872324 9.525352395835283 -0.6813413092994975 -0.006574053673091903 0.2070779341615466
Ni 1.1605170888880127 8.642988430560147 10.598170941388299 0.21108834087252035 -0.18372511836821906 -0.06601641610012501
Ni 1.7806469844374186 2.3009648912709273 3.1271910630772797 -0.35507654566243363 0.09479014579870772 -0.173933586199094
Ni 3.6894591231445397 8.406128462877158 1.2004566276518776 -0.5680425631736411 -1.178667994014815 0.9356316394807885
Ni 6.249122461904279 6.881738070591613 0.9980019409389236 0.5445640204357267 -0.7755455006877483 0.25998892322796513
Ni 5.538247693305191 8.727559556154175 10.120225214107151 -0.09110498363763664 -0.15896848024882945 -0.2627055508281798
Ni 7.604149453839178 4.953013292702896 11.46689829642519 0.09858303718223667 -0.5859266425429135 0.21844349568601087
P 1.6556884930252804 1.7781314127129504 7.098875218790896 0.504515489154273 -0.49848136714505115 1.5614044674863625
P 4.876274533283953 2.203189317760552 9.664451533285403 0.1587072561676428 0.2152841241214228 0.1744902300335124
P 6.948340826725153 5.427838973881827 4.296680357782563 -0.8399061263520051 0.2845753543180777 0.3158746786519915
P 8.81645230496716 3.7621803394430864 9.524421726442712 1.6646296314263007 -0.06108504023677867 -0.45596431971844703
P 8.064406933932453 8.125978546617056 0.8810481277577213 0.2875022981568855 -0.1988912845856962 -0.17695668929613395
P 2.896445869739921 6.450994789155745 0.7149826142942086 -0.18238865894498266 -1.019775875529876 0.3132578098544347
P 1.9366585040966557 2.547546207559462 11.161606484743068 -0.39451546838434637 0.8618803166302511 0.469546686388572
P 5.238065348733756 6.52695952650562 10.832079489205547 1.7349230776352251 0.09879026809703632 -3.3030471232336085
Ni 7.3946659095752185 7.136603265928855 10.252351702751758 -1.305273484551907 0.523400498984234 -0.06718009739092301
Ni 2.8949623274408753 1.4922776909676991 1.0905768233090427 0.964778436248074 -0.10692549560966103 0.22407086917511734
Ni 8.6927838503368 0.6237106690736856 2.350885628906382 0.22899273195676692 -1.0619185703361969 -0.8630272857505008
Ni 5.823981625920706 3.4415324827835785 3.955918984785438 -0.4368977900052992 -1.57230825888306 -0.08347317812399173
Ni 2.343646679650916 9.104056790916253 3.4666043476374453 0.2220798068870175 1.4095142342405533 1.0004620056926123
Ni 6.512170176257373 1.4736550885678812 11.019216832044568 -0.04562294004543756 -0.3450916665355799 1.8351809314167233
Ni 8.155428243435372 2.4751106422625946 7.621123573522851 1.9857671011391282 1.7882696115771652 0.7132253024922878
Ni 4.012484333301896 4.602786735546894 0.2790782642763814 -0.11778532114230038 -1.2143885873448763 1.3092880050279387
Ni 6.873813558932117 3.3107319676596716 9.726516124311615 -2.1003565410519505 0.5762724072826011 -0.3909375212251009
Ni -0.28646741067144027 9.283565409100744 12.537464806339159 1.2120686809624481 0.736845513014389 1.883187541202989
Ni 0.8564075037709064 4.0290797350446335 7.24075254259606 2.2884425074920265 -0.610897196445322 1.4906559360178908
Ni 0.11048704308511495 8.545526151696775 8.586711497409901 -2.432590892008888 0.3915509864393837 -0.7064825844518156
Ni 3.9442229584489272 5.264446600921128 9.588658186536533 -0.961705710860021 0.22841783328990337 0.5407503031165913
Ni 6.7829120385589325 8.540513437344721 12.267668356707674 -1.7531192889282776 -0.687834373223009 1.206401969594974
Ni 3.061109850385516 1.0241417719571342 10.232823310240164 0.4781907352168152 -0.7633849540658144 -1.4391073745166376
Ni 6.84581054621908 4.562058431436455 2.277614304065891 0.2221831652341012 1.0847761916606609 -0.944320168393722
Ni 4.732776370407968 6.537970911892945 12.712720910418 -0.907562134938082 1.0900816630339742 2.4336165050599248
Ni 7.298429165654536 2.4310743152617387 5.60000820423284 -0.07007978753622124 2.3117590707307802 -0.12784193404735403
Ni 1.7453368348104505 3.210127527777825 13.32836239942166 -1.0454845931498897 -0.2522679004346236 0.04768856432521464
Ni 7.103394033346498 1.7609923526121778 0.21195396470106523 2.412173761805117 1.9483135842783608 -2.126027977676126
Ni 6.928216252929408 1.0300851557017567 8.709558935774142 -0.9089047650089055 -1.3083415819542692 1.0444224704339626
Ni 3.429184987872269 7.892620107341752 10.803812018952247 -0.2995543442254131 -0.9674726952507854 -0.010070496862124592
Ni 1.276878406604441 8.97175430439642 1.2677735112896167 -0.2333286403279594 -0.4383561197183805 -1.139664101947792
Ni 8.737842992214638 3.861550029833803 1.0305947202305594 -0.6692386124986925 -0.04670151782159698 0.9328291370349869
P 4.483412260490168 8.456541257399378 8.313031115610418 0.049152550465250834 -0.9526803674329594 -0.21907084485736467
P 0.820735222390196 4.031411015800276 4.366405002928007 0.9192164313475588 1.1418109730874657 -0.4244477371674045
P 1.8318338010287045 6.289214962172269 10.523510062642863 -0.4874047976159154 0.6679695159782818 -0.6015849179054608
P 0.17874841793808452 4.9008865921706 12.897686384189415 0.7743800196247373 0.3114999466230635 -1.3307757425880695
P 3.305138736755817 3.3444664295031816 2.0759115245057447 1.1381134696312203 0.8922697275553859 0.21792156174426988
P 0.40196624665376507 7.987354879866507 3.975972606558186 0.6354856844179636 1.0009641421400115 -0.4992892077583273
P 6.924567291746662 1.5127155594104484 3.0258273444038712 -3.465731104660812 0.24667189440408482 0.0941280867346766
P 6.304713832650494 4.662902449577775 0.15292280302172143 -0.26527459710693674 -0.1431579955791341 -0.6471163266783566
