# total energy = -340865.526608993 ev
CRYSTAL
PRIMVEC
9.29003085606829 0.00000000000000 0.00000000000000
0.00000000000000 9.29003085606829 0.00000000000000
0.00000000000000 0.00000000000000 13.59689920856207
PRIMCOORD
 96 1
Ni 7.974060783453492 3.5205129146689114 12.284540319797145 -0.9550480963341875 0.795549711723817 0.12268044445107257
Ni 5.014210518045137 3.603686560488032 7.007827904247392 -0.5551950177870115 -0.5309970803845694 1.009594821231816
Ni 8.99136560702356 8.448567687005735 9.482694898361938 0.3042291239932632 0.03973768490925414 -1.3663119878214662
Ni 5.095572607856805 3.7189665527777085 11.513269885122401 -1.2802270831062406 0.6080993219852108 0.5980095418493765
Ni 1.7551004902363196 6.9579265037651625 8.860201520059302 0.007269794188535867 2.2482592504049217 -1.3315702134649066
Ni 6.130788610823641 2.676392845411369 3.304889441621781 -0.7879410461386237 -0.1470773852381983 -0.602411270461498
Ni 7.990996509615477 3.364291756610793 9.867922747848404 0.620232357803319 -1.606017478210047 -1.5658812723107935
Ni 6.796911689810398 7.944444165239333 12.950203542258933 0.52971461412772 -0.07424446043687212 1.6198986070675137
Ni 4.782526439738083 7.019714498665527 3.3907265392733987 -0.057942123732422794 0.5171352348008126 -0.24673874308627827
Ni -0.06600845589619116 6.759602926087669 0.48067920002071485 2.1916067920182 0.7515154563217379 -2.135058206199194
Ni 7.616088026349931 6.459720731623108 8.642909557479154 -0.5138941021556955 -0.4345210622430065 2.2072319001499663
Ni 8.878213031788793 7.537206374763852 11.660143414182063 0.9007340562726551 -1.0083817747603214 0.6589824819883232
Ni 1.0173698537857214 5.285432967468708 12.62854179956938 -1.443512702673185 -0.5563041916907903 -1.6891170750447038
Ni 0.6353628579802002 6.402364081417897 5.414026502908544 0.6308641264855522 -0.08115070063840217 -0.598314217573989
Ni 7.755958730186933 9.040342649440449 6.792847301332136 1.3384440577666046 -0.46701929198102793 0.22092075358190985
Ni 3.933408333906131 4.962725167310236 5.310010672972904 -0.09194984813643518 -0.701306953788147 -0.2478872548684247
Ni 8.37685793920301 2.976284329906738 3.473504429780122 -1.4314665701419282 -2.632630688376731 -0.7895230459137628
Ni 7.615939385857011 1.3671023535630724 8.601819751217791 1.0807904675400353 -0.6979694047744818 0.042372294318623806
Ni 5.607657686025193 2.507658015855612 9.181578058803067 0.9080899824170943 1.0898890874071938 -0.803649458012816
Ni 6.116983625043767 5.268822392384983 2.7308695860662695 1.0892866779365047 -1.5278099193603687 -0.7084803316081346
Ni 3.5013011309591 7.263940118562642 5.21823167161684 -1.4293495237989255 0.5503261197304845 1.3780711852399234
Ni 5.3815662062642255 6.084394196971225 12.22661697771268 0.6134572438630145 -0.021345298444995497 -0.4475940933768807
Ni 3.828003644364777 7.8070446095971135 12.606528142568038 -0.9885562553939619 0.8066661333519526 0.4662834422562679
Ni 2.794524877158933 2.096852853550069 12.119134108279697 1.1926614800804298 -0.8080385882194472 0.31191363712171444
P 9.531571608446107 7.530591872828947 7.269188056965771 0.8685677559527557 0.6009053753399328 1.5253874259618052
P 3.6986399653710027 2.912879869645876 9.929787850004471 0.47882708324923345 0.13189682084301801 1.0275997424496688
P 9.197985182212108 4.951735060865021 10.572717438077342 0.14222931311727763 1.1429031777103802 1.3854494799818657
P 6.474464010514534 2.2289756716936564 11.152326176166616 1.589695601121572 -2.081789319572724 0.5901005714149451
P 4.580366079337113 9.104053680717957 0.5658074683217237 0.4821486914232987 0.32291924420359874 -0.16746186243182126
P 1.5774007809513713 3.3107718891290596 13.436619336303249 1.3491943543045732 0.7770375118522423 -0.01950747390530834
P 5.587479739111407 0.4204881614161503 4.418665661108758 -0.7346575042241347 0.6731294629126665 -2.2216606739807867
P 8.43502282208847 1.2210816493315364 1.5222133529397004 -0.20664316061697316 -0.9044017349322295 1.9232191032035784
Ni 1.6455988971088789 8.824637424122214 5.8645196058266045 -1.1178516340583908 -0.8849857922994631 -0.4808654538355009
Ni 7.878689327184185 6.540070208076762 6.45253117678122 -1.793591795121027 -0.695780367542963 -0.7105297579379957
Ni 7.47482381789181 5.480941665811542 0.15700988167367136 -1.7667895873265187 -0.9632956810549602 -0.4752043988949816
Ni 8.301274248553579 3.3040273267628493 6.441571727437669 2.635409793783764 -0.8442363782962429 0.20814108531873832
Ni 6.0469275027247695 8.92084498316419 2.2878818990375502 -0.364950610243036 -1.9647269926393778 -1.8027613774354372
Ni 8.975581844681699 3.1605520909725553 0.8607873135291929 -0.6848943167580785 0.7498429537153215 0.5579196158070263
Ni 4.869276747418073 2.190254823288195 -0.07441779178309703 1.7151191555354206 -0.4054675965204759 -0.876306005137278
Ni 3.5503432035916407 0.28432325086824056 6.744306890363199 1.875298111152583 0.5200614073086721 0.6465450275559188
Ni 9.159320073991491 9.21154862719099 13.636058646680715 -0.07774861693538869 -0.9671209683383215 -0.8830068141962212
Ni 2.092384348731685 7.127395245754708 11.232276181295552 -0.9573181233152869 0.02555213743749148 0.1142351418971968
Ni 4.985364972387997 5.220458492001387 9.478289565753045 -0.48168563574395107 -1.2999176195566322 0.02276403316939305
Ni 7.012031643187764 1.2527792344465638 13.450256172525508 1.1223749758500412 0.36336295404094193 0.2943170070858737
Ni 2.6971467742352173 2.6958647499837887 8.042225455500093 0.11360110785762373 0.2957318851555294 -1.440896090985944
Ni 7.918655039717846 0.40495058489068625 11.208358996981765 -0.8954653516745481 0.7512172083550287 -0.03963484078280271
Ni 1.9234822986213935 4.946792764475455 9.79251370977815 1.6958950171984857 -1.17933313840264 1.6315382481889706
Ni 1.1811345168594913 2.2382935725935313 5.205028679833289 -0.6302084951794242 -1.9820582848289736 -1.5394927550149358
Ni 6.4117377225026155 4.098278510645987 5.285345641179117 0.7422713120156507 0.3181999843510584 -1.1331347854697067
Ni 7.571542328628197 6.601402991467563 4.11984717517165 0.46699846604542156 0.20366325205304278 -0.5590573289558952
Ni 3.539891918933257 3.1741526960746658 1.2852376730847215 -2.221073691129065 1.0744496129236722 -0.9250662052601165
Ni 9.540118436788964 5.063410521201405 8.32407570016739 -1.0045783418538312 -0.6723295927191905 -1.3703810156845173
Ni 3.083509865486353 5.281493994406349 7.5685370036619855 -0.36789786579681805 0.02429743909478396 0.4341348825481814
Ni 1.6777516937334715 4.86097145987621 1.4362136797489526 -0.013316000382615777 0.8941787716526407 -1.8090214994125362
Ni 5.805414571823431 8.127717893008754 5.843974702695923 -0.6101045253406976 0.68458938392315 0.07549864455894739
Ni 2.859257811825261 0.94258510578573 4.074854626968078 2.0218455920292406 -1.310878232333194 2.8292401189067853
P -0.09365372957300785 4.404877397384338 4.58040138145418 1.0299168206186198 2.1747416408317446 1.2159425620955573
P 3.1520424227529293 2.7381251001268896 5.904671118976414 1.8488666564339322 0.24480861594310097 -0.6484157622160704
P 3.522250150429905 5.486487814203592 11.23254837919821 0.5340330389974158 0.5620464934912062 -0.2302104064139519
P 6.837871435640455 7.664424056641105 10.859938249554427 -0.6506791043289504 -0.5791623272358865 -1.850246310390278
P 6.7115363066899105 3.588413749840581 0.943999977477705 -0.4906374456206002 -0.6352859097023317 0.35873959633631763
P 9.167179440054596 0.680481750602754 5.390259817093838 -1.9307665765335327 -0.6485479169185605 -0.7956852088604167
P 1.6511357554701205 7.75556854889302 3.929122842694653 0.9966374897401996 0.013938464457963092 -0.1318633965019213
P 4.257481768593299 5.071632198466 1.6983616270798043 -1.1391110576577994 0.6301925543398242 1.082988760742935
Ni 2.0765634262665933 5.414740906277638 3.684011882861588 0.5926436495517728 0.9133268053360013 1.1181869059106226
Ni -0.02687977513828262 7.42610689633753 2.5407574666194837 4.19279408436714 2.4093545471887667 3.087096054952148
Ni 3.698770025802307 3.246735706773291 3.634165293561122 0.12243464698885365 0.27269300105819494 0.5879997230218582
Ni 1.2632676792281774 3.384636924079113 2.9902844063335685 0.6244505096497246 -1.9298466358224247 0.7198667190682054
Ni 4.376189782250925 7.432916488919393 9.84822045051196 -1.0268548938638444 0.28748378621412424 0.5701963762918503
Ni 8.868291278886431 5.059694508878424 2.3663362092064855 -1.2838191713328728 0.5991074028992456 0.7451725448228457
Ni 4.524170682982833 1.2313471333737713 2.255399306319293 -0.3314380803078873 0.3766599282601642 0.06216104690977682
Ni 0.2989875644978041 1.9540000498238743 12.353897831799422 0.6969052251760256 -1.3147228028902649 -0.5081075773809056
Ni 5.328938181740008 6.2186630122313336 7.3277087480311565 0.9248450903882459 -0.5713438596327322 -0.08322506666892765
Ni 7.093031421797941 1.6944087189712334 5.410940354674309 -0.7965562986114604 -0.9430646987200662 -0.2557203777595983
Ni 5.298819901862247 0.2966669148021025 12.06236644602768 -0.08352228619437228 0.7016010879897981 -1.4728816427536053
Ni 2.3360804368727743 0.041449330453610135 10.274836316248706 -1.0820801328857363 -0.09764252764583828 0.4306494951027422
Ni 1.2438143547173723 0.6651364777150042 7.9719296503862624 -0.3626240189923884 -0.46648218853063533 0.2648837894264212
Ni 7.710641959908181 9.164643261644162 3.6028244456291008 1.7294065186923702 0.9241699186980923 1.8326242264331407
Ni 2.0323521696539273 9.15024371389261 1.0950837484993026 0.5553809085455725 0.5050045129755497 -0.873834917888966
Ni 1.3579238031253094 4.058498598728477 6.206386236519285 0.8038219790349382 3.320092508751669 1.6558585701018902
Ni 4.438349378383588 0.5842240253944172 9.631336320284257 0.23672841003812778 -0.20628886260134796 -0.40646235633357736
Ni 7.025799468844408 5.188045574514185 10.742515976160552 -0.013610905915215268 2.044298007495486 0.6719202730959137
Ni 6.1380905750383 8.243295166284268 8.538158886106643 0.07187673153564395 1.338852606058933 0.5051659782540784
Ni 2.4799179838645595 7.163951516982033 1.9473753288550801 0.7460372068159861 -1.2760611246540088 0.481403328616842
Ni 5.030551682235446 6.882333523084922 0.9722955533110433 0.7657552540702037 0.8872558192805623 -0.31569572987196604
Ni 0.7223686415073951 0.6071109452916568 3.148783479945675 -0.9767898588866533 -0.2472182538258581 -0.26235150992287076
Ni 1.7163982218924732 2.518889663101822 10.117928624913915 -2.468798709388013 -0.778314321682137 0.894471363192395
Ni 3.161388193745226 5.514450806934024 13.409778579294358 1.5379945732028546 0.17476250985829256 -0.5663384359983409
P 5.789398558711383 6.118730150835569 5.178270604098584 -0.69513836308359 -0.20750113774189424 -0.9268181549542167
P 7.549125484289815 7.00635543436441 1.774925415979423 -5.177139901224181 -0.3820458751624259 -0.5974148456881712
P 1.8191366725920886 9.222529443605398 12.465459953759956 -0.13258047717360394 -0.2174315094817288 -0.7356990581147718
P 7.147396682083152 4.46095202333812 7.623495896915792 -1.9066360020339164 1.2953330855097434 1.6751832385724312
P 0.3558518430702199 2.5872828699062858 8.444150277356792 -0.6308139899739071 0.36403735440014723 -1.0269322840689992
P 2.4230351252305287 1.678234775335459 2.241190204199295 -0.9951843022334408 0.08682872485978595 -0.6645977712925715
P 3.6127071804020687 7.47391339487268 7.577986822999327 -0.5171465476547222 0.6017288996824927 0.680628342392873
P 5.883924622177211 0.9710218900873416 7.268793230656455 -0.5615996357617747 0.2626605565228573 0.7958387037191454
