# total energy = -381174.08028437727 ev
CRYSTAL
PRIMVEC
9.18281154124251 0.00000000000000 0.00000000000000
0.00000000000000 9.18281154124251 0.00000000000000
0.00000000000000 0.00000000000000 13.43997290341844
PRIMCOORD
 96 1
Ni 3.6995711242667775 4.925099973237984 11.184328398167658 -0.07957949949654038 -0.10272945525044241 -2.2266704684905525
Ni 7.510722591888811 0.6741111154426543 3.570234896464832 0.56807650173537 -0.7941718575396839 0.2366839299534375
Ni 5.503589553548335 1.1073001500411663 7.744099156468034 -1.1927812934877458 -0.07490909060406453 -0.5308119609569567
Ni 3.0210807259876384 5.486830922437863 0.6159967741573218 -0.30242163847087916 -0.3868193852916693 0.6422451146289843
Ni 6.619347073043059 4.26079701883045 12.012527091710979 -0.380236589867829 -1.3036554893325096 0.18388144144042526
Ni 3.135232256581762 5.771498081026699 4.7088153758291265 1.0295771778910139 -0.22708985850709923 0.2993823374239231
Ni 2.1366198642521264 8.075685890760408 5.977185713886797 -2.4150353996236276 -2.3860027598367037 -0.4096543809083138
Ni 4.319052775413921 3.571388257597695 8.247076640697493 1.1534228462947813 -0.08882081558915025 0.4910207971019479
Ni 8.417001813908422 1.7334668880093633 1.607998460439599 1.0657495140465127 0.25806136718794914 0.9213938986148518
Ni 9.15052480191088 5.547758877187441 4.058858727933314 -1.3982594872623404 -0.9612683662122864 -1.4699086761682103
Ni 7.280775807430003 8.67399197843317 7.252276951730634 0.4564091205653495 -0.10876100615650303 -0.8816893809363783
Ni 3.6066135227701714 7.408389339781908 10.59756694119741 -1.8937365203634289 -0.289208739325031 0.18405576223476044
Ni 1.5348794050531647 8.066200046411304 8.708134590121851 -2.8166365712101618 -0.7429976486587139 0.8847849891425664
Ni 7.578978430269159 6.593828039697305 13.100277954206346 -1.1078356445832855 -0.21269142369358207 0.059229475085278635
Ni 1.5868173872782763 7.098515363440609 3.621521817349816 0.7033545803457951 0.12543898103281623 0.18116532806084285
Ni 1.5113714074406674 4.618981766827744 11.486553092473327 0.2610497603923117 -0.7569204293873932 -1.381585111930453
Ni 6.969753979642782 4.696934654223248 2.941176491134066 0.6871430035829392 -0.5448542979826358 -1.348560063154684
Ni 0.42625601186513873 0.5468189814956078 7.390251450374015 -0.308311778703069 0.21483700928167515 0.7356522640372363
Ni 1.9215308689093424 9.018218852848042 11.07986014237134 0.6521993976282187 0.28168363459257945 0.6259659178529864
Ni 7.416066170252239 6.292705282779722 5.823580233393418 0.42564535701993145 2.8325493857856765 -0.3734231664904214
Ni 5.584600317195777 2.1370239079610913 4.640527397608293 1.0261655811063037 -0.9277866895150731 0.6818395890921547
Ni 4.497337061994638 3.939315968667981 3.46162611093278 -0.008325232036243727 0.025501486705214148 0.8407185949509713
Ni 5.137296382937043 7.4080220273192126 6.201014909279415 -0.7101698034954156 0.0013742546397073107 -0.13166465022755391
Ni 4.0515574744560885 0.7596416589435617 9.711482558376785 0.6344770406477912 -0.3345308603005981 0.2741711282656182
P -0.020748562736499162 3.380119475460699 5.985747767392224 0.43758273188746577 -0.9671304814200183 -1.0628673074027115
Ni 1.5380382922323441 0.5957955069902385 0.3323636001509734 -1.1493484191150916 -0.7308257891828704 -0.5996463061218512
P 8.715048328950934 3.4593763220987714 12.310894086877193 0.8868783813364856 0.3622311544293439 -0.03995700000891183
Ni 0.5577373444492247 7.238746078886097 10.758026472244683 -0.7074806866990268 -1.0930515442955757 -0.09381749747279326
P 5.614600562586413 8.932166725650108 13.513758838618942 0.6327104356656716 0.5882622326546256 0.012369834419262567
P 6.530209521158485 2.324986877933829 2.7402630020078496 -0.30154000719687424 2.090539812071845 -1.5886949277711995
P 8.533614338002604 6.072400450466665 1.842822236121843 0.08459237933009948 0.06586986321993171 -0.5145703022871138
Ni 7.547839516244168 2.1432590370153433 7.948009915289845 1.8805177076803097 0.01644169049579104 1.8573806074422141
Ni 7.365955567529037 4.204653308907478 5.114729623510202 -0.26165037009078806 -0.9764065074053054 -0.4673627913633757
Ni 3.68167382452195 1.0798343606431273 11.992863937301745 -0.26090706416686027 -0.903432943261057 0.4037634693451756
Ni 1.9673714642537123 3.710700691886444 4.058387649699907 -0.4041303657662911 0.5525907473949451 1.0679889448999929
Ni 8.94692350383889 8.478710307641228 12.583631854958842 0.901945302971937 -0.6515674204711747 -0.12947715565793183
Ni 5.753196737572907 5.997321783091752 10.311160558097713 1.0596356878392912 0.044328132493413976 0.5578579093311553
Ni 6.004640483910955 5.6633429263860755 7.674882795997738 -0.7746034484894531 -0.2827241600419518 -0.45320501180575495
Ni 1.4684693117978596 2.1602472384149998 11.445548165700343 -0.47147347109763965 -0.22379987490191783 -0.8860561425455064
Ni 8.268782052399313 4.717210302164028 7.352740583402418 0.5777268803409406 -0.07275733436838437 1.1766733321822895
Ni 7.657996523806481 8.773368365215376 1.0607488050814808 -0.870689430281449 -0.8876520262777164 0.44004662004692596
Ni 8.938916092152134 0.4833106566955953 10.487143632099645 1.1458311499904525 -0.41140787326431083 -0.5626705002284502
Ni 6.047368106133983 3.3392835124205527 6.7173386918409035 -0.3271559079927656 -0.5097227443868254 0.5739265327582438
Ni 3.913897946249468 3.1836715875997004 12.691272772151692 1.0238438749516625 1.2688561222651373 -0.10587262886511442
Ni 7.698088679109669 1.475071753314807 5.809347793745133 0.275420427291687 -0.04955235700683079 -0.3358382662581119
Ni 3.462590306147355 1.720904801785185 4.04271718176017 -0.029174050460794916 -0.1965829481674937 -0.7417632620309805
Ni 1.5003887648060787 3.536346648656566 7.496359756316268 -0.38509777461487227 0.4326801523795258 -0.8977724025411699
Ni -0.13942446458987126 8.612457958120142 5.097056384367619 0.5445956450046106 -0.04247796665855265 0.7912202311105277
Ni 3.54243485272574 1.5841268234890333 0.9346706388236424 0.9055440760667888 1.7396868175724556 0.1989031116602381
Ni 6.022602063336754 1.5438693775776315 11.627807691408579 -1.6116857322394178 0.5527355005029255 0.6717814335252044
Ni 3.385243484315298 8.314613464932116 7.898282235809003 2.049651301387599 0.14970016757302607 0.2584362340288646
Ni 1.2984862868740552 7.206698066515934 1.253407864889778 0.16108964035689033 -0.32073920583314436 -1.3876061213135522
Ni 4.025000783403221 6.125789316919423 8.845276207756072 -2.0637388898289166 -1.4241654084948245 -0.3511229603313243
Ni 7.753121268832987 3.8488744575408376 0.8629602267316446 -0.4490321113749879 0.7760059852639345 -1.1965878117180295
Ni 4.553462406294475 8.355614718580474 3.8510360913837993 -1.3012227115213009 -0.7479166832268861 1.559288192474308
Ni 0.49323176631299465 8.831596573364143 2.59919665070973 -1.622704966168057 1.3026453029004406 -0.17387933592239088
P 3.562306456957554 6.212318950318862 2.740773566330996 0.9304351828815136 1.1700583979689332 -1.894204204028467
Ni 8.164024538038621 1.3935834834658611 12.864231028023328 -0.05552245854733664 0.8336447188233256 -1.160052692906473
P 0.007895381385634866 7.234953577708768 7.000895648511244 0.26542449242123967 0.5055981806954906 0.6131618241097827
Ni 5.539962670166734 0.2755522998270524 2.2817046138921317 -0.025072883808227787 1.26027146591992 -1.8397405257629476
P 7.381777551859635 7.381474519077912 10.763926428676726 0.5056125788731938 1.137527001000131 1.741935761507632
P 6.382145867446021 8.745066939964705 5.0460376015804025 0.6775695009618911 -0.13513358261276082 0.3760714027465459
P 2.86170384842416 3.6320958248696558 2.089794871507733 -0.3447144857018193 -0.9718106605045069 -1.4515839097170935
Ni 5.871737652096238 2.1656008175587833 0.5236305457256553 0.7076647776853748 -0.575886227587776 0.5467594854251486
Ni 1.4640156481876794 1.785965021740085 2.733085716486784 0.050904757269667165 0.306564199884343 -1.035212007579288
Ni 7.712312854227544 6.750486805036839 8.817979382090872 1.2780478160667343 -0.09760833197379318 -0.6366948742347164
Ni 5.422211477438198 7.861515176574362 8.51711282561602 1.7358641013922556 0.7501337454828629 1.647448491661324
Ni 5.566124500322204 6.125348541964189 3.958098491447904 -0.33670138558935564 1.1445666814557318 0.3888320448463239
Ni 3.2345168152482935 5.378271724088275 6.882368508205263 0.035346240709777835 0.049661628891185444 1.392070584842809
Ni 7.739980665480064 7.561127044582169 3.469931963995477 -0.9271207737963001 -1.7299009418302853 -0.9852361898817935
Ni 2.954082932792021 9.104261797234411 2.1570883512358203 0.596176859516012 -2.4479614609276874 -0.48499644528473884
Ni 7.73522396908816 2.4411494442612085 10.525178837611739 1.6872828500494423 1.880200433550207 -0.20966086439737439
Ni 8.517232202166394 5.137369845429582 10.762447996014377 -1.2299031380407077 0.04018891351405982 -0.12730765881043882
Ni 6.825464461484512 0.5074008445614647 9.745270713538966 -1.071320323266071 -1.6348565139289264 -1.814557855849733
Ni 3.6806820808726726 8.021011430688217 13.234623405718299 -0.7464825218835209 -0.31328197822415077 0.05730988946506259
Ni 0.9641309348941167 5.563654324010579 9.056955625163885 0.40092317168290303 0.10930890824017304 -0.9721461894670547
Ni 1.729536644658524 2.9790142661974626 0.13610671477057623 -0.783834737279734 0.9704284354449996 1.0026901236921828
Ni 2.826827530091244 1.5841819203584375 7.987215010995625 -0.6947704382212099 -0.005661826271467669 -0.24736892047110948
Ni 1.525265001342116 1.7057898939452747 5.598393818451141 -0.3836926667372295 0.131564891424896 -0.2703442983203602
Ni 5.608980681907176 6.988569560544347 1.5525857023173903 -0.43636248632711944 0.014550901230981392 -0.059585058652484486
Ni 6.701964828714794 4.083605486826252 9.149422864522794 1.9157793590960814 0.5399131519272765 -1.1120656235042332
Ni 1.1186041910806133 5.632663152939454 5.909918864312255 -0.3908223358034753 0.06424878267674097 1.468609754851129
Ni 2.5604158008983635 3.7419038855924076 9.515756439504983 -0.9859661260692825 -0.3702853921923881 1.2380219104931
Ni 3.6699657397735383 3.1623858303865093 6.023473512154498 -0.029839194848619573 -0.3621787039248537 -0.7395145752061199
Ni 4.976679825811967 5.669862722598917 12.665709661310414 1.2919122327536525 2.1501014736855617 1.9347736408103966
Ni 8.761274602381134 2.6596636283186257 3.8727819074565164 0.21203142151208001 0.9030444495733867 0.3689193650827969
Ni 5.383955884448485 8.444541065799 11.184315542231465 1.9774130727474784 0.38666049111630185 1.4202689016538959
Ni 0.5596978747188608 4.1197398503438984 2.080010585782688 0.5016787910364263 0.4081780534731035 -0.11143058256886618
P 5.279795252839673 3.4047294104612824 10.32904959331213 -2.228349398854872 -1.009438241049294 2.1168779357457415
Ni 3.6435743393288833 0.3560791293048936 6.099933274389146 2.4584032250863017 2.5920036588839874 -1.3609316973461594
P 0.9331297630426357 2.2125800815375083 9.201234123948277 -0.20478733835515697 -1.0570836108413988 -0.018474918875735925
Ni 0.4473599494092956 5.46166083593167 13.176227152117848 -0.6948714825754484 0.4608103349568387 1.7987208888174766
P 2.153038731334605 -0.0028641189278663815 4.042784216284613 -0.6730705846502731 0.3347715155564944 2.1327606684142686
P 2.1987507673170312 6.678401734232892 12.176951760793047 -0.04920731496258622 0.04100266766460681 0.47220186462323194
P 5.134761926944445 5.0553673381328625 5.743142477187781 -0.3677451422690376 -0.3398679562427953 0.08545729843355605
Ni 5.2098865083771955 4.395940456667608 1.2614841476632903 -0.19418488024896235 -0.0809360135244348 -0.7408744316681241
