# total energy = -340874.9498700004 ev
CRYSTAL
PRIMVEC
9.20215234486056 0.00000000000000 0.00000000000000
0.00000000000000 9.20215234486056 0.00000000000000
0.00000000000000 0.00000000000000 13.46828012451482
PRIMCOORD
 96 1
Ni 1.2592133411813848 5.1743335225551785 5.546695861412539 -0.5138385663274118 0.30731547622807076 0.9418740208460746
Ni 5.577231363937713 8.8833162865567 7.027694880233216 0.6934653462565412 -0.9276352515388733 1.392184484712854
Ni 8.981705700714297 6.264567738018649 4.029844336372313 -0.4038876536278657 1.0731008122052617 -1.4972965812628602
Ni 6.614369159677152 1.819063095009857 6.564722626912314 0.9342450435459073 1.1291901989996618 1.312617583621804
Ni 2.1877565356793545 4.9091274885089815 7.952951986085874 0.6024498370089173 -0.4937227694141433 -1.0396466463118739
Ni 6.9258528184706885 7.775055054413963 5.183820021531522 -0.4959524300756104 -0.2877411536405689 1.2714835325856553
Ni 4.2493331567562995 6.170236473098192 13.193082739197509 0.6568271262082171 0.7245512690280683 -0.8071345883479388
Ni 8.972567963316385 3.340896665394726 6.705277223880565 -0.42997766584669816 0.5326536421513859 0.09219256027486057
Ni 8.37412438204899 1.8402648542896085 4.821914088520335 -1.186499574244092 0.8811599907954695 -0.34098458634574175
Ni 2.1805328459941964 2.9822151666073333 6.454996160917628 -0.6516255274026197 -1.075387294246593 -0.09797908504965062
Ni 6.339215598816107 6.459607359517925 3.1705408976680216 0.8508903932776507 -0.9099769150271619 -0.8689932735259487
Ni 8.283234722150505 8.442303129663433 8.450780152514348 -0.1257742528850479 -1.1367831808555713 -0.8539988569996453
Ni 1.1924241185891817 1.8443782164415394 2.9455666741995477 -1.806666111806482 0.6694324736770536 -2.0952716703298755
Ni 4.933227925815261 2.6662592617157244 10.610809682600898 0.666995839211103 -0.021589810355633787 -0.902217325686401
Ni 5.59497311389056 5.171315216546603 5.137354672873893 -1.2732529657812524 0.6522353930724767 1.5981481027642994
Ni 3.198438143081431 2.172168089403357 4.0637846353096 0.6309451162351327 0.9100422210474584 0.6813904173698782
Ni 3.1515807827287854 9.11321366159404 3.389992909442147 1.3460756061699333 -0.6859168444853219 0.8623629126936245
Ni 5.912797055732598 4.30269643890182 0.48042137482535796 -0.08596817663170356 0.17911693017224636 0.4680726729462068
Ni 1.2720043331079711 0.7666175186446073 7.917476768117398 0.05832856053756406 -0.01969310755355318 -0.37456139385992265
Ni 6.880569026189587 6.394584950199034 0.15591298943262025 0.5985615576981046 0.7824723097145686 1.1323151177818886
Ni 8.679562226672909 7.421812027733486 1.741799062266551 0.7363207508591706 -1.0119527799410315 -0.18607536376795053
Ni -0.12137915166133063 7.40149367509039 6.0404023837518634 0.4064273893305839 0.7381776015622512 1.162803773289049
Ni 9.081392618369483 5.646265911731418 8.152471215405194 0.21168612235751932 -0.29205392208330994 -0.831573952337226
Ni 1.1262238337547494 0.7178405892877276 4.888366512332311 1.0202127059569785 -0.7639552247469876 2.0786566874810135
P 0.8213178735433166 3.2856837506037064 4.475334340439886 0.3741299627494589 0.8614172609509035 0.8579668405084578
P 7.480328515259501 5.964964058057646 6.622878390061695 -0.6110530052968961 0.1303418176510723 -0.41289371378121786
P 6.264917419812325 2.2127587839272214 8.720819157035251 0.1980407636599428 0.3920685495057506 0.35094966797825367
P 5.63423869845944 8.143141153020759 13.384871240230842 -0.5691149703022134 0.4567832160753165 0.2925681427155671
P 8.792849925671614 8.987972366543078 10.885535343372313 -1.1766216530087477 0.9191025314775139 0.18678910200552346
P 0.8398546894691551 2.8510936961311275 8.519292938263277 1.3267432243899087 1.3474652874286084 -1.004002157635387
P 3.442221566188712 5.353609856881619 5.769851739553896 -0.09161971849052608 -1.0401343845815698 2.06129865581854
P 1.2590385002845468 7.998566135640475 3.830742884774911 -0.6289679379041038 -1.0051475840937398 -0.2994643556147681
Ni 1.5398973956739974 8.469412670825823 11.893744332407 -1.5223028734992106 2.4321823437165597 -2.3395735218398865
Ni 2.1833118960386777 6.57015281708201 2.31744615123198 -0.19646981962839713 1.1332947080863387 0.4133513701439268
Ni 4.053916247005951 7.913630268386957 10.88942785386508 1.9359437498590981 0.07759460785602766 0.8070520559364617
Ni 4.702106664500054 3.8760018312443565 8.271907792681128 -2.50267196509669 0.05651927524296718 1.8305951118182537
Ni 7.480687399205642 3.3286393983111195 2.535565691329149 0.7591840286105893 -0.1532467472737038 0.6460246362760745
Ni 3.0062971996086834 6.642822215099457 9.279173561088133 -0.5024609206180896 -0.10548542072902477 0.6593362657833161
Ni 1.4557805199898795 8.97373663667946 1.755778972291637 0.0637031945859161 -0.1882453748360758 -0.7037515586738976
Ni 5.429904902970342 1.5007238326297694 2.8266150503585292 -0.8858663951322033 -0.23276068363963143 -1.1721055103059492
Ni 0.10882925612933192 6.660784816711469 12.648007961367115 -2.4698173804605146 -0.7797592816587797 -0.8540366522161162
Ni 4.213131888958321 1.2860652220747508 8.550202968393783 0.9000262315723533 0.7563804977235232 0.4172589327284491
Ni 0.4675374411588736 2.6842954805474575 10.578714415232879 1.4264848006566206 0.18169446109143547 1.5913128250100206
Ni 6.715905709977837 8.837103076876618 1.9546512902926565 -1.3122031217922046 -0.46070543394785823 0.44219400540723197
Ni 7.588260561523478 4.526262733043122 4.77652539170113 2.2018474959096017 -1.3254856978337237 0.06438839357839879
Ni 6.822733497945994 1.8916128650452566 0.8352674164652678 1.654450891121086 -0.5639948754668287 -0.8831585092827371
Ni 0.7002976058281277 7.42450825840578 9.902418783679655 0.47790508565559636 -0.31114513438680613 -0.7566075261326648
Ni 5.258247950885063 0.8383795844289883 5.111414725289826 -2.103642153781758 -0.5403196433370759 -1.2352507755058661
Ni 7.602201822508212 3.7148629394267663 9.921974277883386 -0.733880259738478 0.2903857903522677 0.054097038954719734
Ni 6.548776216905421 4.122582708701049 7.305787608591637 2.5331567639491084 0.4752416798908203 -0.7871123795897412
Ni 2.8153525359564076 4.748651151668883 3.7673474160118623 1.375820955753166 -0.9724395523377576 -0.6549409649290978
Ni 5.343229828900907 4.033717522344903 2.990874392077058 -1.425177651809423 0.6238640410186352 -0.35282528773441174
Ni 4.514796851071521 6.490066484177637 7.596473482598643 1.279436468884145 -0.5252570925769986 -1.327266186772914
Ni 7.976453363266671 8.92254506251572 13.466462125063272 -0.0814746596367242 -1.589589928781643 -1.6761515160229714
Ni 7.01175491173305 6.148013274894806 9.08575535885322 -2.0492342684548386 0.7656832631816878 -0.585219846283876
Ni 2.945259322307211 1.581527933426426 11.817083040650163 0.4066631594904738 -0.17911410195876895 -0.7523340955682914
P 1.2384900938298224 3.668934996473103 12.395087721077168 -0.5170071938633805 -0.8177529872937336 -0.010361545739982155
P 4.081439885029274 4.774113507540009 10.226142225467113 0.24724319352652258 1.393259720054904 -0.920591971538847
P 8.196283583507116 0.3632945378181824 6.5651808941050795 0.3513299341358078 -0.7578334281199658 -0.5032445928616495
P 5.3674498941892335 8.300001043942045 3.813422593404968 1.2269859643939127 3.3234647676580114 -2.5480943590955474
P 8.490025492347804 5.816947435655389 10.555872832383834 -1.4213875886393714 -0.4164384937096828 1.0682342281415795
P 3.154967174835968 1.4738719517364034 1.7511861779962707 0.758429666943068 -2.0382453735435027 0.1825339262735953
P 8.016814003978906 5.352183523249518 2.0490101616705085 -0.8104945059591073 0.38739094152442316 -0.6356882873470729
P 6.289781635773214 2.78621852125168 12.158665099726775 1.8193015411823055 1.0299291619137942 1.6218572734557808
Ni 3.3503932867387816 8.678062275821086 13.142455256979884 2.023925871597037 0.4854438172348027 1.7382400578236
Ni 8.449278361232032 8.874923923508465 3.7337982085543464 0.25403681940958833 0.2233594449303895 -0.7405021359303698
Ni 9.064644700882873 3.195751114561601 0.7004687658639799 0.8016247142733033 -0.376077573394133 0.6727219430616026
Ni 8.46552936248552 1.457869408599473 9.03142493048361 -0.9432156224756337 0.5743291675133012 -0.7286951159931128
Ni 4.253096837114554 7.562715386280167 1.8157392775394376 1.5999956974959995 -0.03432037054842477 0.016409294595958836
Ni 6.8311534674516246 7.489944764585604 11.437977364466324 0.8156701366227759 1.3546386652485962 -0.1346898102071229
Ni 1.8881712600232832 5.13921810874809 0.44020704833731894 -0.6546527442647176 1.7144010464224733 -2.030216075481123
Ni 1.1888812898900916 5.015393945176763 10.14560130623096 0.3574977535094166 -1.4151212960146853 0.21769684732797348
Ni 2.348407713416291 6.314581436666847 11.640823171901804 0.8683245295936982 -0.4141959775324093 0.4269388790203744
Ni 8.377768434425196 1.578150743471709 12.187756784530164 -1.7547154297708036 1.0425465935674882 -0.9495891301021454
Ni 4.442559954219937 3.2446789592189096 5.97113502150079 0.8990414990615807 -0.25360024609280196 -0.5509696668517544
Ni 1.1720597551837608 1.3702097042162644 13.296465241282709 0.5689427063904072 -0.1660148455726496 0.9508173460822915
Ni 2.3158504979945196 7.882260130633192 5.710173940386776 -0.21253612906264044 -0.8074991707762093 -0.4652591147568116
Ni 6.013680253208256 5.42301249077393 11.4582874351722 -1.4132338491839855 -1.899125038368852 -0.43650055456688047
Ni 6.7558798602865355 0.3327525937862834 10.131998684456946 -0.944833874805347 0.10997122441452029 -0.32339824072254625
Ni 7.937712301388307 4.500165428651901 12.690716071173215 0.5661234917740572 -0.5686627132561433 -1.7947624183903605
Ni 4.7266856137345235 2.3434293489326343 0.3040869686420326 -3.1008031201255952 -0.6622776077998271 0.3643518003167725
Ni 3.3553348426125775 4.070802196779538 12.066757681765646 0.07677802549200326 -0.47018020620751283 0.9815255737994256
Ni 4.213297527702694 6.854131242157154 4.467414968028361 -2.0521617265142784 -0.9096221027909045 -0.5031594893470109
Ni 2.8508728444719633 2.941155162307745 9.644622322798412 -1.7948120406813732 0.3373842705889932 -0.334560685097269
Ni 2.47860896864598 3.36493268763375 1.5237881075684712 0.8454661369382859 -0.1457604661989877 0.16245489613553313
Ni 5.470256341530113 0.7418508454998489 12.117101737687342 -0.037430376932316184 -0.9462060725625252 0.35154230725693003
Ni 3.2237256580557174 8.677675785417549 7.657094502393443 -0.2119828276623317 -1.4333828133280346 1.2305029764082356
Ni 0.7862641141577451 4.682266823785148 2.566933068437174 -0.969643477649859 -1.1322662668218242 0.7199348533019795
P 3.9543581594852784 5.1135256990653355 1.5153966647354826 -0.022170622559768267 -0.3996836428488471 1.3067675525989302
P 6.315860535859506 2.654268857053608 4.405245225973673 -0.23961627310888411 0.8831819063215048 0.8638451536661058
P 1.6714329630111362 7.418950158316818 0.2266039246700555 1.1983549309207813 -0.7858756789691627 1.9797080394292421
P 3.0303148175427768 0.8708907890884335 6.021937344615253 0.9116774426580363 0.774797309667814 0.04143615565759961
P 5.3637322245933055 8.073296815810119 9.088125833328249 0.3031574881956392 -0.5765567712922393 0.007395006912490489
P 8.716913763529034 0.8918312072381742 1.5918426261246352 -0.10119887753852895 0.9148476128559019 0.7602476939884133
P 2.7677590034065487 0.14306678459124306 10.072132241164288 -0.4607458002674904 1.2184172488882954 -0.70855103694507
P 1.4140395564078687 7.14913384588557 7.637686242629154 0.6777883018409165 -0.22089195722650345 0.6768156535150021
