# total energy = -340861.5907991934 ev
CRYSTAL
PRIMVEC
9.36485363035973 0.00000000000000 0.00000000000000

0.00000000000000 9.36485363035973 0.00000000000000

0.00000000000000 0.00000000000000 13.70640990194336

PRIMCOORD
 96 1
Ni 2.1796322669168244 2.2511048312621162 2.880950249157324 -0.7952108403271595 0.47182725489263255 2.0411316939523623
Ni 6.4623297559277395 8.869424957250065 3.035545255998528 -0.028000084757351777 0.07912801378141855 0.7922281035497517
Ni 6.5912369687439005 4.132953476447864 9.822520780351269 -0.27630977187517575 -1.8662326585162052 -0.5748277044162745
Ni 9.215727886616486 -0.1758719547175804 8.887195703856673 1.7070397209613954 1.1851530875185268 0.1564315727595887
Ni 8.950758712666582 4.0881801103400495 9.70878463072161 0.6605094601558109 -1.835736032589245 -0.6109020815413285
Ni 4.846920566741454 4.99287181350788 12.000756747563708 0.9677778851960299 0.8217083723970559 -0.6314701355006673
Ni 3.5527539581024064 7.2221190759568525 8.241239927936936 1.1696128257910825 0.900239890245056 -0.25134050352434784
Ni 7.9373691512236215 1.0291599752738665 0.22176161140059886 -0.5639192850338868 1.3146040179242133 -0.9240069107576667
Ni 7.8000710293857916 7.01295506591334 11.899699673519358 1.5751066475638036 1.2793027715197582 1.258324112385562
Ni 7.244398063191842 6.007291508870912 6.095350165814729 0.4593085536003315 2.654294289393093 -0.9707791339161991
Ni 8.864864273440297 1.7624280292880596 10.96123549802469 1.007492944397465 1.212940284934124 0.36067023770012724
Ni 2.7810712737233825 8.44894302078471 5.895977110438801 0.1841498646104635 -0.4306358682559874 -0.7122536826076379
Ni 3.3282596823574737 1.8988083954516444 1.1093736941736516 1.658343284196957 -0.6361999368761688 -2.4019981068236955
Ni 5.336299732751923 6.468744680793637 1.5429720448976558 1.1094230436750634 -1.2847236854250133 0.2816736072902504
Ni 8.549362348283998 4.738353816419786 4.067802188430281 -2.3017489947929457 -2.4850223703357264 4.049743303789833
Ni 0.7174957672125237 0.03243048877459962 11.7827017453046 0.3533487643380495 -0.5461516766378207 -0.18485486109728808
Ni 1.9609161059781082 8.71547612532236 1.327064403619206 0.1472915581315334 0.18727812582680003 -1.1887739721005655
Ni 7.411869744033935 4.902191933980173 11.789623308762096 1.601423173971145 -1.9572648799343775 -0.08589772840508432
Ni 8.783727179953974 0.4353139919436136 2.1906266053001278 -0.3266694552746503 -1.2171466097059878 1.44255933762098
Ni 7.882818877728951 0.7903224894200177 7.052112329186004 0.8053715829102452 -0.13816671301212977 2.8498837632990663
Ni 7.374513342150633 2.22910678964169 3.27622949102545 -1.2368687707252635 -0.13941986869294054 0.22540655726740533
Ni 8.991720583270133 2.8522722573079284 6.420356481111755 0.09069026469772123 -1.3497867364729335 -1.3063268655170857
Ni 4.999445940888696 2.0906567907841445 3.7192207901297385 -0.9513927589697873 -0.3878267435102611 -0.3773124742424986
Ni 3.6841053977652805 8.580509852085418 3.1675241408672643 0.1687245311943288 0.32727572140008154 -0.05245179004181289
P 7.192554232450814 3.2836736133260356 5.305724421518832 -0.5141645822082629 -0.8107433887451199 0.1401724305882489
P 3.794994631834017 7.6807440620262915 1.039411680749337 -0.31771610273610446 1.5770835687845162 -0.29675749820656633
P 4.1343488396668695 0.533344345233718 5.162204290803773 0.26534941620893016 0.4044882633263421 -0.06763235443699321
P 0.4947302434825465 2.1226752259907156 4.295890695070879 0.5956572395671161 -0.1533526767239488 0.027371192924101246
P 5.116740734969511 5.930087653988498 7.206364582377439 -0.4605712223628391 0.03212953354469305 -0.004679921974172585
P 3.7650364644675878 2.870393249447359 9.414549352102487 1.335697348259403 -1.8551532607735923 -0.8385570685232784
P 7.238329637917243 9.154781417963559 12.393761266439238 -0.16704945748475103 -0.10833163192856826 -1.5314398028034721
P 7.836706337525045 1.7108089550386825 9.120698032489935 -0.44386342268985496 0.1226339074838533 -1.085240275781273
Ni 0.5645339908773229 7.803152066292186 6.254975035642025 -1.3973997103652063 -0.3901152824341217 0.022250069647452003
Ni 9.280495215627498 3.1587745579443336 2.4053786236173345 1.8661267290659602 -1.2040494102023975 -0.9325979948607873
Ni 0.7335489996287577 5.670802946306621 10.873583275736609 -2.0777462598516023 0.7601710751142069 1.705959086302707
Ni 5.600332421319944 1.8371408330546652 8.224613566466989 0.6475061059176074 0.21667997602768488 1.1191562118024274
Ni 0.7478257192755603 5.4259963026286515 5.861628699602105 -0.9326368185185229 -0.3015919434807322 0.6783197488643544
Ni 8.408505581995014 4.3403568939734365 0.32686898472159115 -0.2745909894118561 -0.48973653107288556 -1.661312651237926
Ni 9.213349213746506 8.23521832693143 0.06725088824376402 0.4579774934937339 0.0023476742965701505 0.7455024173584387
Ni 8.063054854326104 7.3553809457987676 7.899730867240372 -2.5336324180339465 1.167950864707627 -1.1965158208295135
Ni 2.0107933174171837 1.2977720773592958 9.966506344301123 0.3458961647147462 -1.8729913173962778 2.371093703935355
Ni 2.3823157981177077 7.912290072696801 10.293185222490193 -1.0150717851859874 2.4358757334077468 0.12324428737434259
Ni 2.5056696526193036 6.127789082957765 1.7682642061879528 0.6430876651349376 1.2591283534544122 1.3080973271539473
Ni 6.707286237266811 6.365216221826499 3.7789254791662907 0.0056888228546611705 0.27572613145756386 -1.0895581864303365
Ni 2.848020613674181 5.836776250537701 10.49188681784731 2.724035719753289 -0.6856674474786772 0.32422896415395774
Ni 5.515046697591882 9.001431936680257 7.228267102488912 -0.8399035552488439 -1.893680984535145 2.5112013427239397
Ni 1.5623947517179044 4.8905701503910075 3.615846851250611 1.602676586762272 -0.9190454529873334 0.7586739217433902
Ni 0.6856496453162189 6.760197661343186 8.512612788928156 1.961048515346526 -1.9996055496841174 1.0950729456009787
Ni 6.973641409581902 8.012606386804082 0.6074746550927926 -2.3863287757175544 0.31479610087583204 -0.9224485651316113
Ni 1.1470447551452672 8.882273536689496 3.4412410247693357 0.2621869593205485 0.35831613564565384 1.7456024117259419
Ni 3.046799000832613 1.0094469579852348 7.849976335386323 0.9026605838714067 -0.7589492868919638 -0.5871103784383696
Ni 5.2363767425050325 1.056655186085944 12.912548882896973 1.6060172210997308 -3.2624784577826262 1.3337093712950967
Ni 2.770198678439724 4.387124973944661 12.380959511268903 -2.1568480483807755 -0.5344948091251828 1.5050898520550338
Ni 6.189100780909628 0.9890409415140096 5.6806351063310085 -0.31542807803287615 2.479522780673736 -2.9315671965124865
Ni 0.9056946790118267 1.4631179363845142 0.7487931086750451 -0.2003077053172486 0.8958548738034829 -0.142703938760851
Ni 5.4502606388732335 7.701431024112082 11.784798536074634 -0.2220623233855208 0.10123075921772888 -0.23129721172022746
P 5.416322408633802 0.7216893487525946 1.6376966047897143 -0.56996394856607 0.7713713147054007 -0.3309703966428494
P 8.063682299531967 7.52548415056395 2.260255229928492 1.4586454445495654 -0.2665884308223538 1.3656329594765708
P 7.251721378878166 8.305520284549367 5.844125787814717 0.02582313171069101 -0.6307044609792364 -0.0952701707589198
P 6.39100702924355 5.887327731451732 13.355881999165648 -0.09648861654705318 1.1850512718333397 0.7234446662274508
P 2.12655227547171 6.942278514142649 4.038840441510175 0.14744453876962993 0.7833259159641154 0.7151037504619232
P 5.482616208817283 7.919856874582414 9.515058582198435 -1.3830303290174117 2.0235692595885664 -0.3703136743271622
P 1.15979968604651 4.560140648247499 7.772151590695722 -0.403822347607569 -0.9093431380979049 0.18748150008685777
P 1.8188325438388575 8.436946643042793 7.880363413057654 0.0350428505367461 1.8926384022032436 0.933428975402515
Ni 3.0868993048848323 5.52664038661959 5.881982272891944 0.9017732961704469 0.5459755560712726 0.008013871443412006
Ni 4.279822478888535 6.160715908984763 3.6595151646078032 -0.8141596135155205 -1.0025713387261312 0.23152526857063352
Ni 4.1184004936134055 3.952586391897246 2.3144777335395035 0.5656794622581032 0.5667379854296045 0.4391693596482953
Ni 3.455790261662266 6.695936034438391 12.885314015021057 -1.1472388289712565 0.4766233907296953 -0.16315860707077706
Ni 2.032641521376508 3.626380438826028 10.263455557556943 -1.1242716786521219 0.290686352311822 0.3914283448185904
Ni 1.1901605421271488 2.352385725312735 8.264499415366757 -1.6311546395973067 1.528132335696794 -0.5533489657172083
Ni 9.184683396207074 6.958217495342293 4.260802460782497 -0.4856081107268088 1.0882446098252354 -1.298983794888453
Ni 4.291088398032585 2.4989175930159293 6.366860690157085 -0.03263346976430509 0.35568898243545194 -1.0789914666580838
Ni 1.912556000857683 2.815487111507574 6.035001174835441 1.1875205593094387 1.753833541386483 -1.2359691417291294
Ni 6.483110366551719 1.4561692148509437 10.871856396692417 0.6722550307275132 -0.23620364788290935 -0.00040443452727027124
Ni 5.854204243494539 2.6206887872221434 0.6754775410982085 1.082019197740814 1.7896155840820986 1.2073910729811208
Ni 3.9650510123301057 2.283432306644708 11.830071048890995 -2.269476765022801 2.0885785745804157 -1.7481586024888924
Ni 5.623192029491702 4.702739277346785 5.406945380505011 -2.5627684161679545 -0.6303972141514628 -2.1298810328736284
Ni 4.463898045551408 0.7442277424383668 10.047854146998368 -0.8546969115079345 -1.7284544391917458 -0.25394503102673033
Ni 9.167807929625548 5.472577085523499 2.254197105993093 0.9691469976294148 3.600868543928314 -3.579581352414764
Ni 8.191980796849904 4.585341469873963 7.382039875164824 1.3180775782951106 1.2162834903747441 2.4995899837372564
Ni 6.0576556927085665 3.958130385357992 7.525573116675229 -0.908261474997952 0.026149147591542066 0.1624556674664815
Ni 0.9328827226186468 0.7911475330414564 6.388379251261987 0.1731594270372308 -0.8007677655896467 0.051124329479640976
Ni 3.235276048790335 4.926961972330972 8.371546249913628 -0.10717540683693799 -1.5653310562342784 -0.5196284335363115
Ni 1.1194652606488202 5.659902256461506 13.736289853169476 -0.8141405873521268 -0.6493511295461462 -0.9565794453770493
Ni 7.4710930795842 8.37762029410052 10.136493424878953 -0.41640352670668934 1.0387493313085852 -0.18940674213402864
Ni 8.389391915350787 0.6574202299647453 4.805055924229767 0.6622218148612273 -1.5233966207840215 -1.0307642562205797
Ni 5.043882172259033 7.805071861325046 5.138300501431216 1.0753793238267932 0.00839002383590813 0.4234414073900772
Ni 5.154481095859386 5.856807672856173 9.640320993908308 -0.3393331667852479 0.20762095114921017 -0.360779766694798
P 7.361889519202853 4.1607296328745065 2.1471231133701467 -1.798280458845948 -0.13709816253829937 0.4137066966008166
P 7.983079002713318 6.03031031955759 9.53449439981403 -0.10131971938710939 -0.30517503284630026 1.580620635403497
P 0.4446610525401853 3.6377681010697223 12.338016974082668 0.038765293693655827 0.10684142053628695 -0.9343671709460684
P 6.0554924114764175 3.2756479336033006 11.959116861543674 -0.28952035702817874 -1.9923491252320202 0.7305897619126643
P 2.275537734875437 0.8265841398918995 13.014332669597664 1.123312400062646 0.4131222848522562 -0.3604290682235986
P 2.322071693501191 4.104662253061186 1.1949909337269 -0.6459073939719199 -1.753186394720787 -0.4599821826285885
P 1.1539934766788371 7.308210177113334 12.351832942921584 0.991631551885176 -0.027407702588991507 -1.232209160466065
P 3.6249007919226535 3.9167096369173184 4.528282352041229 0.21597189421706675 -0.9231599893763391 -0.361207598260836
