# total energy = -340897.53019184805 ev
CRYSTAL
PRIMVEC
9.03275657961531 0.00000000000000 0.00000000000000

0.00000000000000 9.03275657961531 0.00000000000000

0.00000000000000 0.00000000000000 13.22035229929677

PRIMCOORD
 96 1
Ni 6.388814469297404 1.9189820181690012 11.419620842623695 0.38155093780387833 0.7054145481986174 0.48474164896145555
Ni 4.5905462088694415 0.3502189379311091 6.1102487755040205 0.027875643364345542 -0.5860282011177842 -1.1055818155521022
Ni 2.818771023228554 1.3843150959744797 4.747269953636104 -0.6480542651115936 0.5801743134401685 0.22742898701407283
Ni 3.4299002291164236 4.38064301353973 4.831179745055992 0.37938066962543693 -0.06079733379303077 0.2715028374048356
Ni 5.099523971604556 4.5391588571941375 2.5805465231980604 -0.3608119054843141 0.5584016976497674 0.5060746061112767
Ni 7.2901029119344045 6.125085078039912 2.583138021035228 0.5453392080388544 -1.1437740103511076 -0.22044432816612358
Ni 5.041389150830737 4.627553412211633 11.471021743433734 -0.23747017330015877 -0.4864732869405816 0.19281113982988732
Ni 5.792137673794573 7.783065597411598 12.452025165376368 -1.0720590012043083 1.1827599046960018 -0.7013190379730051
Ni 1.8030646541244972 6.541946790083384 0.31679502908875895 0.6419214127409784 0.42346326176694815 -0.45087122146625574
Ni 2.935763285295446 1.6226895397627183 0.594409573623677 -0.5106948784921076 -0.2663112659015672 -0.10441764158614275
Ni 0.464420981518039 -0.13401900805176573 4.67536469559229 0.10368282030264724 0.3752381082119731 0.3072404000157612
Ni 8.526027884280495 2.3902299570426733 1.3126510125289652 0.8243470955714836 0.8655058291979805 0.6913485570238546
Ni 6.869899079989392 0.471319297649948 4.927912437590006 -0.27424800425014056 0.8421005629001626 -0.698245541254004
Ni 0.8126888440471679 7.333812420592658 2.4729465213301465 -0.11638921212572213 0.22293881245320316 0.20811743116965445
Ni 7.460424568322091 3.8693709306559905 3.7591938833612937 1.3236656139058494 -0.17907245008755612 -0.2145719285457466
Ni 7.725346283436348 3.850338912730192 12.663960730916475 0.023456688361043476 0.0570455800600824 -0.8297996340456225
Ni 7.881341988029864 8.770092964657843 7.1565337351558735 -0.17970879811997437 0.07069428119176856 -0.45154176517071914
Ni 6.9214219230120575 0.7512986178341179 0.7020438999662556 -0.5293261204400497 -0.2562839635725522 -2.081227533531983
Ni 1.9405161096427095 6.411766703540144 9.179115147343081 0.08161992696533685 0.5915553015836006 0.4656126414414884
Ni 0.22496983315611493 4.9774372348769385 1.372563479780145 -0.5875793476549881 -0.9411780232203146 -0.0865836987285154
Ni 6.274920442706805 1.9459447962935899 6.91900385409951 0.6099857403746463 0.30447003635947567 0.27283158351858816
Ni 3.303450671003822 4.402330661873779 0.541433360081667 0.11856950760649258 0.12023866777879937 -1.0017437006185135
Ni 6.0245685638119655 5.551243090945444 4.7731948680399165 -1.038477308594121 0.3233468186593205 0.4831367663681808
Ni 5.318992856057866 2.639244987976897 9.258516689998483 -1.207251719189779 1.1761894505673356 0.05345914826040471
P 0.2266291505234472 5.562696626175588 12.378797511782322 -0.1646256785346068 0.13992971844982352 -0.4757317321533613
P 3.988811069731848 6.2118447041326 12.609095767992269 -0.3488897001254314 0.12917607947774526 -0.33624372922664675
P 2.2648643297089492 8.538592448558989 1.3410463858329709 1.0491712979728576 0.48464831791670077 0.09879078231766857
P 6.329216341972098 7.647863298259558 5.8855156005679605 -0.5334344861814684 -0.1170301881438307 0.08793327077787437
P 4.84936178059602 1.1237652350016967 12.8093709481786 -0.025006806456982736 0.02468567567213813 -0.5763323139862591
P 3.9750903126225516 6.05494572389002 8.121024374957948 0.09127081979153959 0.261462165339382 0.6592601611297421
P 4.705352543865596 0.9817070736732529 3.7772530734130494 0.6782181902894836 -0.05433280911460965 -0.05922253310674317
P 0.2045323183203715 5.582812574880264 3.552916436486929 0.7102628774298542 -0.7544254308796814 0.42163083654389966
Ni 1.2802306429327261 1.1773475465042291 2.725375934217835 0.5619356789449549 -0.069425441781674 -0.9305164297414104
Ni 1.9701254854190584 6.328231771514618 4.849608374848215 -0.36721189547338695 1.2774420641619355 -0.3631819483783874
Ni 5.9169252047128955 5.662580847449188 9.334639342047785 -0.22049395045713638 -0.14167806859949794 -1.3882288424992157
Ni 8.562032451652225 2.3015824848434394 9.989245011476447 0.1084272769661681 0.41529332436164607 0.5837149796035753
Ni 2.157112577531992 5.199182373965892 7.118512153259783 0.8824332010809384 -0.11036871696325508 -1.0456242040515475
Ni 0.7045685554053922 9.163370149504228 9.002425397629487 -0.17453753833168006 0.0768459026154612 -0.3207158087943767
Ni 1.4231288506148003 0.9613924043257823 11.396961269691252 -0.038592772671533535 -0.36603561577709864 -0.4212765385282745
Ni 4.0939884863089695 6.962051261706999 1.462818782634714 -0.16032088051166582 -0.3837309761743327 0.3032783300442196
Ni 5.6871318795907735 7.807119827946197 8.121301680582212 -1.100486403307066 0.20137034225380804 -0.5670514029049654
Ni 5.26662093392508 2.9378046882623328 4.83276589709575 -0.014605408618000653 -0.6972638940670249 0.0019380975629773073
Ni 0.705705779447565 7.362066882895409 6.867589404154733 0.320792427668583 0.3071434694265807 -0.35538224982831057
Ni 5.120723851088111 4.40205064642257 7.149275915315637 -0.17812859811704806 0.27783263627760535 -0.041855245472889206
Ni 8.30534861045744 7.279642979918233 9.19130485222721 -0.9323735375548071 -0.005247621552184511 0.3467088904240287
Ni 4.691749212590678 0.4245097469641045 10.532628543684446 -0.42012057054696034 -0.8302889149772151 0.2555136610654309
Ni 8.118777025143075 6.973712550336427 4.791280253085495 0.03332998161069744 0.6363236069382268 0.19988193063373966
Ni 7.166065099804807 6.043167009426212 7.119317875138749 0.4575787153934184 -0.20530850096594963 -0.3707638744907034
Ni 2.455256771018858 5.262791045173045 2.582781227153847 -0.6963190136552524 0.07276710456039726 0.2922876353606708
Ni 2.4461246542068116 5.090879623643005 11.344872976112272 -0.8169613446303737 -0.14807394482351274 0.3878912781996094
Ni 1.1296274939641282 3.4315622563107033 3.789071532005415 -0.5603691057887834 0.13774916585873695 0.010539723189059267
Ni 3.5290256988448103 2.720006863759793 2.8033493980720685 0.2196431724210669 0.10542988490074101 -0.18677804626192993
Ni 1.0422175094041135 3.3131247532053076 8.11187599918422 -0.6165309976923318 0.36103636279029433 0.22580944913277884
Ni 3.5468202291313897 2.614549431731461 7.107182366793561 0.33383383423357343 -0.014366553134317193 -0.026764926798670038
Ni 4.139775528960072 6.915866777770308 6.055740606461197 0.11486429084076347 -0.3929445243528007 -0.524194198530123
Ni 0.8766136617314939 7.4727633136883185 11.26212750700403 0.010246360318356547 -0.5766285050704392 0.23181040391122013
P 0.11990351948382784 5.690781113212997 8.035065954365981 0.3724484612819779 -1.7576125488129406 0.17255830311812217
P 8.50826045226339 1.697805942738959 7.822152141297936 -0.8150870104257963 -0.2747534831316494 0.4819296334339571
P 1.6274769007027625 3.0879200683804355 10.242903782522514 0.621596070920065 0.9362736439401619 1.1741019719106875
P 4.026802843531519 6.243929055187388 3.7296992235923763 0.3676500114520701 -0.3706443181937036 0.32297400870093407
P 6.752852621383558 3.900019073428764 10.281137634196135 1.1606437895232526 0.23028085464057113 1.1514780638635844
P 6.3446171917886565 7.877331444148015 10.22809728808304 0.1765805369036378 -1.070013945749822 0.546498261343962
P 2.2760830132703362 8.551093783542047 5.838464875283817 0.8888244493192627 -0.8973126892959321 -0.7201562252841661
P 6.952268786427625 4.037353103112598 1.5137572063124332 0.6380516453729269 0.37103872541864485 0.46328296486704734
Ni 5.243930649620569 3.148304045520427 0.5463706647794561 0.015415049003489582 -1.0453416398141222 -1.133679602229583
Ni 1.4390716658207965 1.2931384519578644 6.821714743765672 -0.39300623082867153 -0.7445896757361822 0.2723140204522213
Ni 6.763691929172337 0.7656390220386731 9.139771169896758 0.5032751889892688 -0.2826475411677455 -0.24964280410695072
Ni 2.8058903124728882 1.5282972344354318 9.40033096690168 0.5451126938503451 -0.1930667074841191 -1.321133591512615
Ni 6.272689351853614 2.106429780862958 2.602293787724948 0.16964909989112717 -0.5437047577592249 0.5433646008109868
Ni 4.143370566043351 6.8236333012442865 10.456650415738997 -0.17690192479879857 0.9856375390852702 -0.16884922969765112
Ni 8.10882292749038 7.381406014541889 -0.0600181505021202 0.5504348773942068 -0.42752766164430883 0.4240042218720827
Ni 7.484469766100199 3.834061885534042 8.18996869542413 0.7945498097043929 -0.1662894393902749 -0.11863558495773761
Ni 3.1927542402109133 8.505622887368117 12.45636088849188 0.3665876316258267 -0.5367445243913078 0.08611447240158071
Ni 0.08317994469544349 4.942462401745144 10.198431005940801 0.07169264054929589 -0.8590772999638172 -0.14597978129864536
Ni 8.421988595021196 2.4161900991967995 5.643953497014172 0.841345687012009 -0.06971006290162833 0.6939476852095985
Ni 3.6347631463243526 2.704018884771344 11.57675828763763 -0.24896120465889382 -0.48069704657843665 -0.13591185553968205
Ni 1.1843569655409731 2.9841336963028735 12.47371913663996 -0.3539180065779582 1.442046916760936 0.7411927342394912
Ni 3.1085418514485883 8.285711397846768 7.8933700065728125 -0.2478414892321538 0.10988432112766883 0.5945958881821373
Ni 5.808252111373892 7.695474957721771 3.596768662697734 -1.3585220594634022 0.9188683039795207 -0.03602192662056376
Ni 3.0692403279577727 8.238831391660296 3.434343442034174 0.054330238011448366 0.39184306375850586 0.4616032631717792
Ni 3.3085451456645485 4.150289657515188 9.182301000557331 0.43983913202181024 0.17608637087603868 0.14837347834180253
Ni 7.174610087444961 5.950951598413173 11.334006570054022 0.5781140884770302 0.462974432487693 0.3064736970530657
Ni 0.4155519623523274 9.259930316389271 0.4861014036468958 0.28566267384498545 -0.060290312249625194 -0.34803403699335544
Ni 4.772113647087986 0.2097243467511968 1.6577664430428574 -0.49578222304633324 0.2536131016086084 0.25617520590882975
Ni 6.003820322152944 5.722666743624989 0.3908302111130689 0.08395988795242315 -0.7078229005297939 0.15605953413215057
Ni 8.091073560986253 8.979725177292837 11.071410789736106 -0.3168501551913833 -0.5003389891790802 0.15160946878059695
Ni 0.132687579745044 4.903359598897123 5.725800206851595 -0.46824750796117426 -0.6937461107217536 0.3636156934816963
Ni 7.980422293975797 8.79272001966692 2.6093140460694806 0.019670996066366124 0.11013628923747484 0.5258533314001007
P 8.365560965224107 1.6665977690637652 3.6269245202417673 -0.1100856385051975 -0.11457247063195752 -0.45875679486191956
P 1.7440265577016123 3.265910535028683 1.5630950255400096 -0.3489961437963086 -0.4852517558286546 0.14559411582445247
P 4.661146233600358 0.9238974321330965 8.144636000424505 0.3634323738262967 0.03006442348554822 0.6136040538535239
P 8.411926104290613 1.635994790073445 12.304683744776543 0.1066187630025196 0.3537413717907779 1.0960967588798025
P 6.468284660902137 7.676939741402958 1.4036840357173792 -0.5046489294083438 0.7778191272132734 -0.2776089503025735
P 1.8643338414005721 3.2588378866965044 5.893223251681432 -0.6064535588516717 0.1641932189828785 -0.13466358495487776
P 6.937662819182245 3.9682073521766767 5.9782693638678435 -0.5151063772962419 0.46044061032224576 0.01922465255756689
P 2.4789587240503224 8.470051892307941 10.095404288684103 0.44259741149323767 -0.4147901594729825 1.001350578945153
