# total energy = -381162.1872177602 ev
CRYSTAL
PRIMVEC
9.31423181610933 0.00000000000000 0.00000000000000
0.00000000000000 9.31423181610933 0.00000000000000
0.00000000000000 0.00000000000000 13.63231975985851
PRIMCOORD
 96 1
Ni 1.0855085013678658 7.8796350786420835 5.012167825610503 -0.9927875198664903 1.5798675592875566 2.7765625860074117
Ni 2.2154924589538787 6.837176956047051 3.5381599270707436 -0.388424267884944 -2.9053982514266026 -1.4391066031856894
Ni 7.489052087845896 0.19977909221608403 5.572973988691587 -1.5637616548646294 0.2733406619445228 1.3389189405204942
Ni 7.516296215476908 2.8537874409797275 9.067918675088961 -0.3472668198100277 -1.6099309543318403 2.0080714210632835
Ni 7.5062461595063565 4.876754731341123 6.034591967309282 -0.5601500477994417 -0.3297956596084578 -1.747695803919861
Ni 9.107250812579641 3.046210153023855 2.093338173464924 0.6843785534639246 1.6750693387023863 -0.6411197427752895
Ni 5.386531944801947 9.065839738580502 7.5466205595207665 -0.7891607774783377 0.20073759376581557 -0.9363482059318391
Ni 0.043174258054027 5.329398447746005 7.304810065476407 0.652531841266973 0.11407290528771967 3.137796923741125
Ni 7.160846506535139 1.6440736603094541 1.5837211647888032 -0.08704624018723074 -0.40613454068051347 0.8896148064310421
Ni 5.402133282847055 6.39173314072209 9.958068618590719 0.5899136522151196 -0.5376726926325321 -0.6461112824526097
Ni 4.016324638247924 6.956063809066618 13.609416951746105 0.053436265442269267 -1.7277021344067534 -0.028151779843867648
Ni 5.701548574069792 3.285641792300022 0.5975685040543618 0.16194144683422432 1.2902171044394166 -0.43564489143480456
Ni 1.2031099904171496 6.847497124735995 9.242535370451993 1.665161592670371 -1.3173730960289183 0.6597813237405347
Ni 4.1545944073701015 7.358438617155407 2.7425363950821784 1.1780640418822292 -0.8359815944866185 -0.9280183459099051
Ni 6.249337166970669 9.204444820042754 12.833887943159642 -0.7929577826269247 -0.8692681244538901 -1.3483929414492004
Ni 0.12033242177455301 7.568083343555002 0.8084427090342273 -0.1223569996733828 0.6751107550087535 -0.845568466844105
Ni 3.926358474559738 8.91098132285633 12.299610574717413 -0.4572341875698061 -0.49035693826570387 -0.8723830159337878
Ni 4.662601916813867 5.956376638294357 4.5597653478058415 -1.560761434585725 -0.7828296930539872 -1.4867206055192266
Ni 4.5355464826208305 8.809083628400513 1.073343183385348 1.6270529587241076 1.4309448933105033 -0.9069373568698896
Ni 5.606226727172091 5.764810835563751 12.18199045720479 -0.09532982035226163 -0.6159185609193135 0.6471600354320982
Ni 7.978943416693997 3.1215064018338037 -0.006573053288617101 0.38750329873257133 2.8080534575268414 -0.5654565476140198
Ni 7.500061509678325 4.8307796838243116 2.2908976842743516 0.41040899968615124 -2.653389775300953 -1.8325272958439602
Ni 7.1958121322195225 5.022075373836524 8.422074508295614 0.036834395219530115 1.1072432624149253 -0.3410540061310965
Ni 3.0260168987660654 9.019780862978672 3.981809821376308 -0.09920884369169367 1.3731477797963771 -1.8797977987951495
P 1.0881537431617827 4.586737499872127 3.1652879477926312 -0.09454306278490815 0.0002175153274447867 -0.31487554796351575
Ni 9.115456650679784 6.437819959018928 2.787646150476966 0.46943278651852705 -0.8469054404879736 0.5655156829867293
P 3.904740142856635 5.0228857119917025 11.121382622780088 -1.0332528269703884 0.5736807352960249 0.2964078281766314
Ni 3.433691504674358 1.8958373423150094 5.047502294868968 1.7667160537761057 1.3866692113215795 -0.15610504265810538
P 6.957740370766988 0.943615496126555 8.171144450024409 0.7924134800876804 0.1265406987374272 0.07359345711643456
P 1.2097044664386045 4.0340961922718455 13.371656285631307 1.4052068651144507 -3.149060669580402 -2.5778502502017413
P 5.036298205594663 1.565554687342128 1.5535803111088191 -1.2470842778056845 -1.253557287124538 1.1131632274437862
Ni 6.4339824955714136 7.395965656548689 4.805787737410797 0.7693589122610621 1.5004904056098094 -0.3869664523924949
Ni 5.604168281973304 9.130378049813078 3.0375125234916025 1.4115690598870527 1.1322521257544371 0.6592804728447162
Ni 1.0078650661773993 3.4882449595580627 6.322914940037738 -3.0915111533007082 -1.3353124541161583 -0.8774861414883081
Ni 3.289190514565805 7.311746373800105 10.458238202085255 -0.8452758753043508 -0.7998887054188031 1.7439489352829192
Ni 7.249993017836478 8.59198751666594 1.1898176504027163 0.344991907732922 0.660497633081269 0.4446404100651955
Ni 0.13240180317088296 2.931235277305151 11.513039544487679 -0.2756749665046543 0.49962782204466855 -0.06369445283516771
Ni 9.234697444502764 6.0437348171153 10.935396976242213 -1.4193345627650849 1.0603455694221224 0.8996230825966637
Ni 8.802060697722295 3.4790145559743593 4.329924572878958 -0.1553331974890873 0.2972079554804236 1.0980999053527603
Ni 4.1379871323047706 4.85906700540222 2.307433239755834 0.1263992880635565 2.9130467691107964 -1.3637377993363868
Ni 2.943232007694465 3.141578571079899 6.990872024235799 2.573525397574142 -1.7194188113520386 2.148703050676138
Ni 0.8589463359883717 1.3583596038714074 9.675879998839283 -2.1581809082595864 -0.4614677660351794 2.950307196124151
Ni 6.9342778211934775 7.650803035004921 8.532809545758715 0.9454234287602298 -0.18102211761475923 -0.5042925745101896
Ni 3.599149516037535 7.536163471626292 5.632492860477887 -0.10140816533585761 -0.2033806878156175 1.5788992818370162
Ni 2.8959715962073695 2.616721616547416 9.608631246191111 -0.07122084311919992 1.6811985915285754 -0.44275553433765685
Ni 3.701373208601759 3.6821020632791734 13.160518487895216 -0.9060415845284976 1.2919795956564781 -1.2305304872120615
Ni 8.820111678696279 8.156565814616526 12.121299855074566 -1.5292481944687921 -0.1264198568888468 0.1770173673307403
Ni 3.3909205528515867 0.3243345866292356 9.910000663217945 -1.2670985161440822 -0.6335635276945862 -0.3505529467604672
Ni 2.6095589723941686 4.346337180502412 4.699114636378425 0.08458389468966723 -0.4820185936033376 -1.7362006587960679
Ni 9.154045512483298 5.237522866565731 0.42177448980840365 -1.6788959115373279 1.650473908751209 0.8347464365279366
Ni 6.577319206721376 2.5371873923281987 4.766881260307378 -0.8352979381560325 0.29240076389976744 -0.6183199712719544
Ni 7.304630300805202 6.574562194147434 -0.020394441661833646 0.7395855376533714 0.8933025396952744 -0.1175842608750878
Ni 5.008765336781919 1.7973765993449493 9.19602196034473 1.47944952577911 -2.440154049068126 -2.2970379624705215
Ni 8.302054113281962 7.255739898776079 6.3886641013872465 0.16461770811480683 0.4868597237457228 0.11163652793208514
Ni 4.50333786951039 1.8034867353196309 11.498193590630901 2.872276014951337 0.4127867558897084 0.39967232999493746
Ni 2.666310585951692 0.2363132345134791 6.146226759551583 -1.5964946263212763 -0.13137180157748343 3.338201302537238
P 1.8318113138242145 1.496443088360211 8.023206508430098 1.7885899710310615 0.142207972961039 -3.719936074217148
Ni 3.313156032649427 1.3840948259720864 0.026141322601435108 1.419523538847439 -0.5193821218534603 1.804351347630376
P 5.070770177000602 4.968518541741372 8.18642630992328 -1.506503958793741 7.584754325793388e-05 -0.8052034327634972
Ni 4.377260429642569 2.9837396012217368 3.1402866871474475 0.37068005652764546 -2.9354063677529187 0.9634918562261664
P 1.2981337819014511 0.6007465198997297 13.284926817448003 -0.2015364355180271 -0.8228170320802024 -1.6056680652904283
P 1.4156141859390416 7.449988200227276 7.317433643657026 0.17134679930852426 -0.043682014268982834 -2.268400244129171
P 7.139535544477103 7.673064048693167 10.753296295733362 1.412181239549755 -0.7315436411855014 0.9602926325625784
Ni 5.2584985162836935 2.145933776851863 6.8535942207863405 0.5031713164215528 -0.7080478720564064 0.1707312772117124
Ni 2.202974131591117 2.869863804839942 1.38303952352402 -0.06659774252489176 1.2690214441984078 0.47552655812109074
Ni 2.3433209743754193 8.400114344290268 1.0670914710893018 -0.8473900934338761 0.04996938993959136 -0.24326903937012298
Ni 1.5560262283450255 8.825336962662432 11.40486685215664 0.2981826606888671 0.7953203693218301 -0.9534460419543903
Ni 7.710199890356362 2.65152890029343 6.859101725972055 0.7131191159317267 -0.7138238553082352 -1.302064490696306
Ni 2.353389658809308 1.8896433782553093 11.74144872200708 -2.7849356405624555 0.17600975200183236 -0.5066070815759791
Ni 5.205183854211929 0.2144033673591444 5.25238279177001 -1.2619537387183493 0.19340635021172498 0.1568156955718848
Ni 6.6221113468162605 6.796669362519779 2.613793222110769 -0.989292105118722 1.3760934926882624 -0.9115910535918171
Ni 2.479727897163853 5.32316722675963 6.772304263897569 -0.06376001596578051 3.0226955771888915 -1.2644767622505189
Ni 7.981663172341264 0.9424698456313023 10.959157581229121 -0.723084968895187 -0.10527844692454126 -1.444298946019906
Ni 7.371972195770061 4.574899111421182 10.866798591425242 -1.2713876304377394 -0.02074134631240944 1.497452133004118
Ni 0.4540781080818653 5.586666840667775 5.135690371731594 0.2652967085941238 0.26537872678496877 -1.2310601344632863
Ni 4.672977970892823 4.010950326575071 5.704416426000591 1.2983803569764996 0.18604708163317635 0.29342869094364954
Ni 8.322815535671545 1.33006296806183 3.514630315029218 -0.11723947594115937 1.3927580978281369 0.17318153852441787
Ni 8.118619634798153 1.0603321331673101 13.179167442542333 2.218140062422038 -1.910433007182503 0.1904786350419687
Ni 0.216818547630844 0.918136415396766 5.484608941427254 2.0513423159367767 0.9356311252601563 0.42665400079010396
Ni 0.5404704010787623 1.058124660261823 1.492725778501224 -0.3341680776445406 -1.719377416591142 1.0330458531659048
Ni 2.2778978111343164 5.417995419378889 0.8093946235107707 0.47349564373399095 1.1051349578226708 1.4953803380767536
Ni 1.7760563230552446 1.97206501429183 3.582409978882508 -1.3419186465787662 0.24296770607962026 -0.17177488798487836
Ni 3.9362036174335775 7.522872063035026 8.3102348029566 -0.7684294584682573 -0.7677794835890841 -0.9885886512937944
Ni 9.134457683283978 8.47269083745295 9.262779852983961 -1.6487996063725796 1.4882979773086755 0.5050176256016722
Ni 2.8402724908284123 5.148301841411044 8.901740673617791 1.9805104807258798 -0.6436314534535497 0.9177341903750775
Ni 5.627528374998459 8.96725791059875 10.156173943375933 -0.7232698312124834 0.29151399041943993 0.3205414880000415
Ni 1.6452379392680443 6.8603600786705 12.558774413783766 0.26161308909494946 -0.6351828084655641 0.16064432528935557
Ni 5.716591058214778 6.338632705978707 6.605267490266543 -0.5416969833005767 -0.05868003033971185 2.231230834167725
P 5.712883994010626 5.474122979414608 0.7633441307174424 -1.1161899300852518 0.2602540039638937 0.9519100649258381
Ni 5.205668194258703 3.691788864214644 10.045220021468616 0.42087493221448163 2.585504681423205 0.5968353190356173
P 9.01309324464053 4.265638677324605 9.607322596641653 2.3816118298578597 0.5501217170291623 -0.5077699915358287
Ni 1.7805923538779123 4.748059992374391 10.916257161586158 -0.02006488907067512 -0.799322805613004 1.0283638743092032
P 0.8568133769362343 8.450578851471404 2.7239144517069027 1.9898795806456053 0.15120117759858479 -0.39152347563555795
P 6.369462812802176 4.953867255326473 3.9921160187177485 0.4816496402996931 -1.154877576463437 1.8240925348130457
P 6.460518741595602 2.9178134694705222 12.002671006272221 0.15997660979836967 -0.7526007189661167 -0.09283070807949173
Ni 8.424936771687412 8.529712563728866 3.7451938743335953 -1.5617803627685425 -1.979093802884011 0.25897153770704434
