# total energy = -381159.9675489872 ev
CRYSTAL
PRIMVEC
9.41417968814088 0.00000000000000 0.00000000000000

0.00000000000000 9.41417968814088 0.00000000000000

0.00000000000000 0.00000000000000 13.77860357346951

PRIMCOORD
 96 1
Ni 6.425591722254593 1.2037440598204416 6.628679109189849 -1.114742399005448 -1.529339725741334 0.6129548503052992
Ni 8.988121963830196 6.520966774614824 4.80949059689599 -1.926771853551843 0.17883205194197588 0.8498020453094783
Ni 3.1482334182207263 7.873737295679214 9.93510369238295 1.0196810018232243 0.950952328998259 -0.3494214042591853
Ni 4.588922961493408 5.21363849792343 0.569001480821189 -1.2517405456307733 -1.427013162356265 -1.1396993260611017
Ni 1.824242043841285 5.530124383842513 13.353836612575543 0.39826156569033994 -0.618822879050302 0.49681632073780246
Ni 6.068323610807475 5.378047728445497 8.600494064962634 0.23894470096315623 0.46171690593150805 0.6925124954249686
Ni 8.150175262070075 4.153432432707315 0.9165899329220639 0.47341542531535885 -1.2581029975136913 0.22575854129018535
Ni 8.558195215119602 1.5500069954498605 0.47280268775604073 -0.8603340551890538 -0.19690073651822865 -1.9541726141622993
Ni 2.075967789084618 4.088907646518684 10.131627513381423 1.0481510842384594 -1.979378166893649 -0.1360378395945851
Ni 6.636563484508345 6.348668461684516 1.569672274975602 2.3181462052040462 -0.7802850722552626 1.1608260807373878
Ni 2.8181063862282074 6.9713411211663425 1.5896096242884532 -0.22611412485739124 -1.2232411526395 0.7654348946163075
Ni 2.923140386739815 7.8652268774249805 13.220721056078808 -0.5172164816607092 -0.5632765092435654 -0.44584342923436115
Ni 1.233577594607686 2.8528352943475337 6.027435946469211 1.6230903745319336 1.3266630059712765 -1.0337405652400842
Ni 4.7742975697280645 4.266873295498824 4.608019624578269 1.4232287556131684 -0.5211901215964765 -1.5344377090895314
Ni 1.2559080283455664 4.686839842314527 8.009144263462543 0.606786002490426 -1.4399926053350685 -1.3505310708381257
Ni 9.336616059997505 2.501564015232215 2.485426228759418 -0.18844669221360447 1.284087594502911 -1.6107125696928712
Ni 6.821373241973916 2.9058936099237114 4.984988789433171 0.35901496148489137 -0.17414801620274523 -0.29019064362232605
Ni 0.8124210955051073 0.21489935793479986 11.723070078415562 0.2557162639945402 0.28368318152111144 0.7762342992246567
Ni 8.700594094006272 4.239393305582773 6.760926678338088 0.2300142312427458 1.5803511837921944 -0.8418339395023373
Ni 4.973831103907818 7.624318024409651 0.9578880554858643 -1.664667940863404 1.459806811847518 -2.814014303095967
Ni 0.3134780555736987 6.78475208377815 11.930148136034413 0.962483212455994 1.545521477707519 -0.8067633210514493
Ni 3.21120486479437 1.9513805377831381 10.640595713046165 -1.2492080090169067 -0.3519585688587422 -0.4734671044889007
Ni 5.325526021099951 8.357588464478585 2.9634057738141353 -0.27556415195840284 0.209820015683058 1.5543470464189488
Ni 6.295054709518737 6.2261240873312325 13.157643229276985 -1.712119449477148 1.0084463094496696 1.5069857835261657
P 2.482509715955036 6.599706971825461 11.407099148114295 0.191518903381025 -1.174504092445113 1.7779386619648023
Ni 4.992753604672211 3.236773776275012 9.964658567457446 0.7687773287259791 -1.869003793503439 -1.2705023996193088
P 8.634619524176987 1.5706993619573906 4.099616275682613 -0.7318555159989654 -0.6795114551796104 2.3107285725837365
Ni 4.060072014756826 5.329404663047678 9.953153498709105 -1.2376568138441977 1.3679310114821281 0.2604769186079772
P 4.770946121831485 1.1728184802129638 8.619232989227074 1.0223423507054714 0.7276263084089662 0.4303561322320395
P 8.562770506349201 0.11112120896646122 8.071175233505658 -0.39148902285319676 0.19002586377526628 -0.004918777457856046
P 0.47118627313850525 6.416205785308275 7.159004316433746 -0.3985233039921588 0.23876420952123398 0.10647992343181016
Ni 1.0786578570062688 0.9124156857385158 7.287971985449491 -0.27024685351054745 -1.2045821427774157 0.5308559268210148
Ni 9.235931410407863 2.800906680309528 8.585957630420197 -0.9294275675526057 -0.45520198763112574 0.8582946561615218
Ni 5.48409846034146 8.883426873780039 12.775369174282416 0.9837287520983315 1.737711953234272 1.316323057497849
Ni 7.125667765460219 1.2887164438499987 9.355519732402929 -0.832473838443676 -0.18029500964074754 -0.6375767626190374
Ni 1.544706812399934 2.794523866618852 12.217046197250806 -1.4757877606568068 -1.1283221945724116 0.061270159664391255
Ni 1.3837619999282624 0.5462172836321425 4.780665320731565 0.027641415866352395 1.780136955167702 -0.10047305511609793
Ni 3.5213832504586557 3.8921983661843615 12.18881401439392 0.7771997484617195 0.6979958871370431 -0.5114199295835902
Ni 6.745739723993253 3.8730687534713035 2.6386024603202554 -1.032568142198538 0.10954210729690168 0.4636069238653693
Ni 2.3506547180913113 8.328508064050123 3.4475854974775237 1.606841516773239 -0.030471943336612035 0.5798626957370208
Ni 3.157967679807981 9.401291473057894 1.4135051585924527 -0.36080753460893983 -0.10246977383115255 0.0064642675681049954
Ni 3.705581086257715 6.5786003814206016 4.201702696597538 0.7684001478922186 -2.0344895060454964 -1.3866936368016118
Ni 0.22625756548317796 8.533332367100318 3.199763812466526 -1.806746073114798 0.06588606116984783 -0.31202239478543686
Ni 2.12430018655944 1.857558825037895 2.4920942920884825 0.8047565750340657 0.0927970266280789 0.8639264005260024
Ni 8.762049857682868 6.228760057586968 2.432818852380561 0.938613604927248 0.07921260307542487 -0.16128452997651577
Ni 6.793215431134961 8.077121229268242 10.542023605332906 -0.30754224752689613 -0.32850265182864713 1.4350002943267997
Ni 8.653645580915711 2.006321689256271 6.319900612014948 -1.6471078204924536 -1.9343560936570043 -0.515406425035164
Ni 2.7254708600980457 3.242657638452995 0.44389739106599513 -0.08801528896871938 -0.38552560618091025 1.0635926156045103
Ni 9.152277011506175 8.160785042349413 10.210495743433052 0.01926501887719908 1.899283675433903 -1.4043499164307942
Ni 4.621505436690206 2.2114754885884342 2.755307219139135 -0.013006696672313084 -0.008696242222417282 0.1361504539130494
Ni 7.030170328766686 1.3047299631535967 2.0141561694234986 -1.4436818812611976 0.4875392663112508 0.2710066144947074
Ni 6.217783124307724 1.480332653083059 11.700224689059866 0.8407057394351649 0.6439672395264135 0.06758813146261909
Ni 2.105565969384743 8.336133549432788 8.104091912074166 -0.9385822374686804 -0.28272801669669373 -1.856972573370518
Ni 7.347305793070219 3.962126891397252 10.12701174118004 0.7899776169526782 -0.4852939219204998 0.24848400791215916
Ni 1.4468181741172688 5.618222275461014 3.9596679077158297 -0.031139658827597984 0.33588506033564736 -0.2381659138156027
Ni 5.769338684550584 8.139612552688162 5.614918839879808 -0.3676644096297732 0.757170083504354 0.04852288730105192
P 1.0169384963041002 1.0231330264050804 0.8192925051110427 2.9464191739236547 -1.073549469706906 -0.2148488363562171
Ni 8.465851528553468 6.0891101191098524 9.49957550687892 -0.6491845220612948 -0.744477318528034 0.42647196668628484
P 3.5101521343333224 2.4997941494890785 5.059062377873207 -0.3207253218760734 -0.3487457183483994 -1.2042589551100422
Ni 3.4026422046172193 7.876975773421976 5.855699660054144 -2.2673077823959407 1.2256669884721731 0.9274894699896283
P 4.840036785070231 5.926715522997526 2.4912677271297197 -0.9857699508980765 -0.6072068920779284 1.517265311075303
P 1.8955262108999826 2.4256010009695856 8.652369959595525 -0.7757925837015478 0.6076300956582761 2.3655226376054808
P 4.368593504831791 7.947742160609011 7.6968241519654725 0.7134168496778037 -0.10229879547092706 0.8630681662907653
Ni 5.560503941039873 4.7583876063987995 11.442399496928347 1.7063200691865517 0.6607408594403266 1.8605991143795118
Ni 8.054207116402305 8.57460412996156 1.1694274927625488 -0.6868956634588235 -0.29393674092831956 0.6394035314151311
Ni 3.0641177245242837 0.6638691089071904 12.794948784774846 0.27429556965862434 1.4536647035055223 -0.022151853506690883
Ni 4.647319116837452 0.13216754862261873 10.58302800549678 0.43856077953001893 -0.08979140703253569 -0.38533045945096867
Ni 3.256232885270037 2.162597068703495 7.220966562966622 1.747162300013894 -1.651699296517878 -1.5170580801605034
Ni 0.6879647012984658 8.1245027946151 5.897876125563873 1.940281972223136 0.13627232420289434 0.8997626934983213
Ni 2.9424771114015376 4.631437396046641 2.492880376075461 0.8761085444144912 -0.8994595604356058 -0.04856968137858732
Ni 6.457901186246333 6.103325530131859 4.145044398786383 0.24545473416753213 1.258012237572098 -1.4149356623664406
Ni 7.690452635290177 6.482349810368286 7.312111824484345 -0.19953431748633377 0.6627049251452328 -1.4407749920270476
Ni 6.460659540835371 8.49189114900835 8.35921711752945 -0.3282954209138475 0.04819378609640732 -1.766262511178455
Ni 2.9355671036597144 4.579386397675334 5.7505413923733375 -1.2778986920833797 0.6873234950248615 1.1795858778433943
Ni 8.138285153380808 2.935416476787958 12.57603427928979 -0.8756228630273242 1.8753341065968414 0.9523026723785663
Ni 3.289954476184492 6.092367425211584 7.935951842222282 -0.408755009022496 0.389955874038122 -0.659283815278826
Ni 0.7639154771277652 7.730142815997979 0.6628580260305259 0.13769620113361447 0.7268824882644063 -0.26036430428951285
Ni 7.909464106823927 8.78032278006281 5.655358389274596 0.5715464625618415 0.7079766524988388 -0.04617212768068822
Ni 6.308498157822992 0.7681151425959223 4.110915173900237 1.0889943435070666 -0.4761886171851218 0.996888172298425
Ni 8.806277672902329 4.3073825098218 3.981548343674338 -0.23563620541521355 -0.7268480354820449 0.45110313497140375
Ni 6.849709922223081 3.1696600907280685 7.759475516436633 -0.5300288029340291 0.836101150783618 0.20467112449226682
Ni 8.089849199931654 8.696677795340607 12.554181144451787 0.05079934204005444 0.11231272806350333 -0.2490059418539002
Ni 1.4470911853223272 6.212727709924401 9.603548529362593 -0.8891026426813139 1.747761367050474 0.14888178543678876
Ni 5.100037594080679 6.070968995242696 6.323332080437148 0.04523624612998016 -1.0075387100337359 0.5398905262194572
Ni 4.58764263308348 7.288429514572451 11.629623050013814 0.5211055323024703 -2.1495332598869177 -0.6617806135587506
Ni 8.608080952209413 5.973965289831599 13.607596762005535 -0.23690890148005003 0.7211692399297128 0.6351241873134867
Ni 5.747074150069096 3.2169569284595663 13.367518239620765 -0.09966829982661544 -0.29064341488902845 0.6685104760834164
Ni 8.72303749789797 1.9673752287277668 10.835879686606493 1.4529039140800977 -1.0822014889549492 -1.0372334088846913
P 7.393811839724995 6.127764740074329 11.586427028865883 2.717779454430932 -0.0722557121416175 -3.73962532511596
Ni 4.4211999397927 4.0233284722277585 7.769120343318782 0.031092093419114192 0.08791244484226796 -0.32964396452194195
P 5.027934393406807 0.9210550782516915 0.9000953490467941 0.7470065127077908 0.19642405399212623 -0.46158655100123086
Ni 0.24890996415943764 4.606414506976116 11.232234529856438 -1.9107094007723417 -0.7793671884266835 0.692417107497685
P 6.8967243345700355 4.8774487343427175 5.754771183215847 0.05826556851011256 -0.06324399556131043 1.2428854092329886
P 0.9236797514920463 4.8660952338840815 1.6462264997098757 -0.18072386964805007 -0.009706685764802638 -0.07971165419903047
P 7.46414517465573 8.149874008326563 3.334725489560225 0.10672340690118394 -0.42561836043673795 0.44683407528240465
Ni 4.0977946319523095 0.30293982305844425 4.699123463706258 -0.7640619255281809 1.5985180845092084 -0.41802820679430586
