# total energy = -381179.59233794146 ev
CRYSTAL
PRIMVEC
9.11886567260765 0.00000000000000 0.00000000000000
0.00000000000000 9.11886567260765 0.00000000000000
0.00000000000000 0.00000000000000 13.34638166093905
PRIMCOORD
 96 1
Ni 6.892011410148325 0.6301282165178024 7.466446153832177 -0.27999082027118877 -1.9680941093393978 -0.21156579472957115
Ni 0.8214319901135703 7.772027553552392 1.3174937298483982 -0.23672738159686327 1.7390980349485208 1.2379350072062487
Ni 0.08939315326049857 1.5451553332495274 6.989633427900899 0.4642052195710006 -0.6261047574236959 1.241186424264011
Ni 2.703597805927274 4.82553051948301 6.11894223665729 -0.48731532322590265 -0.4864154371194526 -0.2523005534447719
Ni 1.868218510582508 5.881659317957413 0.5772387949153611 0.2534256681881506 -0.9591562049652902 -1.2021485936352587
Ni 6.922678155811946 3.976254072668913 1.7050674113510877 -0.49529654165916637 -0.44419458077702856 -0.014152380240982079
Ni 8.864768598187796 7.640579103138739 3.8254471820621867 1.1977190971089953 0.533209771765172 -0.29842048773128604
Ni 8.875145867460827 8.003838240889575 6.651076385698142 0.09705708745601349 0.4190149961876074 -0.2922935488979418
Ni 3.152528687808271 9.194370002294734 0.4489244986749419 -0.45076734889853975 -0.7367110443190538 0.38326586361245607
Ni 4.730566651109247 3.1768304651480137 5.960961534330798 -0.6123490984005002 1.4824482033961177 0.558870923976702
Ni 3.2924850400072834 2.148249760235847 12.638423358202502 0.7579804952207914 -1.8738922319439921 0.5875929745017429
Ni 7.277566174764327 1.0477485608101544 11.95675622410628 -0.3537902227508423 0.6778587500675358 0.6219097455057417
Ni 6.776457142812784 8.634498999169718 3.422426141905267 0.07721845546353152 -0.3971500777937161 0.5462236675263368
Ni 3.298047548141333 4.38681276729076 12.726709481155666 1.5472225195590257 1.2341516289044163 -0.08565141672223313
Ni 6.831462141279323 1.6210790098464112 2.506610243282402 0.440220426620629 1.1186779866144283 -0.31522598932439905
Ni 6.3158176372529 4.764269979082114 7.581385809613233 0.02531919549107898 -1.4740836334815064 0.017764008851640374
Ni 5.810632472291653 2.4964627694273682 8.802753015699196 0.5143635855929464 0.014881802207838888 -0.8000347440783641
Ni 9.273704134698395 4.482952969351887 10.491136550194451 -1.1152411930187374 -1.1818836727386357 0.300249827630541
Ni 7.6025807893771224 5.974790294306677 11.153451627303657 -0.3778369792874009 -0.9326345045256778 -1.2180513809084441
Ni 3.9198994820649324 5.712221672647938 8.055155570029212 -1.0844825716796418 -1.1454118030648466 1.1282908271138439
Ni 1.4897217480906928 6.639628561580951 7.598308600752857 1.3370762308848003 0.1905855929334782 0.499574857319546
Ni 2.4351931101606783 0.037566991409582265 3.5118867747726377 -1.078976040039116 -1.1357421411855664 -0.1097735065814174
Ni 4.950677833633338 6.093362906219874 6.095252335212293 0.1524507337349697 -0.03919312525969379 -2.2651141171787312
Ni 4.570512318701308 1.0972913586663722 2.124703936870388 -0.29524054734140764 -0.05671570752448942 0.7042043299406002
P 1.9330901218376404 0.764433607584567 11.356650049440498 -0.23533307235249792 0.936376230956297 0.5602189533641642
Ni 1.39936290694266 3.259046159142429 0.31877822229660363 -1.1537174947170648 0.41146649441638816 -0.13222206539292067
P 3.7137310453391406 3.4661082447159868 8.063256770400178 -0.24021816835894116 -0.38873357159524663 -0.12368111780144506
Ni 4.2830218368288655 7.988290574711615 7.667630218515229 -0.28122340712670924 -0.15094098195866262 -0.02930106295696244
P 1.137478200218434 9.173487799627562 5.358211800471473 0.16282410654949378 -0.8716006292418086 0.008321375381501798
P 8.370152198681241 3.2847887172775483 8.774111570128314 -0.06162034391495839 0.14735069350424299 -1.3174718263903118
P 6.359451410074915 4.484366393549883 5.119738869785541 0.1603987849374528 0.45221102332360186 0.07688344072161597
Ni 4.146147661268065 8.328387793346899 11.073386161863354 -1.1206356245614313 1.0351068494599915 -0.034183587860244356
Ni 1.530510434785127 4.4399848737328 8.684597135952762 1.559634005849501 -0.6449735693037408 -1.2755145081219192
Ni 1.9280747456512017 7.7855143560610145 12.201662514609543 -0.08537887978713683 -0.3184252129879871 0.13262212904481677
Ni 4.530890846828444 8.116000290149923 3.842703723689852 0.5628813306876758 -2.1533585471702787 -1.9895389094767346
Ni 1.5033270958546312 6.104259950843136 2.9641912812551365 -0.1915836951806894 0.40171944233195334 0.31343984395825375
Ni 7.104517458600617 2.4953411489347648 6.342493967245278 -0.4627453471960224 2.664202806756057 1.116350366922516
Ni 5.5518208233398445 7.825628246686729 1.5941719725494587 -2.1832023700045884 -0.2839750017299174 -1.0822613956586071
Ni 8.547222334659898 7.042235605230845 12.962966527453771 0.20906719667743348 -0.036803284871278555 0.4339708461664913
Ni 6.410207017081671 5.992854767443649 0.04709711805039457 0.3294187358850133 0.2543245258533362 0.7892890755260858
Ni 9.188625116844813 2.228586967876797 11.630264353234933 1.1648496000744843 0.4138177682573841 -0.6453882882436562
Ni 3.1042716500289402 2.3500046659175737 4.276674194349994 0.615507955744456 -0.01175508365339911 -0.8617286215437353
Ni 3.943316729422703 6.912401194062644 13.04424662581777 1.811102550311281 -0.09728900096116147 0.7092328935034431
Ni 4.726627301086444 4.154190500897954 10.019009097507887 -0.10344447903959605 0.02888223025198897 0.2514513180705992
Ni 7.331732237577862 9.182789042736957 0.9128349413949617 2.0836106890521795 -0.6387640980589192 -0.29447975791598313
Ni 5.582934393427349 8.998359982062928 9.335927627327088 0.8491996358387891 0.43583181063463006 -0.06570274151444813
Ni 4.46940233478271 5.162791770856508 1.548821117298524 1.4867447738889428 1.245800268886938 -0.2647200101550473
Ni 5.155989096974539 1.5943698519371783 11.02443153085082 -0.48058546070123687 0.4103426652245901 -0.5741733586617273
Ni 2.2592901890035932 9.060477695848414 7.2830402299001795 -0.9574235385448995 0.6779698217241032 -0.07410382109394979
Ni 5.223970241465263 3.32958058605534 3.4620248166136465 -0.15232603523164734 1.0579194764791329 -0.4508781634447912
Ni 5.445823127355917 0.3023742946206327 13.028150915805622 -1.9936472752181535 0.00331749440900719 0.2963574345546703
Ni 3.0787205880754853 1.097063387021534 9.503277964256425 1.6332665437339873 -1.1120077736831042 -0.024499527803261034
Ni 7.781575006038212 1.2201407186367323 9.62758634275375 0.31073221521910355 -0.33300208236089746 -0.0011780794685011969
Ni 8.863911424803204 5.292015218016542 1.2589241667431708 0.6617219924066732 0.5806008594546258 0.19078819586258755
Ni 2.470793162218597 3.1782530082118035 10.765258774813585 -0.33055079260692755 0.7674179864846074 -0.4975660544196334
Ni 6.688131808736706 7.061385223397246 7.52530387309648 0.6549227100966527 1.1491769265342338 0.9475240200430004
P 2.6287592743598194 7.794414369075494 9.45946181411854 0.7792550883288515 0.15556819631802885 -1.410276052107242
Ni 0.11924376043560055 3.125062664038176 2.544114314518009 0.5561149584981198 0.37843398944145146 -1.788973065402093
P 7.533614807380698 7.022885372016986 1.8149479203898973 1.185229706392733 -0.027456039328423686 0.34042151475342014
Ni 7.771626323457476 2.972203116741327 4.196969835995114 -1.4614453758922055 0.8630329421774556 0.6743170554628645
P 8.272908613859098 2.1936434741560116 0.5046252666015267 -1.373880029976711 1.0709372288950394 0.49724286675225976
P 5.851329970328152 8.211456577276538 5.9579313352276095 -0.4581430725373207 1.3772036950333055 -1.132414105253598
P 1.5589521771951296 5.318769970254742 11.675534962466884 0.41087565490992467 0.24634716407481447 1.922015312703464
Ni 6.375172334702952 7.831573747184106 11.50390058238775 0.5148765206736229 1.0719574426294378 0.30241778181613727
Ni 3.6234725117148363 5.685621941128226 3.885799483430048 0.5715305217222415 -0.30529330359171936 0.16239833186598482
Ni 0.4211912921370963 8.629884853078195 8.898820266833974 -0.6783781129061155 1.7296101500627439 -0.4341276834593298
Ni 5.944761869248602 6.237377153697004 3.359857956149579 -0.0675729619539675 -1.193713575494028 0.18030606538434107
Ni 0.5874382463054181 6.026512501087548 5.395635625688096 -0.1327077467800876 0.20656037109517975 0.589098869623308
Ni 2.6521947594491775 7.111420440006314 5.535612039391855 0.53608092266538 1.5489230471899003 -0.21607885210857625
Ni 3.3759864940785853 6.10729653315238 10.898789062287902 0.36812875086070146 -0.35689251582524983 -1.584195497238949
Ni 0.8134894580074106 6.805290996451908 10.059101102855696 -0.010823058757432974 -1.8675254091856996 1.2417304696929388
Ni 8.09982342223221 4.176230799520902 12.843396311622762 -0.16374558992249866 -0.6918175262404731 -1.1304585241891243
Ni 7.115833971050379 3.3769804504500796 10.62147797030077 -0.41143101319276243 0.15518433061604886 0.5860922215865003
Ni 5.592801006215943 6.490553343588414 9.463438551491096 -0.24562005610080279 -0.23306741624677282 1.685540156326723
Ni 2.0461731765431357 1.7289095978548363 2.083637124769251 0.44893620922707195 0.07889610027627057 -0.7413871096384844
Ni 1.0613265519767123 1.9955999468522498 9.274213879296253 -1.7985676510690638 0.23118665428429216 -0.646805480306157
Ni -0.015979900416572074 0.6145614007216769 2.933267383576137 -0.23873592738645982 0.6032113977652902 -1.0547868443874222
Ni 4.460283468989186 1.2776169297333164 7.413074344229258 -0.3244817035947122 0.04731524014619593 0.12259174139200822
Ni 0.12449622713267057 3.942432199440731 6.507415950213799 0.043721095037034384 -0.2981852317920284 0.07818853268628469
Ni 5.6690073676524255 1.444127419123071 4.788334665911224 0.5688403764845881 -1.1848887781135466 -0.9643490620201391
Ni 7.39801727303099 6.629570452610694 5.317385726427284 -1.262175367810852 -0.6333280146450125 0.32113464149935017
Ni 0.7776824076959786 2.0507964415004527 4.661197615244749 0.40390539423967864 1.1106245201823324 -0.07695491738949972
Ni 2.639391871875069 4.092182213501988 2.222052388649157 -0.9646100289910097 -1.309734605647054 0.7301727289799037
Ni 8.582329967964966 5.673430017562285 8.127959682638132 -0.6519921667134191 -0.17855642968308602 0.5505716600823872
Ni 5.8299188734449565 3.100004020837571 12.886532194372451 0.15182235612235143 0.14309551777231483 -0.779375930177432
Ni 0.6930766589770803 0.8642979544357696 0.1668643013825434 1.17348747825514 -1.3272039660764112 0.48133545149338397
Ni 7.936294801956939 0.6790828475303378 5.174819554838167 0.002364900687750766 -1.061367325818417 -0.6419864616509589
Ni 8.153770632266701 5.384279902115421 3.413150431620094 0.23865982273288572 -0.8923684579167792 0.8623127761819793
P 7.614873020466794 7.570628283636613 9.480255563787514 0.3051333809750874 0.20987246618754823 0.41271965009719885
Ni 2.3085229454228315 2.495906518613963 6.495897910829999 0.5615371579549555 -0.4743667334850346 1.529687595999056
P 0.9812993857727426 4.368073498085067 4.2165361863282795 0.5434581889660576 -1.5663546124027865 -0.012171088144895169
Ni -0.040111154965975566 8.751448452971669 11.532942346166966 -0.8119605489816727 0.7473844648724999 -1.726279543027614
P 5.347211712664744 5.146696972730938 11.862651352890268 -0.5203462855389426 -0.14722085279459807 -1.2299604736412044
P 4.475265765487946 2.999669140511423 1.1470493617553172 -0.8445407969105391 0.17446117656778987 1.049231461786832
P 3.1122780141956548 7.3450093061732336 1.6959111582078101 0.3533359088222431 0.02377293404988164 1.2906014843620288
Ni 3.8544716199963953 0.20318565572473024 5.369355966357738 -1.5146273592318236 1.5910120059401502 3.1102598946631206
