# total energy = -340872.2043570168 ev
CRYSTAL
PRIMVEC
9.25660972626680 0.00000000000000 0.00000000000000
0.00000000000000 9.25660972626680 0.00000000000000
0.00000000000000 0.00000000000000 13.54798400684005
PRIMCOORD
 96 1
Ni 3.450901071339877 5.383597838504725 7.888204970879344 0.9940057085443076 -1.1900993757802085 1.2504650213524595
Ni 0.41676866328124024 2.2950004654412695 1.3376383984221245 2.0180033354650146 -1.3780722136811878 -3.0876251879827405
Ni 1.6599692796247825 1.598422082643691 9.927487894512605 0.19172613429582464 0.11764468179937802 -1.3208867656091317
Ni 5.714586426631194 0.5827868814457122 1.7490447077838058 1.046172877466166 1.4418918792403104 -1.119254942163821
Ni 3.6657562358951656 7.164967552541753 5.4010391422423965 -2.158714412165553 -1.6338139315970248 -1.6001810740339282
Ni 3.065872396587508 4.842363877385095 5.664385055990865 -0.40720103427181487 -0.5811886136372958 -0.28634761572715206
Ni 2.273960191905697 4.290623664412022 9.930645324034375 -0.5430799796910325 -0.41519587955183335 0.4686784248510057
Ni 0.5771310930030221 9.087000705490597 8.481281499514736 -0.3801257753215776 -0.513776859851541 0.08921959368946569
Ni 8.257127144992955 2.48616796612611 5.605952708127556 -0.3290299850870269 -0.05249884122966442 1.4574555380065222
Ni 9.248473002698923 6.387893692988636 2.7781362423027973 -1.0508458574618031 0.27367541957612224 -0.39281108409872995
Ni 0.1088003374757638 4.998319235294169 0.6112805770010132 0.1163159356856255 -2.2922192009256395 -2.2146683018233535
Ni 1.786831113678905 7.410378785262869 3.921463595432655 0.15075946207547586 -1.4609787206684322 -1.0840534545620235
Ni 8.178566299635982 5.3129421377141295 9.254844327060795 0.5608506734108921 0.1701761760391908 -0.160995023760555
Ni 0.7752891852294655 5.0992070229159046 7.525335693758654 -1.522975731196519 3.209049648539525 -0.959893854462263
Ni 7.198791203883144 4.54431956269158 7.0665873804505 0.16824682022696186 -0.032601588085105146 -0.1752376497224982
Ni 9.399531614149431 5.564990359491562 11.632542416672521 0.5632657106102881 0.7168878389455396 0.44048062226055107
Ni 3.126938249871349 2.244246475210058 11.704428320873975 0.38409350172007395 0.07149646537808976 0.0662447300608472
Ni 2.3486332612464196 0.30707228599982606 4.095149063297749 1.2028386777237479 0.9827432482566107 0.34271982386929367
Ni 4.968077891853468 8.318720625021859 3.11254051935783 -1.4134876170660042 -0.4420489951889354 1.4278636832820182
Ni 1.1693134331546762 2.257733355342627 3.4470003360702375 -0.5847889293940445 1.0149278034089553 2.3130803606453645
Ni 7.2075479565292735 5.220200166507398 1.8561418291000689 0.1675816758391372 1.8543806442736257 0.5201197713504333
Ni 3.36209315919721 3.3082382047625596 3.8069972872436826 -0.17759586554202964 -0.6142229183844453 -0.3204532991616094
Ni 7.690095013022625 0.693742157627627 3.609304802478233 0.6626833278786781 -0.5250467763384054 -0.5389065650396332
Ni 9.064710789664085 9.05251983487027 -0.08401206272833335 -1.1586622403168496 -1.5658586466029742 0.9063112932501166
P 5.800098985769609 4.522677609534445 0.2517538615933437 -0.03305410224149146 -0.1412767193960212 0.5047546017482726
P 8.896712582714194 7.956907527052252 10.229066382737084 -0.1523615164552731 0.5172596761938189 0.5355116804254714
P 5.579717625305506 2.2890854919308294 11.136998154692456 0.12028803295949606 -0.9765705437869955 0.57464669875372
P 4.831043043890152 3.853693179842692 7.026106375511756 0.2956678646868134 -1.0747859132171684 0.2875560342129564
P 5.6057472113952675 8.012400901379465 13.361265163822805 1.0152443062081096 -0.08752420826491378 1.073475679046177
P 2.9758611252017158 8.332957290528991 1.904629801310379 -0.04912298277889605 0.5005716740151767 0.0596706763877553
P 0.9700741689313324 3.3983883252917897 5.650606592657076 0.624929249058356 0.24339450920439373 -0.02310933232395375
P 0.28101678140328873 3.2519857884512207 10.20164552823008 -0.49489133580094774 0.42465445386157186 1.1427874780681222
Ni 3.7916276127261 -0.007786659963978671 6.037509730845853 -1.4317164813692052 3.054318603410811 -0.16047488959102685
Ni 6.239908275912879 0.9832370677292135 5.576960081316836 -0.4359220563555912 -0.26172081831740734 -1.435211124786025
Ni 4.646836513596315 2.0869118824761714 13.687392180607047 1.2640461024710035 1.3196955735145077 -0.34262623571422285
Ni 8.848282001483172 3.0538017777180024 8.141647238056889 -0.6650528565521191 -0.7698715902314225 -0.17501319241651794
Ni 3.524370781437474 4.846871846242035 13.234713426189026 0.898294079372595 -1.0071268193072977 1.8035393932520425
Ni 2.3632031646978016 4.3683143884701225 1.805445229848145 0.0500560361161267 -1.1508196043439793 0.11780563285727452
Ni 5.091061206500901 6.478525157215117 11.878953363226389 2.1420894020143626 -0.6206599322590408 -0.1556918663800867
Ni 5.346016003680958 3.930902560203541 2.608339476114911 -0.3627767425201688 -0.20878900331538236 -1.6308833882137912
Ni 3.125577528265661 2.367461205096554 5.9861633176026405 0.5302236925536546 -0.26446289983891874 -0.2827609268171582
Ni 4.80811442200383 6.49088273098106 1.34144379061327 0.012924935591784193 -0.0910605035529464 -0.10079470012157479
Ni 3.7462887390889534 0.38695127255850115 9.425102072404894 -0.6267285070506239 -0.6167117462445701 0.4525563224781626
Ni 5.091949841018901 1.5647557936648626 7.410923073905144 -0.5302460611511577 0.9542968199904597 0.7183736794624467
Ni 0.7401760881760178 9.335475875976902 2.235552667508954 0.032551708683776194 -0.9533611955500676 0.2110981110645332
Ni 7.997210805087395 3.893672476543148 12.302883865326137 -1.3981484156057726 -1.673305561933744 -0.38565544689055514
Ni 0.8074336875962181 1.0794595241314464 6.384175312927379 0.7678224210118777 0.1251823849373199 -0.7603130000087099
Ni 1.1208365688758408 7.96015659700869 11.75462321188761 0.3298812773437287 -0.35776591956913867 0.4889999100171772
Ni 3.438515727745246 7.6637969852555505 12.974457368712523 -0.9017244452103824 -0.11715720063999824 -0.16660542796879693
Ni 7.372963569411226 6.14040897972552 -0.7168790532291067 -0.4636889420562143 0.1840123105913347 1.3023889639152602
Ni 2.0070736249995713 6.471471620728489 0.9410037866002874 0.4649611239004186 1.395555458067616 0.32025506710787427
Ni 8.080696166731622 8.803415214933713 6.3458622059481735 0.6835776548291841 0.8854190231821396 1.2116310792043972
Ni 0.5980454766485445 1.3058947072494282 12.094624035084134 0.4953657043342049 0.23028008330962274 -0.727969807791314
Ni 2.4479289120234045 0.5499814571561968 -0.010335930237492373 -0.576946036310858 -2.8551704656193024 0.38187798212599394
Ni 6.943086621328523 3.2987501799609924 9.65629792982087 -0.9168566728661306 -0.6173077279573563 0.11963754385969075
Ni 1.315836305919558 4.89394170586737 3.9295788650361025 0.1779231669744613 -0.7630077732320536 0.9129431967443374
P 2.7314866327516003 0.11009163450973317 11.389491619389844 -0.3966440846915749 -0.41542393640223935 -0.30812125995881773
P 2.5127899752278724 5.700877387869125 11.692194785676168 -1.765511234834727 0.8946942778364786 -0.2193431246821448
P 5.502943305594094 8.051695208972296 5.803237902072254 2.3932247315064394 0.23915964518743973 -0.5718786490902796
P 4.891784915839307 1.6250811181837035 3.6264026860011347 0.34134505500895407 -0.03246994760324731 0.25704809543208634
P 5.671284007097799 7.6710911935908035 9.610872044053837 -0.4275227765483024 -0.05575257228027172 1.312685717855578
P 0.24069869279284473 8.937543487494402 4.456311421615114 -0.012557010729404182 0.1155695444379042 0.3174098843495953
P 2.560480027693895 1.1088307462732727 7.800955871787003 0.03092342905173384 0.12973966529069914 -0.13141319633838014
P 7.951205455561748 0.9168486639469322 1.3535440306333757 -1.041316063594497 -0.29445096156057676 0.2073684688187719
Ni 7.033264511686441 8.177631382070167 11.552920763859683 0.335644405079751 0.9892003167358641 -0.8563683856730864
Ni 4.859072057645416 0.2454167866868532 11.983678941172737 0.06132440994109439 0.651070426230098 -0.5855432910615658
Ni 1.0702491976167545 3.5415695620046073 12.376354501084691 1.4349439871675675 0.4527064749027816 0.1665504063611454
Ni 7.276639290303805 7.768609575331788 4.512711018018496 -0.009116617589287525 -1.2558167725826759 -0.5728047604489748
Ni 5.787500740155042 6.127792220891826 3.6205497317747635 -1.1402683111906944 -0.023593985269856142 0.406503493984158
Ni 5.649281046167726 3.3736639211503405 4.843783841291984 -0.722989066747271 0.08252084151305142 2.477274350959192
Ni 7.636675119237412 5.069539589268078 4.444958189986702 0.9004540631383912 1.150890823901547 1.316578882262397
Ni 5.670487938675423 5.337000065967079 9.12825186034494 -0.5744027010637139 0.6021801282872984 -1.4759266002275164
Ni 1.0464689676506809 6.372175969951504 9.75082272402934 1.427495244199006 0.9524188862414564 -1.380965476068583
Ni 4.234954414503122 2.8714002862888535 9.389646480797634 -0.007811782734934934 -0.49585627081737826 -1.8109927642062942
Ni 7.530233365878176 3.1084805704037155 1.1282168636800256 -1.9526296951552116 -1.0089744140389978 -1.1974676432198215
Ni 1.827115878494924 3.318753713225565 7.740057563136243 2.535901930794413 -3.072362862507031 0.4780632085000154
Ni 5.299334921657248 5.824147657412995 6.220773938286227 1.149755424745523 -0.16995300428479118 -0.04876251411568376
Ni 4.462926194808479 4.206416287221921 11.15734695949371 0.9787665229970498 0.9159909824317256 0.4318352878807273
Ni 7.182499571053135 7.79050145694711 2.095791748029482 0.15038459523456035 0.09999534414873101 -1.2073967294080754
Ni 4.601479126740045 8.016427526539154 7.78846500284336 -0.05665554371051533 -1.252997557966326 0.8142560298840686
Ni 1.000093353742534 7.496048706763847 6.238507750886073 -0.3097618808860343 0.6369674111698127 -0.946941150956337
Ni 7.474193851586774 3.0124062197544825 3.5959197450508515 0.8066733324408043 -0.29963636241625813 -2.629011860677221
Ni 6.00165240238358 0.6680661740231524 9.490661083970375 1.267293662874024 0.1487357467772277 0.16431303239019443
Ni 3.2102755057625756 1.558266910361547 2.042385739158613 0.17117607805861487 -0.689258250153729 1.5510989717952963
Ni 7.04239152871507 1.5256003352154692 12.72220735284663 0.10521545489708976 -0.41530489432587187 -0.02740050350013991
Ni 8.163579848754287 1.4255548990639222 10.452472803206216 0.6140069457188975 -0.7110596622995368 -0.6409374515611542
Ni 7.639692773954789 7.698027927417692 8.556879304150753 -0.8350261725518845 -0.3282586541386411 -0.520843022669703
Ni 3.6752072342584827 6.42686401924678 10.115317461789207 -0.5313493215176655 1.1551424000890493 -2.0549454599070027
P 9.169199398405636 6.953574359962841 0.696743150447791 -1.5382411419960218 3.5577981951014013 -0.46847582192189646
P 2.1157091948251225 6.9045698689389425 7.8735054748940865 -0.03490683917951407 1.4144008729088933 0.8688166387387684
P 7.765823335853473 1.1681285871306757 7.978095906340823 -0.4917466195243789 -0.6184300144872575 -0.21400731429152822
P 2.5293130232969423 2.514261776148311 0.27459639701073574 -0.5658452984120061 4.030755964054052 0.051111731074150686
P 8.33051354560449 6.459151073400795 6.5072724838724305 -0.6692139299083443 -0.3742670025479554 0.106101714156785
P 9.21039131095878 3.977833570685438 2.359408880438131 -0.74988023471116 1.1398556491333078 3.751294276813455
P 6.751011972906558 5.158801075279307 10.904284213308229 0.40729796486099534 0.06800079352000547 1.296092075162955
P 3.7000704875433694 5.495760176573591 3.5444502189004585 -0.6450774418714568 -0.2953637031828333 0.0014195060553459423
