# total energy = -340863.89636369294 ev
CRYSTAL
PRIMVEC
9.32407035947803 0.00000000000000 0.00000000000000
0.00000000000000 9.32407035947803 0.00000000000000
0.00000000000000 0.00000000000000 13.64671946257346
PRIMCOORD
 96 1
Ni 8.801717074479535 2.4427105689487196 12.82705614643409 -0.8963600955746757 -1.1628662510958683 1.1596955666773705
Ni 8.541519573393254 9.294102569977433 12.318716234534389 -0.563569872114268 -0.1868628926662524 -0.9728799823092859
Ni 4.112614233198296 7.953012238910962 5.452437423133913 -0.33507721972237126 1.1729321199723026 0.633401033974793
Ni 8.075381335315189 5.149982303805206 4.46620255312749 0.4637848442041303 0.8325342593679662 1.5959647219597353
Ni 6.1877233372173714 8.840635743207914 4.73916470622363 0.5292330465056112 -0.017794090758627416 0.17335225977432728
Ni 8.24743840144954 0.5780858212964487 7.876763723004592 -1.9021404281564076 1.7438864574761 -0.12422619167163768
Ni 2.7142741115251527 4.923556584734781 11.181016507278768 -1.685736331497929 -0.25611787030833316 0.12498955220022345
Ni 1.2278961196715226 2.0346239915086244 5.448180052711926 -1.158082970774612 0.43245132419817134 -0.09560055751514504
Ni 4.809784280991687 4.629605949772905 1.116337350177617 -1.6940636204167017 -1.6861983587360123 -1.182232828547938
Ni 9.43390767752734 5.556651622585331 6.955077525703683 0.06479514209851421 0.2277819994781174 -0.7888244771848414
Ni 2.832988172437879 3.159013608651701 9.635225540547985 -1.1903983950778658 -0.45306180135967133 0.7849395403081385
Ni 3.7705607204286324 1.75480864686592 8.090430384507236 0.24110751294242988 -1.0002835711332192 -0.11507537841030505
Ni 2.6977145629718224 7.160298444481324 1.410265607371178 -0.42985605266716936 0.15945544718757698 -0.7374960021141943
Ni 6.875205676144259 8.3408469360257 9.767516379979016 0.8359070324949411 0.003010504691549654 0.6121691211792102
Ni 6.641814876685694 1.3124094913423479 -0.1419626973783083 0.7073439040108462 -1.1770764811579792 0.9136096266837426
Ni 9.168283567624597 0.6970861311622082 0.834273039819224 -0.23907197056963986 -0.480129861221057 1.0776632347649635
Ni 7.304178170678643 4.572468048007811 6.634639072312583 -2.0785039639532332 0.1761341933948386 -0.2697981960089031
Ni -0.08150822386748181 4.893150792036352 9.359766401470662 1.3930640591043297 -1.1183386009971386 -0.464270268480981
Ni 3.825861780377845 4.464933547182609 7.998342138261678 2.006852203944202 0.2856747580298435 -0.060997622729294945
Ni 0.017252326964091836 0.32155920662089127 9.799517521076922 1.179675352233407 -1.5216474993033988 -0.27558240679084794
Ni 5.190933619822226 3.8647711250360923 5.030508331176772 1.646772291529906 1.2842919972042333 -0.900245803782327
Ni 8.941055978522874 3.6974879828090095 3.117893526965304 1.938668862099745 -1.3830341856721537 0.25690051411062853
Ni 7.654045254218404 3.145726808714485 8.442051325638708 -0.1074569426330988 -0.15512750923618446 0.5588714381973343
Ni 2.4016287159498604 0.33403760967771673 1.049465119195362 0.7650983372124953 0.9424538046089447 -1.0926383680175569
P 1.3244468658819593 1.0451443450964806 12.633094974747106 0.059181909676794854 -1.197222359978235 0.007242540495026237
P 3.011917078259055 7.644982258050702 3.7148960217442952 0.24778466785228936 0.19149113546688312 -1.7144324138810407
P 2.158289133661113 5.581537565765984 7.706616226433148 -1.4907808916315293 1.5271648295772022 -0.21127474585171357
P 4.943463474465277 0.1599478962547266 0.752251059687503 -0.8840401405567421 -0.7942919280573159 0.6841816069617701
P 7.534249601170437 2.5753641147078583 1.7922783550958825 0.5496396351864212 -2.0121401918160187 -0.439596676993701
P 9.031909717883037 4.451777284227232 12.402902331343602 -0.33892873225797754 1.9808102713544853 -0.3041918429974245
P 5.530917189022723 3.181456645457932 7.235913856025773 0.4233295644025613 0.3779963876834006 1.1905428910755302
P 5.972001650657771 6.148571566735708 5.14504520867064 -0.2089216722385047 -1.5900303587531712 -2.426649072603156
Ni 5.754265964949793 3.3294482865831903 13.003958931815717 -1.6444955796805871 0.09279034175985955 -0.07991579979003656
Ni 5.423755651002777 1.4451749259430633 6.049153668959873 -0.32256134664354774 -1.3144731487733041 0.05867308836117637
Ni 7.418519242699753 5.911535055855774 8.517804733421103 -1.0239852856255331 1.2627875474735542 -0.967170076408702
Ni 2.787151043672017 6.815447710672246 9.983790051490393 0.29562878391876185 0.7196324915702123 -1.845461744517441
Ni 5.557089853881506 6.748733988882225 7.0176066048187415 -1.084790589838364 0.41057663561226704 2.6946744929823523
Ni 6.762925223622185 4.3071702805596646 2.6941219987502016 -1.6824291215015668 0.7619633911279393 0.059719270237503605
Ni 4.771397084260796 8.427840510351473 8.733764183769052 -1.4226080913100339 -0.007440258328129121 -0.9093881324032275
Ni 0.8213890397116834 3.1166077376941863 11.016068112212581 1.2942377955630355 0.2654558598798073 -0.1005545590863107
Ni 8.165955352571412 1.9623158276397752 10.530586158239956 -1.0924540199208927 -1.593200528951037 -0.66889742710919
Ni 1.2607727909547672 0.7530911584063403 7.462653796259625 0.14394012516079727 -0.23706856698636591 1.2028255650976252
Ni 4.953710627539664 5.364184166933391 11.556273966193288 0.8488080568273253 -0.33746680300047044 -0.3554506411724007
Ni 1.4666389353854994 3.483407332592532 7.476423583029647 0.12270358437952418 0.18078968988897898 -0.6823476390768248
Ni 4.818782008668468 7.670287784387266 10.879792165207402 -0.09424764303167639 0.268080441986848 1.6750734524674444
Ni 7.009975785823221 2.050456262591707 4.274425078665272 0.04199691325707606 1.6988810964100032 0.3114554665383733
Ni 2.188732222640068 4.893980634278045 0.13251741433522068 -0.618405074786593 2.3850820477946475 0.8416848155189827
Ni 0.534518171200564 6.181121895564354 11.23931525577522 0.13189630662238577 -1.836765502295024 -1.049734369565179
Ni 3.3905489181541215 8.632951405101563 12.6237336083352 -0.6698114542830271 -0.9714951861466172 0.6883149124038532
Ni 6.90617091305057 0.5036732147989468 2.6272935908975645 -0.14110882635958924 -0.6517057458212518 -1.5844099272426004
Ni 8.5615010556848 6.85994217333919 12.923729970370262 0.5773946938125024 1.3240258254587456 1.6133888309734539
Ni 7.252681331343034 6.956315762217129 3.4012669367701425 0.46955542813932033 1.1213601614322817 -0.8982894513869046
Ni 3.9651913603510516 1.5036275215966826 12.74479360529298 0.41997530321834764 1.7921344938492103 0.4185725093335501
Ni 6.054556967601006 1.1577045197224962 9.03916384444525 0.009102219411584324 1.4557192720417058 0.5051842330865235
Ni 7.207040008049931 3.691781651888605 11.298459697432587 -0.7318444602553718 -0.4622959183634296 0.0775339298214213
Ni 9.283025574661355 1.394162938254285 3.371271403157494 -0.6305800195862301 -0.5803398924837553 -0.013839991206885841
P 6.378372599193692 5.914835776682282 1.2381628532931848 0.9214574048629357 0.5010840948752209 2.6342939350117662
P 8.764616599426775 7.3900528565886505 9.723123549676503 1.2366214306011476 -0.3674466371920123 0.008779031744210688
P 6.475240363788595 7.868489543170005 12.193165765401334 1.1612747382390323 -0.6076141548186761 -0.3055509281284802
P 3.752649181706252 3.171134899822495 3.499414896194085 0.19374496449806633 0.30069102893301763 0.014756589483884263
P 9.008972505359843 8.110281329816942 4.362186956369871 -1.057943644848849 0.15398311121909608 0.47758832574612586
P 2.688614270523596 8.970557336418558 8.8837138796219 -0.8685351029426075 0.2143479854603986 0.8710784381897515
P 6.047265544758267 1.6936147745936752 11.385935326184152 -0.7778808336891442 0.34016671843013674 -0.7575837740030049
P 3.0968220608753985 0.5522861192429211 6.370342709996548 1.4920363613051855 0.7034000888717499 -1.0356151565549776
Ni 5.218784617304657 3.616778831751787 9.845070265703777 0.5939919360495511 -0.3068148824425683 -0.542225345000221
Ni 4.871724078874442 6.855270814203368 13.662140380354744 -0.900373587609443 0.5439351286024762 -1.244339625181012
Ni 4.219673206446798 0.3613366222083702 3.58594879386238 1.3744263893984845 -0.811803454578518 -0.22606064591163652
Ni 1.5801688133051786 9.119658541889452 5.059152807027385 -0.23779464651911303 -0.6422836811764036 -1.46200561927105
Ni 2.3878104440151557 1.473697256474954 3.328025433481142 -1.3742261004622203 1.6992251100129832 -0.6318239192956602
Ni 8.239820636152201 0.5045496773912965 5.530332569825486 1.0591962863090274 -0.37372038601586605 -0.1908218773140004
Ni 9.223547331293284 7.949627601453272 7.5982201815278065 0.05040416348416481 -0.9253765374116838 0.831440254972839
Ni 6.897816546212854 5.3659370921180916 12.954816420188282 -0.24151143324906796 -0.19842437225160664 0.8767636614999869
Ni 7.604720923223406 7.28610812276403 6.026650025697787 1.3777577677645627 0.28536596854017304 -0.39155535731475793
Ni 1.3689040322683776 4.27895564434211 4.739546060692003 0.5088087172129881 0.2782111026629467 -0.12759099437881252
Ni 3.8910650028065836 5.725641069646457 2.7915725177283166 -0.9879456183931568 -1.1022396385527469 2.3344326010688956
Ni 5.266495884166926 7.6605814273805 2.41747497313814 -1.23467073463268 1.1548402954675983 -0.12974223639386043
Ni 4.099215544419503 2.1929094060589263 1.3980109819975055 -0.007772444856567259 0.06071454427123737 1.1262285452681764
Ni 3.794756682419562 0.6791652683696965 10.601058412699937 0.2774811664754576 -0.03211667802888662 -1.4099101841273913
Ni 8.796057363909787 4.357110000183335 0.9436052213657559 0.16874664268151582 0.5219023171721527 -1.1817977978930485
Ni 1.0583379043323828 8.73693343520671 2.618068355909577 0.6455165862914044 0.14932298673926542 1.2059245157379233
Ni 1.9012524923493694 7.500785513468916 6.603060311591626 0.8817721704581718 -0.9475764705474907 1.0397677452707708
Ni 3.4180456009715603 5.713072223109357 5.7909440596256 -0.00801824231878619 -0.82647519765808 -0.3399376331384662
Ni 1.278637709326491 8.348856312268556 11.185314903609335 0.6271892487371263 1.5968052155831596 0.4071336713689891
Ni 3.3593971998451817 2.968709337270242 5.987348137687008 -0.6620148410567437 -0.4107650974739893 -0.5189854006356739
Ni 7.424812990038434 5.740242563472197 10.768175586478682 -0.07491963212702582 2.921186367498795 -0.5117963390864024
Ni 1.5954416401803786 2.743961950823466 0.3403453431215951 0.37796322045262004 -1.0487272684569036 0.7984337181398313
Ni 6.924259609105447 7.975874858873105 0.7019663494689724 0.8746934092345193 1.587652602549614 0.22007331797995
Ni 1.1176296662978262 6.547697712779547 3.7000893983756646 -0.15002026991660614 -0.7055613581891268 0.1149175126762021
P 3.615473461933394 3.849330464898528 12.690807239232292 1.8477600536333143 -2.040532626915782 0.8938874656644671
P 6.363985558980972 8.991946753299944 7.402280442158942 0.35260057331811534 -0.13518500467598654 -1.7804573146215983
P 5.073804650831835 6.208581282101267 9.240739051801523 0.3896082608907161 -1.3416967603759473 -0.026361777822980405
P 8.990016670782747 7.673402023811148 1.5397592257627921 -0.9130822934253631 -0.08185184047048484 -1.4858592859601958
P 1.4616598819353428 4.695387264549789 2.2656287614205697 -0.019568409050230814 0.07330857888616407 0.3920238123107442
P 0.48639105081043454 2.3774700502394555 8.931518387185486 -0.8270884057620466 -0.1565624419104981 1.0961075575130799
P 8.756458038061819 3.422241432530681 5.674333508934513 1.3648870824494816 -1.0136728479559316 -0.6942245930200689
P 2.0950626141002275 6.813955859451225 12.512034977789323 1.5202611604788334 0.09743092585566447 1.0614627137457011
