# total energy = -340867.7337203927 ev
CRYSTAL
PRIMVEC
9.27679031672929 0.00000000000000 0.00000000000000
0.00000000000000 9.27679031672929 0.00000000000000
0.00000000000000 0.00000000000000 13.57752034087144
PRIMCOORD
 96 1
Ni 0.34529975954701636 9.43505230643488 3.5341602334944673 -0.09339995031940043 -0.022581999065574013 0.4158566530642838
Ni 1.8736240529352706 -0.24349255246804466 9.774877832046801 -2.302103292808571 0.5996185382077093 -2.4715839854426336
Ni 8.76383014684538 6.17272058127144 3.9230618349637645 1.700240438651375 0.4848930869376552 0.12013865186582535
Ni 7.451693101460577 2.736402654696887 1.2550810745418872 1.0316939671237007 0.5883167400416449 0.9019262768085435
Ni 6.507853906367567 0.14408896174661065 10.478410124448605 -1.0908524797617278 0.17058523855215138 0.45690791457863894
Ni 3.1802228545321545 4.572279448045817 2.093789188604148 -1.591471204964756 0.3716635034868373 0.11782440191035191
Ni 8.90490229639797 3.5059773446708493 8.982004483323491 -0.041306829168586925 -2.267802205533856 -1.0177498462387826
Ni 6.947638702437767 1.1215824965612549 12.765815202663594 0.36889648226466143 -0.5053778371545684 0.2903829621387902
Ni 7.673259960138424 9.423456318604227 5.055915631696414 0.13674206475046127 -1.8060490470477735 0.8090945402877872
Ni 9.038719995963701 7.654223986515624 1.8780286729528657 0.9275072106014414 0.2911769187949953 1.916627051808357
Ni 6.215690673776706 6.561872656077879 11.042909305797961 2.067972211183974 0.8585098574961214 -0.3419538922375466
Ni 6.724179378545958 7.146134183727747 3.078607677011659 -0.2351284125408596 -0.8919095160024898 0.8327602593358433
Ni 6.771871357295866 5.39242192175169 5.109913044789118 1.058913464961286 -0.6858160572413996 -0.06594673920445417
Ni 5.773215608529794 3.3658328741447137 3.202067840247052 0.8805185005567288 -0.0953727577750551 -0.6741293649320906
Ni 5.733139874587058 5.118840100060668 7.429972424735225 -0.5099310037428895 0.4081001490473165 0.5340376669831061
Ni 3.817250765206625 0.3651734273307021 13.431345123746782 -1.3796812100395206 0.9661205520982652 -0.592751892994863
Ni 1.2606508594167063 0.46335897549040433 1.1437920601335474 1.2340899224285455 -0.8260393956722419 0.6983594411240489
Ni 6.676543060537637 0.0357740862970767 2.9603063368423665 1.7958453670418943 0.3869834216733593 -1.9525319932350824
Ni 4.073197408604791 6.8675800024549405 9.361116288026638 -2.0894980010708917 -0.8850701244831531 2.0753232522324065
Ni 4.400621720991099 8.979905145686631 3.9741676725310167 0.9329137263289934 -0.25770706917232394 -0.4683758060089224
Ni 3.7748465569074945 2.1586441570224486 4.198630745129448 0.4088550249354701 -0.03493692108650112 0.02897633262769203
Ni 8.82323871169938 6.121874493831593 6.6940567128780275 0.591820125209213 0.025853727838310313 0.6456330572646106
Ni 6.070666611571432 3.399164381565142 13.076822379318779 -0.9684435438044869 0.9648941358903318 -0.5820733302350943
Ni 8.209467714218068 2.216188087033279 3.48942291244381 -1.3911539865658105 0.30015829635799923 0.14521359255658217
P 7.845669107204568 4.457423507780768 3.1511660920656186 -0.7661321777936483 -1.9494713520318876 0.23064260885536408
P 0.4912153212967114 7.363480102835236 9.297206624536292 -0.9762090466825188 1.3183220902057489 0.08680404226943761
P 5.218407889969783 6.782678817954035 4.933079796445823 -0.9175848092814067 1.7551777141192029 -0.10482644698878721
P 0.5945550541273822 1.80112593701803 11.073621975326715 0.45904758662946105 1.682559219321528 -0.38806199944951875
P 1.736077083683201 6.213677610289305 3.189861439616993 0.42104308236122967 0.16510441794323824 -0.3904412983149727
P 7.657545077430322 4.9399743069704165 11.560660885646337 0.10323210591847382 1.0759994739092953 0.05320563748870192
P 5.3797962102016745 2.1196259771698682 11.416699015926351 -0.5861387585537196 0.49652989984563517 -1.1068478267487196
P 5.934483330488247 1.185972697787303 4.4765902841462974 -1.5392816674453942 2.6127740586621195 1.3216539827924594
Ni 4.686207709284413 0.13933089601993726 6.427747894754392 0.591839922703555 0.19454277780901336 0.49510216626017317
Ni 2.3292628835675395 8.3108352014385 2.759209643562215 0.5349612072386399 -0.9419439548520616 -0.12686157241195573
Ni 4.3745261099769985 6.986100274874476 7.149487743408372 -0.30357195002523846 0.6916244363930605 -1.6875409888068356
Ni 1.9803813552993912 8.992855544895903 7.196343883355446 0.19160863488135388 -0.5606460135992538 2.523656537768157
Ni 8.820390737088173 8.610039517840134 7.323524039486913 1.3787707824101092 -1.3093674521156224 0.4601379914801623
Ni 0.8202602889422321 4.262258394195752 11.658487422022805 0.5285087667450769 -1.527168172011312 -0.7927914322523895
Ni 3.5521015458660536 4.462804046134191 12.768707705868072 -0.7131674526711589 -1.0292601608712275 -0.7033890331281564
Ni 4.391196502082345 4.776758459056414 4.552936412665262 -0.2429466230336977 0.4949144757293993 -0.21221319850558293
Ni 4.316889412063523 6.600575425061465 12.038616890617968 -2.34834046939924 0.8473836656759728 -2.036142468267887
Ni 0.8444495195569736 6.189223991152025 13.11531456516336 0.5813534213499343 0.27496019982581676 1.292699504541638
Ni 6.747287863094883 7.462621160392184 6.714613152425183 -0.5442428896508821 0.06992500712591183 0.04935618183562467
Ni 0.44215130526668034 4.909184640082468 1.8708196792383056 0.3990976884383901 0.5557930563823267 0.8895351022330423
Ni 7.608507964092059 2.892967043991227 11.191162618694317 0.9511456759559878 -1.060358939158561 -0.5204630136224649
Ni 5.83540721046315 3.2253451623787908 5.8255162966831175 0.25391032113405304 -1.3605658293663085 0.27658410858248494
Ni 4.8050526693632065 8.285741483772968 1.498469726958969 0.45652713420045243 1.1397985706431273 0.11542144889581411
Ni 1.7305017327342231 0.18750062946846843 12.017014956808003 -0.6539161232090093 -0.21478995809382365 1.019725481907915
Ni 8.836782825485583 0.1252116212373346 10.292981929925231 -0.29574242667849066 -0.3465466538145516 -0.37030518968673
Ni 8.400012986251353 1.9205738884640169 6.051107426977713 0.8481717087949069 1.9108852642285732 0.7040948009459292
Ni 9.459264729025284 4.058354544181555 5.426487223282042 -1.9820945373835477 -0.2960039078699935 -1.002612476376712
Ni 5.872375219667271 6.8396197565976715 13.598429393201089 1.4390325554146444 0.5995560604008899 -0.6327088930037748
Ni 8.743244949248407 7.296668659350147 11.508699728016698 -0.5593920865874947 -1.209709436701652 -1.417693941837868
Ni 5.137848243312673 4.503362173170681 10.551729236304256 -0.7808121484033262 -0.4058368069344365 0.38379705352557775
Ni 2.0489832193055326 3.9693808487545237 3.959326663465834 0.605866318889634 1.1735756670935724 0.6514208675909814
Ni 2.0438902614503096 6.920058804981343 11.111000946339553 -0.15429755713572135 -0.21660669958758824 -0.11638612680192859
P 5.516359839685705 1.8030555093930507 7.65220906767017 -0.22202607083094664 -0.041260549311683783 -0.4512846548545905
P 3.0601997420897673 4.0466008509164055 5.969859442482976 -0.4475334153422744 -0.9788284865832368 0.8508207163819799
P 2.392753236137929 7.89183041556083 13.393381714947278 -1.0927967479722922 0.37857360034310933 -0.45404036322285674
P 0.9166368630003525 2.2768861257340474 4.129425889756113 0.014442400677575129 -1.476909790076392 0.861580268891329
P 0.5599702523422172 1.3342436365851602 7.670212534536528 -0.5494735419222021 0.6007145994853654 0.0320588282077577
P 5.483529278939562 8.807273355654138 12.508562387196184 0.9285958156799297 -1.664697765660075 -0.8108585741667453
P 4.920622922478623 4.502276788709733 0.9919523401209285 0.8685443589139881 0.08974512717563253 0.02015487768132013
P 7.596540904650826 4.3939238784201144 7.094308467235968 2.010518082831563 -2.161585048845129 -0.0505939108974677
Ni 1.3333066807684433 4.5094477475842085 7.2705173875944595 -0.32947015794823903 -1.4067510696731191 0.7750536486529943
Ni 9.118082936676688 8.700859294529804 13.32284656785001 -0.7167482280438818 0.1858712181769444 -0.9739870993305354
Ni 0.7347375594936025 5.327874015091145 9.604968779956947 2.206010111927723 0.424748813347591 -0.3858703911148387
Ni 3.6419565363682147 6.365306747162919 0.5378256263017764 -1.4372039868463375 0.09087127036027576 1.337672983928535
Ni 5.615510174032918 1.386175108485955 1.4489520758850027 0.3748565565028383 -0.1455033558828591 -0.9813484247916131
Ni 3.000382998464129 8.015035467063948 5.440987774144516 -0.22119380473763842 -1.2196935444975576 -0.7826245190217167
Ni 3.695121821374191 2.590339591981986 0.9017615298111914 -0.33095934089925577 0.3687213901393779 -0.8581190498156059
Ni 1.99166193226105 2.35449575308704 9.008535175800999 -2.2541835863091566 0.37593796249247513 1.4696369105640625
Ni 3.5348281623935134 4.4418570537169 8.093138619659014 0.2937379946539522 0.212711221187924 0.5317465569560842
Ni 0.27564219680877255 2.1277338918610607 13.327802229209318 -0.11473187902795726 -0.7552906070934541 -0.8310990695833362
Ni 4.466783789157671 6.483539439084254 2.712041803462252 -0.16768811951001444 -0.8371779287875646 2.0276418869960433
Ni 3.6927469630664738 8.824685890980646 10.816626126949632 3.743537258575856 0.5143052215511853 1.6823278200370124
Ni 3.2887520238367993 1.9997512933717134 7.203010184839532 0.8816852671713202 0.8303598774244667 -1.1921711707075726
Ni 7.4677048414571425 0.9220943987129709 8.009827477009445 -0.9144629758229735 0.8162398930833169 1.0426394103916108
Ni 2.018221382788377 6.616364522091682 7.740069548265459 -0.06232971127715717 1.3014438263931716 0.8925322371881531
Ni 1.5223027288275528 2.548167303439468 1.9805937937964486 -0.24828808985126916 0.7148353272918851 0.3473326400509566
Ni 7.7647847728881985 5.511962641100322 9.401197588043534 -1.2084940762373122 0.14703290515350806 -0.4364038810880162
Ni 4.26656282487849 2.4858087192813505 9.404999216693934 0.3343943347227338 -0.8673110007275191 1.0221844849713686
Ni 1.8314517643927528 6.040248016294063 5.408808444074942 -0.48736571684786384 -0.6121218128810425 -0.6319948976558858
Ni 2.9165300912631134 2.247311718370751 11.647204062024066 0.4482692650670344 0.3749249478469285 -0.2597076445421205
Ni 8.575557688426905 4.261442036652474 13.521499754574487 -1.596008173603161 1.3823119627941485 -1.221114078994168
Ni 6.46767612773192 3.1237735857725375 9.025955132559718 1.1614804264919352 0.5382414206518085 -0.5396226172700512
Ni 2.075431348349685 0.9377072367281617 5.440145441588497 -0.8360155330483474 1.0890480795631374 -1.9809082303849304
Ni 6.814535315722403 5.3934516454710515 1.4927941866751344 0.753300830356935 -1.3152149120353347 0.25384784332723376
P 6.027798563759075 6.813913770774681 8.881259468729807 2.106052562995463 0.6182847471586449 -1.2764645307400146
P 2.8954996077334414 4.900037724881648 10.159203192878609 -0.12588815275509288 0.01881096205891599 1.1738312347478042
P 1.5237128009477603 3.9275889086128513 0.1239471947242802 0.7536947233612439 0.04174468803695391 0.9776897449931032
P 3.6696848624688716 0.8043626534659206 2.1881397116684966 -1.5971728833352234 0.1181002812795579 0.2618709707420264
P -0.1427095030342762 7.775657171078219 5.336590487223689 0.15376508167101904 0.9459394491647 -0.47739934966377134
P 8.061419418386558 6.866689430589547 0.2794568129655441 -0.5866964308294025 -1.0365636365111761 -1.4246696018247529
P 8.016157958685955 0.689777595476596 1.1504778428771882 0.46022180944322033 -0.28790030492625257 0.6493367313684429
P 3.7174139483798383 8.94148068041098 8.616498019222293 0.23034050423391297 -0.14207067605222629 -0.9561953225647531
