# total energy = -381177.57545425143 ev
CRYSTAL
PRIMVEC
9.19590515907211 0.00000000000000 0.00000000000000

0.00000000000000 9.19590515907211 0.00000000000000

0.00000000000000 0.00000000000000 13.45913673664470

PRIMCOORD
 96 1
Ni 6.377249765979859 8.09273664764728 7.890190402909747 1.2389097124146922 -0.6266395468812433 0.31978018435398475
Ni 3.2248199650661826 8.238574505027184 6.819838558088544 0.7707277675841306 -0.7203115199151079 -0.9624371897094068
Ni 2.072039706195513 6.108867278582641 7.326076806648141 0.47414253328937056 -0.3454482785440502 -0.01251510174787522
Ni 6.715787812614815 6.115331999796971 9.579257449514904 0.8261993182888739 1.3490511438584896 -0.5844626564028773
Ni 1.3720842012879688 0.571656077541825 5.647911505419356 0.7795877890779218 -0.18047807218583112 1.0975825993967097
Ni 9.146982784453149 2.326784666479143 10.241003049560904 -2.1762884164935743 1.0681900051672055 -0.33980727820818896
Ni 2.60522747394532 6.866591458694204 0.849702541502543 0.9112236429500694 -0.4189972555757945 -0.591152152607911
Ni 4.70202255639827 5.176374923964167 1.3803963798166081 -0.5438104300991538 0.13847961626685829 1.5871147277682733
Ni 5.789944097310654 6.160208016192326 3.757764041333515 0.6643414323073914 0.15917493983268072 -0.2290636944040184
Ni 8.326091932903125 8.039427986367798 13.35525880964253 -2.100160365880744 0.06991292294105379 -1.6308533063068043
Ni 1.161635915384753 8.747163226904537 0.6760673024915168 0.7335264759434851 1.1380988143432011 0.3971511062349805
Ni 4.206032224369612 1.753447577503492 9.694683529472455 0.4423706401944123 -0.01980777875454653 0.8258745879596036
Ni 1.0047445801959938 6.305880347282247 9.589850212483306 0.6833282578225393 -0.2780956601310049 0.3177762665500785
Ni 7.311930745988105 1.0746886336187536 9.303533871156944 0.44261386655347 -1.2525635557527008 -0.8160784278047881
Ni 0.5269915669614484 4.477081524216555 6.2221994509719085 -0.8985817858163427 0.6495601602331588 -0.6614949639975317
Ni 4.893269792663473 3.971269965648914 3.590803190170798 -0.7867511395955805 -0.7594575939869501 0.46869025192554764
Ni 0.10089379128755598 1.3569569375645345 7.810484896330498 0.924927365689407 -0.37720011703435036 0.13523128453288968
Ni 1.3602030920291985 7.688236374454152 2.8322872426388157 -0.6134811551224144 -0.9259072131041731 0.9011179219746351
Ni 2.49104192157214 2.100979219227517 4.10394664379418 0.7345153222193157 -0.7838892446667531 -1.2368931962052956
Ni 0.6494019367657772 4.118753890023648 8.485662954808607 0.27922771685291914 -0.20410625312773234 1.376174996658475
Ni 6.471103172400144 5.6770919511623354 7.329926212480743 0.09999945791378907 -0.23183122984682655 -0.8621893632302378
Ni 4.6898931577045255 6.613161512825438 10.78308325744479 -0.32120328995375647 0.11673451128028282 -1.3527661308162315
Ni 0.7043410320015902 1.797054559008978 2.340947279768177 0.21931895631242876 -0.8538790435923295 0.19260288047382312
Ni 7.54074325417442 1.564729215113027 5.73067189163929 0.08973124321856159 0.37140099385407005 -0.483530916482806
P 6.84895371290603 4.324880100577309 2.6153926273312678 -0.4902723489716975 0.3643651700532112 -0.17648746296919926
Ni 8.00685609086117 8.743006677844967 1.9931636702471778 -0.39865905823907466 1.3879087401556356 0.7275473755419147
P 5.906492997268589 3.773217759684415 6.484867603002719 0.2063513404081672 -0.6577763774953639 0.0189333465693932
Ni 2.079626327819727 3.706942872356276 2.216316098906578 0.3563497559479024 0.6562756245801213 1.1448711000700285
P 3.182969401415515 5.511096670024519 3.043029797502001 -0.654479451911647 -0.18095861136667546 0.17188878785492331
P 6.766696342689545 7.161200667148709 12.108566290559581 -1.3123959545293011 0.12318206667783947 -0.5357147975752128
P 7.467120838752041 4.096941203365906 9.66479040109205 1.0923997696441896 -1.106184482133108 0.08560205154153645
Ni 6.0710813049415515 2.4903430327922123 10.691143518854807 1.737280265013492 1.1918279284355409 0.801024361685143
Ni 4.118478012873675 7.428314119656058 2.6099955506873265 -0.42157298672277077 0.9454979907519071 0.04629322663958478
Ni 4.84713393728325 6.631709653208518 13.045846952911058 -0.21021390868736703 0.3612626198684875 -0.22654941262259695
Ni 5.821200978402418 2.1798433004993534 7.948051037163757 -0.6955512822512925 1.1652812882952641 0.336450188810498
Ni 8.326275851003105 6.425463895889868 1.8369565103903474 -0.45707297940159347 0.010091837018363263 0.6184973773900831
Ni 7.703464793132575 5.9019594161040585 5.32937363256683 0.2946245110239636 0.3174839321206403 0.31876588415685747
Ni 6.168318804401487 0.34274609276252066 13.1758752104166 0.081792190877143 -0.5777029690815406 1.1551046048725784
Ni 3.2335836625302754 6.850719326665848 4.8535526789725845 -0.29041535803862245 0.005253535089455468 -0.36273097688389794
Ni 2.5481760793312254 7.37796653978627 11.543389647680085 0.619676742410165 -0.23651886513048295 0.1511124745395204
Ni 2.4755652134587423 4.415579311582921 4.958628767853707 -1.3140980248220724 0.9906357636308099 -1.6914837755046679
Ni 6.650478495311575 8.957022974887813 4.180245987161782 0.18069841572675333 -0.17463575447244117 0.005699364377622442
Ni 8.789703483430134 6.481466957334071 7.4906283307011075 -0.2905891646123253 -0.27743154418444477 0.31940711728528215
Ni 4.424628082101985 6.508447742601278 8.30401808254341 -0.48954858343179564 0.11140898530231136 -0.1601794698377951
Ni 3.6256878557846868 8.942861281189279 0.06497274718027435 0.5321715603086448 0.19708431328394446 -0.09450321068590821
Ni 3.3579214940224045 1.2531351701252817 7.457330878290055 -1.6771149083775052 0.7228522840590905 0.07692123593808688
Ni 6.134395110859998 7.265840870132876 1.4428466902556438 0.3748395872219738 0.7977261505498455 -0.13649421040571333
Ni 2.9365007556310285 4.126312923932865 0.04626919600271045 -0.38992347813828976 0.5576609628290008 -0.7472114296297454
Ni 1.1438970146415894 8.335131507517188 7.913353048421349 -0.0029840223289884092 -0.11723253396262391 -1.2775886170421287
Ni 8.336161448877082 8.741756034765096 6.2757931853063615 -0.13293786051302267 -1.306575234082466 0.04880776553132239
Ni 6.388992936663643 4.919036718470806 11.525112786494478 0.3761428794144296 0.147368691226372 0.14364856206230742
Ni 1.2117719894395633 1.329332438947394 11.94455272694906 -0.4901471362477429 0.4337931829380465 0.21221525538811195
Ni 0.4564764478382478 2.6988877663606248 4.596039751284241 -1.8305987113626796 0.6432259904850148 0.30775796308212805
Ni 7.795083594638092 0.7277657608056652 11.560012165556364 1.050719616296584 -0.004738543126249903 0.3283339874612668
Ni 8.718306477017524 3.821946860274371 1.6835899655877231 -0.5879267036920778 -1.65231944660038 0.44710918332066224
Ni 5.585647871851801 9.160519156611748 10.824671737802985 -0.42027869339137947 -0.7323455682615064 -0.2858187398068755
P 1.6309121433911762 2.6295506426678017 6.678087360890217 -0.3819908535547744 -0.1522535301224991 -0.09066815321053417
Ni 3.847539063886722 2.835750420461457 5.824050789361624 2.0001243983020647 -1.4607617195616196 -0.7563565864641233
P 2.9979661846446652 0.37256749308393367 11.326293642053058 0.5542969314527745 -0.32546283656105884 -0.3145916981745098
Ni 4.279397154452019 2.592417578281646 1.4245422413550386 -0.17227136800532267 -0.11771744401884243 0.8932413474400357
P 4.624905697076253 1.7992523803037503 3.7712774237296163 0.20985549690668376 0.2755296991760416 -0.3073337310605158
P 5.267359208024749 3.8966360006766396 13.150585552078716 -0.5957107185128708 -1.6600602668880637 0.27630822921327897
P 8.265215041809425 7.3088225300984275 3.840093139608993 0.5746919501693586 0.7774134071344224 -0.07445914755083952
Ni 0.8718186930252537 5.364146108139731 0.9212742701101343 1.2908483102655124 0.5254447831077725 -1.4055997296774954
Ni 5.434246491947474 0.5479343210062806 2.258174019281245 -0.08251029999009016 -0.7353535018498949 -0.7294535914256921
Ni 2.740876268586278 0.3321974701381125 2.4181892033981813 0.5314513943131687 0.38320904223259167 -0.6269784182779009
Ni 0.9167829901085992 8.629989005406665 10.351987507403914 0.9792717447682425 2.337738011293045 -0.1312339904480385
Ni 2.9947108342750024 8.530369766551978 9.179696296896765 0.5296716767049265 -0.4518382133652154 2.043239741434301
Ni 4.40679722230883 1.7947555827592159 12.298783585464891 -0.286409579313339 0.5122123435778986 0.4065466885172676
Ni 4.294671552655437 5.101373122791931 6.075898119980053 1.4410390443217116 1.9609500420954489 0.4799362571530122
Ni 7.615423198671689 1.9177508121214841 3.0763815057525483 -0.3678302457836762 0.18157181947064213 0.23874672601973723
Ni 9.023923183755889 0.31012821773089705 3.932059546323473 0.6235634790590809 -0.9184134758302892 1.1439077077154944
Ni 2.075120334370194 2.0028037374576795 9.574681567187378 -1.192450135400572 -0.14068510855860933 -0.22158795485226354
Ni 8.77967994698117 1.318600817813505 0.324609928923398 -0.6462802039303063 0.4238065040389798 0.17055335687295142
Ni 6.533304273813705 2.4858554311526766 1.1391546864335804 0.5650243451726076 0.1855428883032482 -1.1295766358048032
Ni 3.187806447445014 3.8527715338311803 7.831602372570311 -0.4816285572537706 -0.32552351459566514 0.9837809454925055
Ni 7.953703759966672 3.146084626464333 7.414248063369514 -0.9423540458062868 1.7011506091704705 0.15876973397446204
Ni 1.572187094067255 4.022969343553562 10.974297388451994 0.30833928950689476 0.18322298192081993 0.20365759562608798
Ni 4.159169892494464 4.230704837482058 11.379551725855046 -1.2822482273013271 -0.2463435645303886 -1.3628906208447433
Ni 0.3610220343576288 5.189304366392829 3.56325225879365 0.17596912857188404 -0.09688122399978152 0.5984188614726532
Ni 7.850875150267317 3.2546146972630985 12.591614305892579 0.6188143944098697 -1.3610062593378365 -0.7480665785411891
Ni 5.406888674575306 0.661536853002521 6.394274144904596 -0.11340518979673372 -0.9756837703066681 -1.5102608547330119
Ni 8.310541657549734 7.506129867758002 10.526041160092397 -1.6602129904158438 -0.5763929920208654 1.9503059321180412
Ni 2.3316309084136413 1.8365601668848885 0.5455231547155301 -1.218011271699128 -0.3088532530288358 -0.6722840841932357
Ni 0.8076662205708944 6.957391824654805 5.343008400908919 0.006591280064272519 0.34263652012686796 -0.04215092233643708
Ni 8.773334772531829 5.405472505205453 11.850527357105294 0.6622426407968337 0.5146983432245459 0.02686391427037954
Ni 3.756665130686129 0.008317696071638995 4.537761622943274 0.4766241620606436 -0.47748445317841 0.9318528891646467
Ni 6.934990600077124 5.002664278532149 0.41484014877405784 0.3404289709525879 1.2116513909193714 0.7263140173554459
P 8.381322538327407 8.433435731957012 8.642179097073404 -0.049092900871909 0.7292710431012408 -0.42987944970593706
Ni 7.156805024559163 3.659960993716139 4.711155009652825 0.5632119745542172 0.4724574322774638 0.02030040212024891
P 2.9851562889809915 5.215990882700067 9.521544869331377 0.006330055983085873 0.5172108252337544 0.6420173148888942
Ni 5.62450057047278 7.60517896050275 5.772825920154927 -0.894681422320672 -1.6029586367790651 -0.24706090231238745
P 0.788649089032863 3.5525528233272574 13.095416559217927 0.09377893092537398 -0.688194327665589 -0.3357233379468024
P 0.8528585760982164 7.044265539180812 12.803662679265628 1.134828885342678 -1.2836628482606667 -0.13138182887981245
P 4.8286869518551585 0.07296306903394723 8.53054908669946 0.6404070329789809 0.0900181783313611 -0.1330407046394741
Ni 5.350784458176113 4.311463275183699 9.097057296622818 -1.1809984419202049 -0.6079630535176627 -0.12126453794015245
