# total energy = -340868.2551807133 ev
CRYSTAL
PRIMVEC
9.24862120859026 0.00000000000000 0.00000000000000
0.00000000000000 9.24862120859026 0.00000000000000
0.00000000000000 0.00000000000000 13.53629200373090
PRIMCOORD
 96 1
Ni 2.6465669176973106 2.808121831130926 5.45420504594453 1.8506299189819417 0.15907518103002283 -0.3854788121033748
Ni 7.435169974661052 9.42203274905519 1.6751435492778135 -1.8672513295887068 -1.5244728845673359 0.397903925240605
Ni 5.541200350629131 4.574950660854859 9.10950519445443 -0.9848386973330587 -1.2039805046376748 0.1223639416519183
Ni 4.226342385605644 8.246884454419165 11.966623445604663 -0.41504572712721427 0.14197965900031675 -1.3815645431051626
Ni 8.660038856348777 5.029020962545768 4.659028950443458 0.953441671079016 0.7944886174491543 -1.3457696448937404
Ni 3.1299091051803765 8.037634401955485 2.659014636840332 -0.6998974750351301 0.5546190906788836 1.091458745887159
Ni 3.4630629345658646 0.8566304081466152 6.7941628437804455 -2.497529758774118 0.4160962798789157 -1.7302359565722008
Ni 2.7223038759127833 5.24256237520141 5.9677717271934 -1.2696459651562844 1.1443239693173064 -3.2574573504189512
Ni 3.3675709216735994 1.1881426072862558 13.342723004988317 0.8120747059620337 1.1124327770356648 -0.9221307767808765
Ni 4.587630520387575 6.011779440989551 12.93293880058877 -0.44760720600300336 1.3478494102409044 0.4802931262717987
Ni 5.457713047929038 0.1740710723728024 7.516878767522968 2.8367210006648627 -0.7798371860845666 -0.14701207921790166
Ni 6.393322055987856 4.808552332683703 3.5113407367254403 -0.1757395290595812 0.04757852110991161 0.10652286085460365
Ni 1.8707185905780548 6.165121578883378 8.00729892473644 0.4116811815303555 0.9091703599654664 0.06466067340317896
Ni 5.26360298821157 8.37061250754001 3.32244227499972 1.8411574607151322 -0.14690332155417926 1.137956632338382
Ni 3.443807305428654 0.8779142598917938 3.9345807599682754 -0.28429767517665877 0.9052730817935893 0.607359872716025
Ni 6.717893164989419 7.566916582278515 11.833778101800121 -0.6585700770412528 0.1508633346431918 0.40595816300364923
Ni 5.823690233610375 1.4138921997983422 3.118017228165667 -0.09627650053624709 1.835878214594064 0.4326438998249516
Ni 8.840386967864436 6.0773521646124244 7.054248867000893 -0.15804134044886975 -0.07817567717047827 -0.16464239070515516
Ni 7.317777226996013 2.8974265165050386 4.875582638992467 0.09337681039094885 -0.5329966273131014 -0.10790508591411095
Ni 2.8187392481575912 8.20168644308701 5.387755553041059 -2.293441503368515 -0.6143872118764516 -1.004179820863832
Ni 4.5650823821375655 6.6520429827334455 5.2994312215039034 1.5548103592086127 -0.32524737811614307 -0.3403199561785494
Ni 3.6521972361297204 3.053607981077598 2.500654197135819 1.3833434893824563 -1.6927595568932978 0.04973979042728854
Ni 5.123042444682597 1.349512548297804 11.483283107845818 1.3907541800242307 -1.6938677023558117 2.033395758760685
Ni 3.140665251523592 4.5014241230830905 9.711788348775237 -0.4475472992993454 0.6139310981756394 0.04795415928177548
P 7.145179459964977 2.9587356257992585 2.0111413296525873 -0.9285667622142073 -0.0061004564707830425 0.30462738787294635
P 4.770512754085555 8.767424595979973 5.616140077705495 1.9805367059781245 0.031191338001139834 -1.326995963830663
P 3.0308471245422117 6.140141053283182 11.149045340067017 -0.2687257888803307 -0.6400146826365687 1.5503260981850138
P 4.019626455324286 0.8252859063651939 1.8181133586042133 -0.48886878375595166 -0.44257555711636687 1.4807368771319658
P 2.2339026926861756 1.3440558618468177 8.520906299918165 -0.025214808702730768 0.30696272087434234 0.2937572779276618
P 0.09560299634550527 7.373389185690559 8.860978097888971 0.5181821880080882 0.800248659861383 0.16687796490389323
P 6.9560359097800175 5.647319029169166 5.639341168605401 -0.8549463085145793 -0.19656083668030663 0.9112616952768564
P 4.011052983561466 5.423141702244652 7.623016868167319 -0.24304432495382655 2.656583856758218 2.9702227041011557
Ni 1.7450575756466062 9.233351629925398 0.8369067987815746 -0.47556281067566486 -1.4870180821549874 -0.14428362454314503
Ni 6.980267297070839 7.794488153147965 5.723726512414632 -0.7210699953476872 -0.985020988547194 -0.3018310560747318
Ni 7.9942768662229 8.897737667326416 9.977452215383126 0.5131446255841808 0.01341010275831884 2.3226248098006903
Ni 9.120277988315632 1.359205103214133 1.0278769516344493 0.8091284788495161 2.0595454205728596 1.3372335823982713
Ni 7.648517166273523 3.4634421280311023 9.971969632793051 0.2797717622818472 0.6585700770412528 0.01894028854792867
Ni 6.921677282381009 3.45368483276705 7.375139949665426 2.1070154411293647 -0.45577868607020217 0.22700732609562196
Ni 0.5042773662126474 7.931959657228413 5.105578273453109 -1.8117157584152475 -0.4932586852935311 0.16755853591068562
Ni 1.4248518158058323 8.756261510308208 7.328439962266085 -0.7545264752339199 -0.9404048924997159 2.1683524494759494
Ni 5.56624561657705 2.0113068799703373 0.7111551473633135 0.4241631160474501 0.6503078370324606 0.3935178803577674
Ni 0.10598087408559344 7.355502352476647 11.890888337113413 0.48426548065598535 -0.08347780610968204 -0.2857475202493079
Ni 6.542132369541031 6.859951985137138 0.7777036005125911 0.5128985710116457 2.969317161567751 0.327740576851642
Ni 5.195283424120998 4.526376902819974 6.305732989828417 0.7973106602789817 -1.6572294823074878 -2.1991480947005675
Ni 2.8368850427623977 1.6699957667716794 10.904660700893755 -0.23097222428064096 -0.07689423935489338 -0.6707342232076126
Ni 0.44109171169655403 5.306451849783469 9.688776854607951 -0.3017390105815578 0.8927669789067787 1.0386613995804692
Ni 8.663729056169021 4.827965188379672 11.865317749486824 0.13988755235797842 0.2520740392562626 -0.0036417105176453413
Ni 6.5601764293137 6.299004617975719 7.865600800811754 -1.3286399271919893 -0.3206150215504543 -0.9062416163544457
Ni 3.830825104120152 7.85152439949243 7.540134425287384 -0.800014689473706 -1.9383901545170614 0.2727999589497044
Ni 0.31206789813192154 8.935453544185945 2.8447324977686046 0.5784866413251005 0.365960282454473 0.15359384620047742
Ni 8.41407177810473 5.515257968434187 2.114219986435944 -0.5716377367240671 1.3602683527305477 0.0827103318160382
Ni 7.508788998643853 8.390275076005768 7.868578856807038 1.5423117125209695 0.4153920547230394 -0.2296599332271206
Ni 6.701190155276739 2.926670656433885 12.404996062696828 0.8223935713895384 0.9127912445475055 -1.1105173051805068
Ni 1.1961889076461851 0.9650381204097322 5.612768955313317 -0.7643511746338255 0.794110151063813 -1.5058884366969292
Ni 4.38402212679695 6.883628455161757 9.637893715883557 -0.2117203180295644 -3.032156979712107 -0.36774077139366346
Ni 2.3564561709268927 3.8446887871540993 11.820363901751797 -1.2152892447822747 0.6217775908032517 1.928913582485194
P 6.065976360655282 7.968168008848095 9.679125918486587 1.8674349063544227 1.1039167691448537 -0.3120175096894304
P 7.809147217596802 0.9834151305421225 6.610042219716725 -0.02240356450618077 0.5556015091968108 -0.4773594975647715
P 7.910345629709844 7.5419638025416305 3.462623625063454 0.2766455579480397 0.051480684377795204 -0.13837677214040683
P 4.070382887939566 3.542221882589583 0.18577890182755474 -0.6214911699110846 0.45003869826263143 -0.05857152978630558
P 9.463466571598275 4.130591411322484 7.996726825953182 -0.05370905948768169 0.18941316989193188 -0.6501836527497706
P 4.632208874105804 2.6420628392199705 10.050886266943861 0.21777629441565718 1.1604303879608662 -2.251273354640897
P 1.3075145598674143 1.8774423381202026 3.306009325023257 0.7159478436297735 -0.6861515862039473 0.42732171628108984
P 8.687026332728403 7.156767982207496 0.5751245784507701 1.1752034325049825 0.8132599845193864 -0.5719349562495117
Ni 9.049960722066732 3.3295590889387605 2.8048681662267616 -0.03922603538015825 -0.44401923154142886 0.4173975151888425
Ni 8.433290412757527 3.7874583197664635 0.3743092684333612 0.3044265847160499 -0.8789562982759315 0.8160599158620269
Ni 1.5462307191664215 6.734642417807617 1.958430663398167 -3.490173553973893 -0.30530255956310004 0.13967466501622397
Ni 0.6902856338435657 3.0557629097946823 10.497353277225692 -0.42303491598027787 -0.37014063908440764 -0.7502661572956691
Ni 3.2082541745469983 5.4096109695704255 1.2978756469534853 0.423599016013864 -2.0609207036538315 0.38688597686354664
Ni 1.9229825484331817 3.0702000073370384 1.102045343710791 -1.2411794822854754 0.06849984464361107 -0.6752017720606629
Ni 8.187351080376791 9.226868346531937 12.817921098823078 -0.08612167149043232 0.7046712422746896 -0.05227721213716158
Ni 0.0074414405397691345 2.0244954136637388 8.031352738502079 -0.14655673684803794 -0.995050347758738 -0.37443540980501966
Ni 7.229998564103957 5.864041967484366 10.185410235478665 0.3160914226484879 0.6926888731018329 -0.35167523329036854
Ni 1.0210662670539299 1.8987326639001536 12.616068093517871 -0.504083543823177 -0.6767038105274862 -0.688566366293027
Ni 0.8656922071036943 0.6832474331839034 10.099954826207775 -0.3694037609183832 -0.8657223160841606 0.39185051995767356
Ni 2.185236448440258 6.79590528399632 13.243813626598358 -0.285603795582592 0.6574830146246613 -1.7813944817238867
Ni 4.524767642747989 4.1934450403409675 11.59128942995305 2.303211952491717 -1.0886328464025896 -0.18241436997659552
Ni 4.761227138497775 2.2354102179260242 7.886176208180415 0.08316104620021161 3.2842521020142925 0.7934606904052721
Ni 2.5127671161948992 3.8869457369753833 7.677175868486526 -1.424751877125914 -4.03384694427455 -0.20170484277509135
Ni 4.247910170018696 -0.054907213766469544 9.580202667164972 -0.36642488079571733 1.6894770294872836 -0.06686719413619452
Ni 2.229435608693249 7.756781524909537 9.873533783803582 -1.38338308437114 0.5579810651725811 0.5394274705401098
Ni 1.8040730269071916 4.130924361682206 3.718270310154285 -1.1712346776652216 0.8450313633937124 0.03983281572622172
Ni 0.4091645467856206 3.404981594036719 5.915521642269928 -0.11365432969306233 -0.20663878974159894 0.5831573073278925
Ni 6.113616007958726 4.809421703067421 0.946801689318113 -0.7874360814777471 -3.596399195303052 0.2570943752889895
Ni 3.94266867912317 4.842901711461608 3.791975346313348 0.9568702371445909 1.2948422619162538 0.4117930245178715
Ni 4.399559810250605 8.21055587072514 0.6879494321528552 -0.8268768039718727 -1.3169951438642091 1.2256302216969666
Ni 6.781135236094243 1.6002241691678785 8.988964216165806 0.10861548171757422 -1.0061708831519316 0.25760602481808537
Ni 7.521533598524293 0.25770450328633 4.412763141737773 0.8386629979735234 1.5245880699889616 -0.305058561873094
P 5.964759451300034 0.030304956769402838 13.431900059391204 1.8842841167012774 -0.22520806810335406 -1.9352516088880802
P 6.425849456408398 5.29936740601829 12.129979065567104 1.4766989596171662 -0.5080078185782476 0.3703895218704201
P 2.0905860600683996 8.973520868647404 12.015164833465686 -0.900465890212933 0.39780185244510197 0.07661810287537127
P 8.10489037461917 1.6266104851757845 11.151481426865644 0.6318038646910021 0.008012843002147491 -0.224432109169278
P 1.0937974234108083 4.747354206842724 13.484312920046094 -0.048199699633678275 0.4685056467185673 -0.2316057440995818
P 4.746743797849901 6.481128464743223 2.2846692987846677 1.0268399814655091 -0.7545002499816748 0.4993041201566627
P 1.8507878121002985 6.559344053414398 4.18100841954327 0.6432684136871759 -0.984813243411762 -0.47207793745085797
P 5.194404805116177 2.509604087777548 5.171960251422526 -1.2902785538049715 -0.06050782757706999 -0.13710741850968
