# total energy = -340886.9447290983 ev
CRYSTAL
PRIMVEC
9.15162960785552 0.00000000000000 0.00000000000000
0.00000000000000 9.15162960785552 0.00000000000000
0.00000000000000 0.00000000000000 13.39433499199755
PRIMCOORD
 96 1
Ni 6.995469212890935 2.574234491659366 12.05092377640755 -1.6937743713110573 -0.48314216568481955 -0.7705511327969503
Ni 4.780701588160678 0.7530519249170127 6.24261770866655 -0.08391669341931354 -0.990619565680894 0.5019395008969807
Ni 2.9446741627191297 2.1275800476220406 4.879234440732425 0.4925614021161904 -1.5093200880862974 1.4555806895813126
Ni 3.7933139457381264 4.4983646571891684 4.93480771269523 -1.5412382769511328 1.41423503675499 0.9196411775898031
Ni 3.486194401267189 2.946467882160004 2.7702697232873366 0.17641598630131552 0.40810580547427133 -0.4538403313969087
Ni 5.136526106429236 4.686256768620761 2.9677289485122462 0.10118833601556768 -0.33619719225942746 -0.5378223308365189
Ni 5.265710512691395 3.0873114647878457 0.9781975757770105 -0.000517305956050722 -0.08351045911983038 -0.7658946078615454
Ni 5.98171572501349 8.557954423599138 12.443109550198974 -1.3274402504569331 -0.16340928962900245 0.7498370401780505
Ni 2.736492888020095 5.677845009121688 11.628399434664885 -1.3694155664474545 -0.3972994588873867 0.5180814007641659
Ni 0.9082928515468112 8.045389941739481 11.606901341100814 0.8082273071914855 -1.9504465714609636 0.0462564598643784
Ni 0.2853569688056351 0.15165074225910968 4.781483137345631 1.8297314782663778 2.4423649406765167 0.6493004788138688
Ni 8.953734957576154 2.665842305961165 1.465661882583168 -0.2234034107944475 0.7904033916361871 -0.4948581685701671
Ni 1.5424431414453725 1.3349207840919655 2.819038758493559 -0.0395916462496931 0.33024997353705704 0.1608800954492455
Ni 1.7872492386055256 7.2260353740816985 0.5279044437310547 1.3468852465554224 -1.2315985234652596 0.29894087901113037
Ni 7.989015902169142 4.287520258218224 3.964120879495391 0.366200423489737 -0.7566540630998839 0.0810645686824991
Ni 8.030033506934444 4.450931759933801 12.935834213814392 -0.14627700082409 0.28632139047490685 0.5679898555588346
Ni 8.06251264109599 0.06125185825394041 7.474039050694104 0.032944059026188424 -0.03482147855455939 -0.6707151970442191
Ni 7.241089805103322 0.9883577151813918 0.542233150509509 -0.6720701684102167 -0.29539532775171706 0.08938902938779443
Ni 1.6824264708719783 7.1744659401565585 9.202095547750774 1.9135185880863625 -0.4859199855402729 1.1878959403709866
Ni 0.1837070711238792 5.5033142771986485 1.3430501768436427 -0.034459724339766455 -0.4926580755950548 1.441758953206872
Ni 6.646984301722282 2.3551719291276805 7.095113073320448 -1.2761156320410278 -0.7084412508400831 2.9322503386224406
Ni 3.4373979111715656 4.977763632652251 0.6950296768196261 0.14301864178779242 -0.8274234205039621 0.24131731496039083
Ni 6.292230524140368 5.790062293733942 5.029653373620404 -0.699849138295698 0.5784380474753522 0.07815947922056217
Ni 5.355341574956311 2.875048563197842 10.21920768376496 0.8139963484647788 0.6601531052576566 -0.3547767550338277
P 0.5201667407348338 6.13794319733577 12.66238809119395 -0.9616239497794922 -1.083712783393153 -1.3040139011131928
P 4.387547571936373 6.508007651573718 12.972360198673666 -0.06598144909713152 0.9717489540286361 -0.7454849338569419
P 2.635239255908696 8.990872271306094 1.7843802026631068 0.029372025404213933 -0.20533575465945927 -1.0958522469691643
P 6.464976688252333 8.130179791839998 6.0914620695796415 0.7462107562793728 -0.12576114025892535 1.2930214066574313
P 4.865701925746604 1.5086827791117723 12.875599101631273 0.7234523795369348 -0.4506524205872303 0.20174906574946544
P 4.234797718938237 6.411860628890931 8.476337443550415 -1.490881935985768 0.02035130996284237 -0.4115199733621428
P 5.013390927465129 1.33526854602438 4.190833289377213 0.04568130408719875 -0.4335170464585243 -1.7951084888758697
P 0.3981791761476944 6.0216351342027465 3.7958745717562725 -1.012543362337179 0.06352218892336157 -2.1766506849289997
Ni 0.742474471193734 7.926656696709356 2.456695534318191 0.24460395613146263 -1.1693235766854377 1.6419969816284494
Ni 1.7165437467677933 7.340037226505026 4.872149248940971 0.5841209567927425 -0.13561797844834708 -0.7986160093539666
Ni 6.128150953449364 5.8314276604316575 9.474496554248013 -0.7261386681198463 1.511552576961242 -0.6402088009252458
Ni 9.027487942137412 2.6243122099270426 10.539225535276552 0.4537901948852636 1.0602666365550706 -0.8958093652775282
Ni 2.3378845004347633 5.505812672134152 7.225507325042216 2.084434470505055 0.6556097088613483 0.8171233241295347
Ni 0.7784367156573054 0.22328695484754077 9.482814470573578 0.031099035397649664 1.269121460111382 -0.21968945227797004
Ni 1.5218611260243189 1.176670801583802 11.817125259571291 2.070615819454408 1.44659391270167 -0.788991341780009
Ni 4.121820849052551 7.333063684597137 1.8108073640376627 0.4547055076106814 -0.17055412820389979 -0.5438597952798505
Ni 5.630165017861709 8.249626863994552 8.365739997412827 -0.16423384241282682 0.1295504320980285 -0.4997414648043973
Ni 7.27624121516658 1.0533800449130886 5.310773137828463 -1.1348905918185488 -0.9148962067056501 -1.8911841862552203
Ni 1.1209739826186922 8.016022361710062 7.084826641424821 -1.6210700016677952 -0.8415698872076732 -0.04603843031630136
Ni 5.231272929752565 4.891692554379682 7.240120647507463 -0.1622371236977722 -0.0029793943432980946 -0.13447846552726517
Ni 8.410942642485843 7.56772062430867 9.1742755083206 -0.29666622404434073 -0.39105424930862326 0.438325009370129
Ni 4.682211748248994 0.7347687989018145 10.782118026645445 0.2076348351062811 -0.9796967481208031 -0.013670298398240974
Ni 8.081456514782776 7.674227291925487 4.523548112073852 -0.22627661857718448 -2.674885997501516 0.4709934461374275
Ni 7.605681584720643 6.302635927223401 7.124366257977361 -1.2468937590614333 1.1898877739900344 -0.7201773083300888
Ni 2.510950971589741 5.51736202894223 3.0056752663165396 -0.833657574339132 0.61677550960297 -0.5940538996357382
Ni 3.59713045770739 4.190046249214381 9.53467675665233 0.7284308065881326 2.02525590326237 -1.107390586626067
Ni 1.3426539112732863 3.587841553460005 4.083356549001556 -1.1818098820779066 0.777962594769673 -0.7397914830165905
Ni 0.6555303274382079 0.2728521818463965 0.5343966099114439 0.7492968514038644 1.4344354229622651 0.41957369690455487
Ni 1.2027254916254828 3.711864440514749 8.407315851595952 -0.5600603162991129 -0.4205432599066758 0.8449578298432996
Ni 5.515284608977545 3.116404495923252 5.0893650125789405 1.0670659188650913 0.7132975504911199 0.46840640213654167
Ni 3.817071576699912 7.287387900263442 6.091703672606372 0.9780792671220381 0.12712691025820042 0.14787005634282277
Ni 8.392172649765262 7.724048764558753 0.31660978457393135 -0.9107883551848637 -0.3515237953141688 0.21621023548011797
P 0.30978266874284816 5.9568141403266575 8.009611645034896 0.8479320819802751 -0.24911624217951936 1.1536689008673164
P 8.666144991099227 1.9716728823427747 8.394899835445777 0.6655997301945248 0.29343486159123655 -0.6304982585057012
P 1.8969772799120765 3.81605574579207 10.640968779582272 -0.6709872197586831 -0.707629296461749 0.34440081111614235
P 4.30575945641038 6.508025954833319 3.892179917634607 -0.6296881038995801 -0.5319828413366063 1.2378812711501779
P 7.141767166879803 4.50080814234587 10.671977246834897 0.5851511978294697 -2.2586441931836716 1.1979916340440915
P 6.628552919304318 8.051430017407732 10.296600271497828 -1.8727555472363877 -0.6478856007442132 0.09092654907824341
P 2.3346265202258283 0.14501398032787444 5.8630218319915075 1.0548912311757705 -0.9173948047577878 -1.5204509078921364
P 7.017433124411847 4.188792475931729 1.7257127646647936 0.4932656272720667 -0.18928718583702883 -0.7770038304008297
Ni 2.9190129927588653 1.7648643521137972 0.6977779112486802 -0.037143698929832804 -0.02827699256782227 -0.1831525336942007
Ni 1.6447309077242147 1.5490506181612465 7.21789957518916 -1.648030589417039 1.621121680841337 0.3832992879535528
Ni 7.12266771548641 1.06908424165054 9.649640445367675 -0.9533462831517323 0.10717206440282832 -0.5241684874985102
Ni 2.8875222346157594 1.8641412321883146 9.462468567201373 -0.37470666118853535 -0.31493905421159957 0.6146903449391672
Ni 6.636267743226037 2.253716961160672 2.9241973910407806 0.9816034782252127 0.3288394663427756 -0.06630695075735032
Ni 4.343244532072735 7.199751893295008 10.796088904698706 0.4830616901558713 0.8980143433486469 -0.9301271647227917
Ni 7.573010266333289 6.431500026442545 11.572183718290093 -0.2652414298761561 0.9679000125961911 0.089106208040053
Ni 7.8858038212804615 4.341048140920644 8.524570193250334 0.1666141697195453 -1.0706232971990466 0.14757180837611358
Ni 3.094083670840126 8.697800478578738 12.813905219657974 2.341970304206838 0.11250118992522562 0.3817643393662651
Ni 0.17874231195717327 5.3724551226830215 10.365139572561812 0.8378736693030087 -0.559726844219094 0.17092153884564756
Ni 8.736100049293327 2.7590699587376313 6.187566994765347 1.9165180370343189 0.5714767856661706 -0.4153915405024072
Ni 3.471487732177979 3.1163953442934518 12.12404346818662 0.6762770074027127 -0.03504567875022351 -0.7313898892164564
Ni 1.2295763734597964 3.5407747213966525 12.831076422652425 -0.5535700805890789 0.20437159097397709 -0.012488105164681719
Ni 2.9764669246456483 9.025904710181948 7.97690280496536 2.2415183321366623 -0.6787671208144181 1.2731704333697749
Ni 5.816190196814025 8.08853072461847 4.0326995325675155 -0.9700574252588261 1.0050588810346757 -0.7211358155886162
Ni 3.3744255465151536 8.899493247749305 3.8387499573710513 0.4326999498738677 -0.12977334674211197 0.6958109636705823
Ni 3.772320106976056 3.0142997622404177 7.245370937523941 -0.041623846188373476 -0.2934256056198559 0.028706623906073144
Ni 5.403717090081118 4.677901330613015 12.131329995833685 -0.02284990801498 0.13816362768833623 -0.24274787675933032
Ni 8.032504446980546 0.02619379481464638 2.717844611975862 -0.4780410970128283 1.3556388243783364 -0.14844264101684113
Ni 5.027813896030528 0.6569964185322287 1.9829238960193611 -0.5943871146054409 -0.31208924346763023 -0.2885536222395353
Ni 6.429788671669874 6.401070857356283 0.33020910645729534 -0.8809280772903215 -0.6125768981405902 0.28000110468383393
Ni 8.041198495290907 8.93989769331798 11.475623957103307 1.0217018889079952 1.6776376136501945 0.9749975428729208
Ni 0.5588287159895173 5.468117108986388 5.789205701184626 -1.3286563822522215 -1.1164645239028772 0.44596324264167714
Ni 7.0355167448973965 6.103285975281732 2.623642310625655 1.0490658827432449 1.1482263896955065 1.1347275838781232
P 8.836081604862475 2.086873598269953 3.5768769857961704 -1.5274113983703694 -0.5675998192092676 1.8884192219155733
P 1.7473938908248727 3.842119587463551 1.6079898595646311 0.6685238458198551 -0.7360844664786483 0.23015795590946167
P 4.924254053209433 1.3508903780936277 8.537429148282847 0.029603681799045788 0.6080862093590882 -0.30718152175336777
P 8.867270359222168 1.699878628901302 12.511809004784464 -1.8015159350641103 0.44938538094934866 1.9840259500783057
P 6.416829963872536 8.057094876254165 1.7875146358697367 0.5716413362684929 0.5869838801628342 -1.1648436865372134
P 1.818675935340029 3.63208968354484 6.21582905791488 0.8574107108946717 -0.679328649744843 -0.03673926440256253
P 7.1682885900413025 4.251627566141135 6.366394416879665 -0.32214585637268395 1.2169046688985106 -1.2398018852116583
P 2.728741457579174 8.895356711079533 10.725849230817811 -0.46929626094066274 -0.47910424817001995 -2.477500608037385
