# total energy = -340893.15481574816 ev
CRYSTAL
PRIMVEC
9.08439340383413 0.00000000000000 0.00000000000000

0.00000000000000 9.08439340383413 0.00000000000000

0.00000000000000 0.00000000000000 13.29592801107335

PRIMCOORD
 96 1
Ni 6.227015692046819 2.04818555043855 11.444576292286296 0.784730766731442 0.23852946780260853 0.05381447471729442
Ni 4.659612588634418 9.276074307656293 6.157092206047934 -0.08268102123999954 0.3197747850373461 -0.6430987208785311
Ni 2.7342389553099666 1.4786758310954096 4.86256066703549 0.20977450715710322 -0.7395138038751716 0.8570690112845367
Ni 3.1631767680458465 4.35422252889445 4.834412673457709 0.9064997551118388 -0.023856752012939558 -0.3262583358791607
Ni 5.33725384502979 4.199987694308819 3.0605367469264118 -1.326971795460947 1.4131220061964695 0.2722222320693634
Ni 7.202170838928669 6.089732335923714 2.558682140499577 0.5784904979798424 -0.3313869153549777 0.07632833954909435
Ni 5.108672333200148 4.562582180564615 11.454508259812062 0.3294935549870067 -0.1454586186878527 -0.24496056813993294
Ni 5.708360408091259 7.949053343363366 12.491750694771161 1.1504344530904187 -0.5766706711622843 0.06399141525029624
Ni 1.9681611271928892 6.456841765800022 0.5157500948814341 -0.8404915665418298 0.6947946065909261 -1.6112350178552446
Ni 2.8459588278352403 1.6258248386709815 0.390347308711863 0.40618750540563586 0.06411997040836054 0.049879915549578616
Ni 0.3846350420145226 9.26835257309405 4.818962845257698 0.837246577241971 0.26510618984987244 -0.04457110174215549
Ni 8.583952527858314 2.196397432065631 1.2293637330645415 0.6575470350933773 1.2970832354316306 1.4427547414612378
Ni 7.0126249664095734 0.6372093457880988 4.924067462361528 -1.6705208000997553 -0.29846625336755694 0.12931080528339667
Ni 0.7186382162847279 7.5765386992934864 2.5237799002782317 0.04602506057986267 0.2812303491052447 -0.06006122695795462
Ni 7.764558393687339 4.036532200216506 3.7697417288941577 0.3727184271139129 -1.1550084456143461 0.320940266100357
Ni 7.740984392288486 3.7607300104403385 12.736953921575555 -0.2538028490219113 0.04482332696227764 -0.3533425936904624
Ni 8.032348148305978 8.801587345396774 7.108149182020059 -0.6780184155738517 -0.00913230131857137 -0.2747408847261591
Ni 6.906437489588307 0.821582564589851 0.34881891179675184 -0.18722387555009692 -0.8530336648728987 -0.11414283929370664
Ni 1.8709672000382376 6.608124172464796 9.188629751715997 -0.5547342761005092 -0.477304733067436 -0.921156071572433
Ni 9.162791919431365 4.79513357239861 1.5053248997287556 -0.18232592402784728 -0.21556488858663522 0.11931358486136871
Ni 6.504589338575502 1.8923700313660587 7.133943409215397 -0.20988532170335467 -0.24199788596718325 -0.43052402526847144
Ni 3.2867971961905793 4.44514822446328 0.2680940818043274 0.8960003982424116 -0.7561030756924204 0.03821070674176646
Ni 6.116249680849823 5.680643923209603 4.8431618529364115 0.19735170801271817 0.6260736470754443 0.3091967524111836
Ni 5.317904086656165 2.880897405630996 9.270360224080232 0.33490161337645546 0.37923797339998555 0.35348323303338475
P 9.261630121828095 5.5285348367269895 12.560157995477764 1.653485184773707 -0.41520539263353007 0.32207772213890984
P 4.243520108452672 6.196891842860461 12.596310248258835 -0.8730414754533932 -0.03181483051775166 -0.4310341321356706
P 2.446191002957439 8.454336399935839 1.2339540771519557 0.40477442710819317 0.46299371576140264 0.7187539456200008
P 6.371939023189744 7.79098489467742 5.973062377324362 -0.7717855194246838 0.10386485440646628 -0.8066535349464624
P 4.918654072213715 0.9344843167228283 12.861058547899308 -1.1631770974680677 1.4283362520430627 -1.0499588268711597
P 3.943435334576646 5.955455914083084 8.115049742346336 -0.3542910736466608 2.1065894093355397 1.5985918751699373
P 4.815982255716671 0.8399848207107199 3.8552876465715036 0.38488925814849195 0.69343089347418 0.4235195689261803
P 0.16645152710246278 5.760359477072775 3.6443607452692333 -0.42344423560355454 -1.0776123269223699 -1.2048747343171702
Ni 1.6584287273108587 1.0876108552889379 2.53791339984522 -1.077340561318222 0.6572616426424744 0.3570915192099334
Ni 1.7358186764117536 6.6405736264134285 4.784619295242914 0.5721383305095694 -1.4871988307072257 -0.8060123018180376
Ni 6.066067490588835 5.494886242822809 9.085600010111008 -1.0824701692353034 0.7949881827933921 1.3814650414128207
Ni 8.601340057213767 2.4200733713498472 10.280943597573021 0.22597862772079147 0.35602733961147714 0.16788249490900764
Ni 2.275785947759107 5.325089841995855 6.910080331422966 -0.8643557747539373 -0.572103363506576 0.32515353285075616
Ni 0.4336853168326201 -0.13243047306057382 9.277938425223557 1.038595065118908 0.7479349380593313 0.43088989324832244
Ni 1.4901948421835576 0.980060719427276 11.560742975480064 0.04343184593138971 0.806598770449127 -0.04173208963146362
Ni 4.309254780561379 6.925096834048131 1.4277032985909932 -0.12012425368812214 -0.28612727218622985 0.49654686912649965
Ni 5.585221452807467 7.759035082376934 8.178445183102363 -0.8527248753832283 0.515860224743131 -0.1592261047855903
Ni 5.187452194522247 2.6454844298121682 4.964486654817756 0.08219713962504553 0.365722455412054 0.30105278314781053
Ni 0.7895800628064686 7.506661543701975 6.798021611016313 -0.0843938901660482 -0.7797531110111926 1.0705114542115308
Ni 5.088314207136629 4.770378599831415 6.889883907565575 0.40709819014536336 -1.0693158912415324 -0.6660679280801949
Ni 8.148119660378029 7.187299686601146 9.154898489830032 -0.5554428721317595 -0.3593494620061747 0.46971715052816526
Ni 4.625546112624517 0.30499216330017265 10.328955526202337 0.4851280857665967 -0.7252310687039122 0.5147464228536619
Ni 8.180251160550569 7.361483849538176 4.640704331789882 -0.7572664998729023 -0.1630087117564741 0.22843994477709043
Ni 7.263545002108109 6.240624113663574 7.100876216501786 -0.4730598417481531 -0.5228973340955705 -0.7923031797620613
Ni 2.2835531042893646 5.5426156468110825 2.588996761951589 0.3116557554746375 -1.075714852789341 0.9946950213018483
Ni 2.305001357585199 5.389716218085039 11.409328845108051 0.2728326119598527 -1.4639012936318658 0.23157000576563988
Ni 1.1143825632359197 3.1413833077931117 4.149446670500527 -0.6924289345722268 0.2570311261512218 -1.859171637904366
Ni 3.611291735676901 2.5576201748874285 2.928587746726778 -0.26177789680758784 0.49223152958059746 -0.8470831037164186
Ni 0.9088572423697792 3.407737728222534 8.289838017457942 0.0006129509936505573 -0.11069036196873194 -0.28626096955061664
Ni 3.7950508494711146 2.7214390447238457 7.088072672158224 -0.8527390164506152 0.027067031420121124 -0.6330588201440258
Ni 4.0609964721884175 6.941049029214368 5.752070876349725 0.05538336186631107 -0.06872713016306874 0.6717078999747915
Ni 0.9838579959531798 7.338218717521814 11.350228505647353 -1.0144107545632208 0.6741864434222712 0.6635279352671605
P 0.03369764962963496 5.6030177798750405 7.877451969866073 1.9668450674236448 -0.33234876504761474 1.1389611623434965
P 8.51995297492771 1.4847169528411654 8.169337170076355 0.5777993854500888 1.6732004038144475 0.07319133658200944
P 1.7315308426313074 3.178811009435991 10.607757382746097 0.6031013545499873 0.45635101363390446 -0.892680075619927
P 4.122852108228797 6.1001339665987375 3.7666303240852534 0.11636812907979958 -0.17519754051318215 -1.0147424268710266
P 7.138816277943853 4.193637703180572 10.536903654842302 -1.146856248820857 -1.0650229202931336 -0.5407616159705009
P 6.392587849848546 7.7887773870319785 10.336746302155962 -0.3508270263574603 -0.17632882590414792 -0.0853703951467046
P 2.26499368815917 8.451002427483669 5.548736711220542 1.6484283390760903 2.2530636137721003 1.5631494752019273
P 6.87042695334744 3.836085055374242 1.7004158861029033 2.346710132884668 1.9018498934991828 -1.0266746595322385
Ni 5.445612491922086 3.116909951427598 0.4153984325105046 -1.6215723952255106 -1.192321837352824 -1.0719001070289411
Ni 1.5476445473266567 1.0196777599283917 7.3857155610338605 -1.5499915976637306 2.033037861200634 -2.0580410681131913
Ni 6.862042058052203 0.6394622754015538 9.29539590440975 -0.22905058177789586 0.0511469551874603 0.2445052257700692
Ni 2.9207143027913696 1.5695197671218153 9.360931628298559 -1.1795817640783361 0.4859240993053308 -0.2787564336434554
Ni 6.315960989810272 1.9992297533139198 2.572841984808013 0.3372809122419095 -1.0643148384825156 0.9586250150521683
Ni 4.008170723389063 6.84844272082905 10.277925762018224 1.011168336366523 0.24984514992574391 0.30742423389179313
Ni 8.402391837315939 7.295458476834185 0.12991409603264237 -0.5790908505680027 0.20069414212238987 1.4237172652138126
Ni 7.496214491058939 3.8702423753201707 8.210847398204262 0.9748869854369855 -0.3491375544701794 -0.34457436057952917
Ni 3.382719308240861 8.38399594027059 12.428834001557993 -1.1286255847454434 -0.22456040721702616 0.11291925129925069
Ni 0.05297564129379853 5.193166278098308 10.157942725071988 0.6023017414668272 -1.2916862327857754 -0.26931688549711036
Ni 8.646098864493977 2.3095163012057114 5.974578562616642 0.5069459529726367 0.7349711788098117 0.5987325360583302
Ni 3.7357842656074878 2.5582015760779973 11.472617998458928 -0.25697970408799614 -0.0199432758911463 0.35560542158271014
Ni 1.047221641331598 3.3591089692675986 12.792118901727589 0.7953836184595979 0.222256698784514 -0.4410745470908081
Ni 2.859739852930446 8.486595081618814 7.974632270430321 2.116223075770562 -1.4312778511698898 0.26946600948046495
Ni 5.765101530533353 7.910926143413084 3.449309730226937 -0.3258752415081291 -0.2991637936552138 1.0046873566278696
Ni 3.2054191982981255 8.549313735051445 3.391698322877711 -0.8318698863110899 -1.9690341046551634 1.350869170903835
Ni 3.2006589760503417 4.106227667935965 9.047267502865306 -0.09965107343543483 0.4341400247545039 0.9268618637079586
Ni 7.430243624716563 6.093111730343896 11.639720876582698 -1.410451658453158 0.23594396646361948 -1.346166623221843
Ni 0.5725566249574661 9.225201703481508 0.5557459545957797 -0.05558030836846557 0.15071266799794045 -0.8426996299367422
Ni 4.600763886876512 0.2601025407520845 1.734240717242975 0.6587947914575493 0.7790969654844325 -1.7295780112732277
Ni 6.143502861657744 5.55585160829013 0.3509982578220253 0.01836564699138127 0.37237338506966833 0.1873048652996774
Ni 8.079686923369339 8.879940240219549 11.508131618369731 -0.43438633643735514 -0.4449998502871433 -0.4917553612751273
Ni 8.937008400831337 5.04152958008303 5.74510405489586 0.11190058022674922 -0.8011351762313945 -0.05504217647680843
Ni 7.947154705100414 0.09899082020925384 2.473056280158528 0.3084146228295205 -0.8215926727547981 0.26074019957169287
P 8.404626598142189 1.7689131223061734 3.7668428988955553 0.7391823886776817 0.936524069388071 -1.1154638505525047
P 1.9363748339772497 3.4045218528871986 1.6427118179389302 -0.32685226070941775 -0.6537209764790677 0.40795745282186513
P 4.723793829437073 1.1200148872695568 8.127747907724109 0.23104164406599564 -1.4992909859850694 1.2944707375094482
P 8.641075194831718 1.636835123717382 12.379998118428919 -0.7883431666730487 0.20938267103532326 0.889976560645835
P 6.542607525802552 7.763731713869499 1.3886131529188308 -0.17175766159369776 0.20383448752358443 -0.8300174064833833
P 1.8010264536915077 3.1226331193972614 6.133824348713491 0.15184806715396432 0.029486953715523408 1.415784383519981
P 6.841474990935825 3.7644727806046263 5.980841343566302 0.48771615820874714 0.6996781599354723 -0.4806492240596368
P 2.4196191516697154 8.597515527507056 10.289759093125022 0.7919648225860361 -0.5843083902132001 -0.7166119595763335
