# total energy = -340859.0524219849 ev
CRYSTAL
PRIMVEC
9.37235557139409 0.00000000000000 0.00000000000000
0.00000000000000 9.37235557139409 0.00000000000000
0.00000000000000 0.00000000000000 13.71738975095488
PRIMCOORD
 96 1
Ni 9.056207141401952 3.8346242473594048 1.625785007876108 -0.24928593498816423 -1.314523028174633 -0.25571240733979833
Ni 8.259725631830467 6.952647570519258 7.897704344623022 -1.8306033393483698 -1.2659335493017037 0.038665020670365674
Ni 3.309819204780325 2.5889351141470094 8.543656453554048 2.1561080848909575 -0.9615367893823247 -0.5310718994865629
Ni 2.989303393616482 9.344097783296792 6.334059927751608 -0.6594925888555223 -0.6783035509144383 -2.3026933609840863
Ni 3.4915491766636784 9.064361090630344 12.924469709652875 0.43822010836114855 -2.891996633308716 -1.3137840931260794
Ni 1.3763491403307981 7.506328840193367 6.72075300340597 -0.9084609926032676 0.19052800022266542 -0.7883727343594036
Ni 0.8300870272189822 7.283472972661528 8.976179410049689 1.7895083690802729 1.6768459709868346 -0.05144700292638236
Ni 8.617852705354695 7.286012880984395 5.6148291206170144 -0.38125757493317564 1.0251631079837185 -1.8607657218643632
Ni 8.701650935298431 6.759558303848766 10.638397575208012 0.9464606117754925 -0.9487491506993532 -0.28435681054936834
Ni 7.536892091266685 8.508646019826855 9.633887264402752 -0.4559512070923245 0.6342986060883979 -0.28423391181825886
Ni 3.376391045434655 4.2520220966541515 3.671404677460045 -0.6995655456170081 0.09403886945497998 -1.3270088193464693
Ni 7.368367768191153 1.8919599022282083 13.702409888467434 0.4088503969497797 -0.46718255703176964 1.113025673424657
Ni 7.7269915765534325 5.750371187681474 12.388092619818284 -0.04498093558606447 -0.5462558063158528 0.20746642784921693
Ni 2.105171616017502 3.3332032315904834 1.6278291185964668 -2.069585835527997 0.9123947804400351 0.08168266188247222
Ni 5.449312386400552 8.901422691394032 2.9234363540908594 -0.027754030184816716 -0.8886591273859921 0.8156058590437437
Ni 6.544275299508353 1.691635177161948 3.4180164876278236 0.8801454334880261 -0.4261060987064339 0.9365549226260064
Ni 6.538258247319126 7.680767119548343 13.082384526376064 -0.10640638988139739 0.40631477501211954 0.23496617593138241
Ni 5.189838726184428 3.295554479808357 12.85412643317153 0.27082046662583037 -1.014625184566872 0.1923588827838171
Ni 2.5836209886154027 2.549618083097465 10.726491155647578 0.16260196323635867 0.09201515415673185 0.6441611007047745
Ni 7.568242620196536 2.5354564540352813 9.253517716960339 -0.4419543785926001 0.1869269131349684 -0.38447402498794436
Ni 0.8799235900086956 7.492532732993145 1.5083775113427007 -0.8214515191912433 -0.25062059463918773 0.15898904907411973
Ni 2.825427758836677 4.084903626893859 12.704154687679447 0.17541274184778177 1.0960854460258929 -0.5188362766523194
Ni 8.921704468555227 9.078100963697956 7.50214970690493 0.9191272140678622 1.454693916100985 -0.6352697117524156
Ni 4.017319571852556 4.76504608845152 0.9767203397051413 0.6015463513580414 -0.42548466307235105 1.2406380079597084
P 3.847670566124832 2.6234628715693034 2.1984724771367175 2.197552210968357 -1.2014399976040084 0.9377669406562366
P 5.399451455486707 3.4615951286936317 8.874012300689026 -0.32132336047138854 -1.226792360325868 -0.6772468275151498
P 8.987751457305201 4.855704882573628 8.682504150380408 1.387063875656837 0.0990833738574229 -0.007103958034632927
P 0.9030405046889581 3.9335213419088193 11.552442162413126 0.11917860194540121 -1.6882770956419118 -0.5641046615718156
P 6.001878345777904 6.612862196581193 6.979928622719261 0.4064495008177709 0.11963420142558107 -1.270838957023121
P 1.8967585482108942 7.333165201177543 11.848202771166678 -0.5506143403948646 0.9554301622639544 -0.03326133315629111
P 0.9806576662233567 0.2937436778639563 8.926851766160093 0.12674175900463977 -0.3715082088558957 2.2726505347650923
P 0.9404033996303189 6.641916498429486 4.026328279896614 -0.745513215991716 -0.5613751784557944 1.1989748238929674
Ni 8.73286087889676 4.905706398818996 3.553558554692283 1.0264023797074582 2.586021987379256 0.7627239234430477
Ni 3.7958414405696517 6.901793169929312 2.74774405357869 -1.212778819655595 -0.6697237796652271 1.2783383507239596
Ni 0.709810652686942 5.711925785687378 12.807240287872732 0.6394076451801891 -0.5457374719185375 0.05202113026229751
Ni 2.3393492889147405 0.03877905784757926 10.707108187372594 0.36728542902379974 -0.17568939254793614 -0.23257273599854142
Ni 6.948664319459412 4.904244311371147 8.233959152268747 -0.8725856188628972 -0.04627857135156546 0.06733667757344533
Ni 6.509072732494745 4.627609868353661 5.945665769585805 0.7320869152834811 -0.010086951922356821 0.3748161901832061
Ni 5.181188042117985 3.165766101745403 4.529234814001972 -0.8664571373676561 -0.3776714002438141 0.36089495211642364
Ni 2.598307469581943 1.3994894858996478 3.9153820852000494 1.0910093170545663 0.2986485445816921 -0.24215215215686037
Ni 6.2580435645254955 4.399177449338036 10.592801066017062 -1.2630798819029925 1.641743727967063 -0.07955687378872105
Ni 5.2625775767149445 1.9349227795419417 10.80677850124539 -1.1441216234985134 0.3895874349551097 -1.0698709924140544
Ni 0.6859092718567755 0.9515002684652798 1.1425238679979126 0.2728860909056074 -1.1059566823930178 1.104099574579621
Ni 3.8699111655719283 4.709355552457147 10.035463640487787 0.8233657054948207 -2.192853777051423 0.8044228458437308
Ni 1.1577858115881576 3.3384798677003507 4.124681777830802 2.2024421920708073 1.235884295324807 -0.25826962654401325
Ni 5.879297309044413 2.9351499239134387 1.667472307615147 -0.16929531609613424 1.0519478322767304 -0.5040943424564543
Ni 7.61175846648093 7.6063412450395385 3.23763332322047 1.5732387411171294 0.21200339648762198 0.8189935445690539
Ni 3.0563063626208193 1.7769236116198395 13.093125245704496 0.15558439426794496 1.5025568012205346 0.2947088432076537
Ni 3.53194402858824 6.98397935473824 6.405938396053196 1.4946984815183806 1.8608544249234276 0.9873396093780415
Ni 7.677618008122206 3.2358244586215283 11.64879372522641 1.873474427680283 -0.2875987145254337 -0.703272305044634
Ni 1.7115420601057458 4.142459261619783 8.314795717895047 -0.7235948186520699 0.5566183804970994 -1.403531277184241
Ni 1.1779176310623938 8.705006238544138 3.4583738501306454 0.8163077702067747 -0.6569415402988944 -1.8241038476669553
Ni 4.237804233459358 4.976055298713604 7.217321950766227 1.0225092153006388 -1.8959520399575087 0.6573223206770809
Ni 2.8484556361403075 6.607013846789795 0.15439643449291418 -2.9426656204184933 -0.21504269753457803 -1.2172731079815229
Ni 1.4485443942460876 1.5286030543712863 7.24590950931386 -0.6673611929703216 -0.9079735114438879 1.709230043744495
Ni 5.584058740488586 2.217105656976908 6.693963062630757 0.6883768759900404 0.1673075962421441 2.130169510648325
P 7.866414736003498 1.4757523420736984 6.534785789630484 -0.87998911041582 0.19644745103089395 0.8177779269943981
P 2.6228349237551627 8.779928847890993 1.214662887780593 0.04909058687906384 -0.12122211473799123 -0.09381132682520618
P 4.2540933872052715 0.5378982231216813 7.768116534966375 1.962782210208181 1.244314171259715 -0.9580305760012793
P 9.339449095001065 1.9412116300387818 3.0145750128112363 0.1784888096699442 -1.682032657394097 -0.8012177086428718
P 1.1053193658634022 5.4069587121900895 1.2929857876792419 1.3291423207497044 -0.535294936428975 -0.3487336341635413
P 7.596097260549157 7.352875264657207 1.2101285422211723 0.043576341929053984 0.16422304377954944 -1.0556828738391302
P 5.730454932382241 0.6262298613892956 13.011547326763296 -1.0348001168528502 -0.6409711330125671 -0.6650469430148482
P 9.115103022955072 0.6189737838115703 12.946513489635839 -0.23064492284820926 1.8785862949855519 0.9265065372510688
Ni 5.225594262168698 7.522439919186017 8.765809394428267 -0.24304561050540724 -0.2746586094249979 0.49524486248562455
Ni 6.151433021453132 7.827791259256139 5.020880463052259 -0.32638894791975404 -1.253505607950996 1.2343537176128934
Ni 9.10417485651794 3.2038366095221016 6.962219557124955 -0.1686499692026515 -0.5703434433926758 1.155168111120662
Ni 9.254638650670357 8.955801097627514 11.22697024969529 1.2819162978832053 -0.2920410665675035 -2.629114961913988
Ni 6.594614220549379 8.951471069416574 7.376580763258784 -0.8812018997769985 0.49654224114080936 -1.1309984558529942
Ni 7.361844608808439 0.3491164910090846 1.8056611278544312 0.8343296607054922 -1.0444720927249753 -0.7795281394845801
Ni 7.910586647168337 0.22283899729205675 4.854556769032849 -0.6410755198009154 -0.2621869593205485 -0.6975803968661792
Ni 4.663140467807493 5.723622485270175 4.893280529983363 0.8913628994704004 0.16716232891353147 -0.9800932122282733
Ni 0.06445837450375251 5.397033387784495 6.522234331232021 0.4069135849383831 -0.3806960460027508 -0.0539186043953265
Ni 6.040295630705695 6.018645489650999 2.3317783001944017 -0.16822316607787804 0.061479447461719926 2.247634729447045
Ni 5.583674473915753 8.466104898507695 11.107258090960432 0.5111309375882617 0.3524815312417478 1.1850862388363332
Ni 8.507024602336612 2.894745699633442 4.708480174459525 -3.4412043231640417 -1.0806739965668293 0.9919897065555431
Ni 4.512264290015939 0.5956563007250002 1.1378311296316415 0.10935955897245037 1.2835705456571764 0.32148971084592376
Ni 1.6348668202925583 5.50062603240681 10.237000211111784 -0.9922010512354009 0.47331875183649447 1.5679625803198547
Ni 9.051802134347534 7.81415448209831 13.15020289030324 -0.5089946079715492 -0.5562707673496936 1.2590615047722187
Ni 7.2329934662889785 1.0840441190261039 11.506571980443475 1.5454718554165061 -2.2867129263954293 -0.9944739064299777
Ni 0.8815928065116572 0.38507540710629246 5.227999208573303 -0.8319791581954445 1.1281157349885604 2.2756898358120483
Ni 6.36613493975658 5.054867435565956 0.42744032814327715 -0.7522975859034011 0.40312017933422184 -1.0060081323218224
Ni 5.197786483593252 0.6057587626483146 5.11890499131068 -0.5017965475612133 -0.0776516863462082 -0.44865158810711764
Ni 3.702342822750759 7.0033801304885515 10.63057915630419 -0.4012543297700767 0.7851202888603768 0.510501788644695
Ni 4.683609692077386 7.423580314058343 0.7886143544194032 2.706035426521127 1.1408223839219516 -0.09726560392239378
Ni 0.2791246778565476 1.9532176173509312 10.694104044206625 -0.5403435545964759 -0.34648289045615166 0.021449685233343705
Ni 0.9467766013260734 2.749146157951756 13.466004406683311 -1.851124342119857 0.1275331445576836 -1.7835174416041606
Ni 2.2741364397984762 5.285296166289222 5.5812629668623455 -0.9807627274914722 -0.6531319367448172 -0.6681170972997398
P 4.789048690720383 5.3101610252581 12.291069059120312 -0.7961829744324417 0.0607615954590889 0.3904731799941727
P 2.1295116230820232 2.974654402071682 6.052085116607297 0.5074372907867584 2.3922811366462478 -1.0898667188096909
P 7.998274404617572 3.9078410880171024 13.512945848879173 0.7202528987630306 0.9720664852690549 1.2284311814808715
P 4.4470045791225 0.1137419683228048 9.798166847701802 -1.9570463361656683 0.874356594720391 0.5054511135946649
P 3.0981726743486653 6.0626112089962705 8.659596239226344 -0.9880790586472272 2.0771631336546226 -1.2466371629659367
P 6.566544016021753 6.593067781902614 10.723610093586881 -0.2822690747824042 0.5638917742300611 -0.688406186566079
P 3.6059762641687763 8.526416005731488 4.13886590054603 -0.16242867088328802 0.9843522446149434 1.4258152853934218
P 6.81802305705188 4.288115037434078 3.87890768955392 -1.1040278408014212 0.0008860021493791192 -1.194031620955079
