# total energy = -381165.0771335307 ev
CRYSTAL
PRIMVEC
9.26706977191930 0.00000000000000 0.00000000000000

0.00000000000000 9.26706977191930 0.00000000000000

0.00000000000000 0.00000000000000 13.56329334096909

PRIMCOORD
 96 1
Ni 2.6037315357818254 4.244623785542581 5.044704597812059 -0.2921953327571806 0.8535892802660526 -1.5233187163582345
Ni 2.634081189404276 7.439001282631434 2.889361161415772 0.7076156696149942 -1.8565334289505706 1.2426581237135308
Ni 9.04965508360744 9.236266068338825 11.592899528042976 0.765525654557901 -0.6625555440515621 0.9814294145411936
Ni 2.386733829148755 3.7049003728326113 0.8211689563254315 2.054555680667752 2.6210558390549377 0.3604604356821663
Ni 0.6397262164261801 2.2484969488171225 8.270476147290767 0.8417578348487632 1.2473182481933616 -0.1731206033794954
Ni 1.0701612214719403 6.595234576578263 4.806397264154614 1.4993372658419728 1.7198456144768122 0.10401089306602734
Ni 0.06559880705259287 3.612609624610936 1.0607783132909536 0.10939761129923739 2.1596276680084423 0.5898298342520616
Ni 1.4083165987797952 1.8994620315542272 1.2658270601130963 -0.22760767868378223 -3.053779185967573 -0.20765566104188754
Ni 6.076445474565428 5.12425405175419 12.996551083881233 -1.7319349415411787 0.992232932914601 0.4243392366139982
Ni 4.7668231692449 3.854331873492769 1.360290009497856 -0.1769258360581985 0.6857651493988062 0.9651509890961442
Ni 2.0826627345961284 0.416931957627967 7.63674479832363 -0.09096922939072075 1.4163387133615544 0.9499789093413962
Ni 4.422477389305046 8.579879513811136 7.337565789922848 0.32568677964640685 2.16565870469387 0.9498647523610351
Ni 1.645414579827246 5.9298960326156775 1.194749561389788 0.21529055187932597 1.3398473658720345 -1.672401819172552
Ni 7.486485748329582 7.236108056246721 13.30755765347845 0.34273885003268717 1.400656526739607 0.3661736840168597
Ni 6.8746737995802105 5.807061022305575 10.220199058657734 -1.2480157884810184 -0.028277763898770653 -0.6075223664358183
Ni 0.2014290293549887 6.759261712186622 10.274153792496096 1.2849712826594453 -0.1469524296245598 0.9203376894361956
Ni 5.289661980763998 7.837420414903197 0.4276854654336133 -0.07172889310387001 1.6138102347815881 -0.0972756312247228
Ni 0.11626651122992084 4.620245926085724 4.742676892152181 -1.9168831336832213 -0.8654906596893288 0.5141458131551855
Ni 3.4323836509775254 6.053713352325468 10.281478484472641 0.6290070186721555 0.42401296362283103 -0.02532973701404025
Ni 0.4048236042163352 8.981949871587402 0.7683614857293483 -0.6243486939645376 -0.11790127789487438 0.11290151068743781
Ni 8.08865067740843 1.883735814089403 10.823956070329661 0.04737720373238292 0.43744620630960146 -1.9113992277505145
Ni 8.711314364903417 5.038162973234322 8.493199049651455 0.8226437397271318 0.3011152609546298 -0.34012172412481423
Ni 1.6929917162234784 4.471722598266787 10.086777347798536 -0.7115270888542584 0.5652434031619491 -0.5294760157543527
Ni 2.9208969999736953 7.028090140257973 12.53451722420285 1.4819028724156091 -0.1420915019878327 -0.3571041176154237
P 8.91272486011879 8.4170941655571 2.8609325713645988 0.3661919388493048 0.5006848025542732 0.13978239423868183
Ni 2.2167108993743727 7.338444308140683 8.661628043418796 -0.47723017107575877 -0.4766406171208759 -1.0248849146216672
P 0.9325359677476609 4.830515740037909 6.93021876259769 0.3178765395733687 0.3120792161653012 -0.7847240818632227
Ni 7.9477634151116 7.38381588192252 8.717373175144138 -0.6798384995017259 1.359169463239414 -1.6494554947890236
P 0.028075514691473763 8.480675531512409 7.06186397617462 -0.5271663937845694 -0.2659806220350258 0.9180622631384576
P 4.943240377187066 0.02705428359859008 5.318777260687972 -0.4004675722027232 2.376080872737301 1.0823393000843942
P 3.905439763485995 0.6617772090352247 8.938780153592035 0.5995889705213544 -0.39707962956709675 0.21422174429517946
Ni 4.364521134723425 6.163713470950961 1.4429717330352203 -1.946712301229512 -0.036347428280782565 -1.4120783954233036
Ni 6.560418195308173 6.898814516431045 2.4889996513121724 0.34492300216819954 -0.41012592122809366 -1.4613078218730768
Ni 1.4682189380211759 4.784829085882586 3.045312045686126 1.8886449647731345 -0.34933604363423065 -1.1095017194317989
Ni 6.722202700022903 0.517693734361484 8.664204288825527 0.8992574717271288 -1.004274180349851 0.10795650797733665
Ni 8.869864662255022 3.2328636380030633 12.512924951549321 1.5523043049573073 1.0402498271135117 -2.635384596972784
Ni 3.8831617276666455 9.145059567284731 12.293565995529075 2.079252926304116 -0.37732867219241467 1.0880813447744937
Ni 5.614722988432609 3.092384126777802 4.59380604921543 -0.2981713478349574 0.050750491079990016 -0.010195966696395343
Ni 5.454143202792968 7.29304493314942 5.520355489866875 -0.060955713747766 -1.527358433645247 -0.8713247498726026
Ni 6.229556001939514 1.1380425078183376 11.758317650829573 -1.0848515249832864 -0.9095601392047173 -0.7577377830823661
Ni 2.236347820298334 2.55943494209776 12.457437444364652 -0.1845293594370693 -0.7854936130393956 -0.09841565836643695
Ni 5.02311325186551 5.450630983335592 3.3802165349052014 -0.4724080670967671 -1.236197969910484 1.6330431148692712
Ni 1.7115907253289009 0.18990079451336161 2.884288367402663 -0.8209838355262054 0.42295161223785227 0.4038146342980852
Ni 7.750680641496742 2.7757932209140517 8.56325346386792 0.028842635263305168 0.6699232972705429 0.10352032658285398
Ni 7.15593863533441 5.475624270608797 4.546226132698254 -0.9680331957399458 -0.9600990284945335 -0.2280249687268589
Ni 5.235625696711323 7.160136617957606 11.739654698942472 0.5381455185038925 -1.3236193340489462 1.1978509947011693
Ni 2.1413325535529943 8.549353785862326 10.539166967927335 0.17740020459145578 0.6116780404754046 0.7582463472876684
Ni 3.817476736864834 1.5659309220807545 10.91533123205427 0.2407591284640757 -1.1418415692150852 -0.5643782269481764
Ni 0.20566686037836174 0.2742876588954679 9.240115609137227 -0.7996760751873647 -1.2955380024316978 -0.38833993570125375
Ni 5.408994038686531 2.0674554730405736 7.1207423042021745 0.39310059031469075 -0.8038662020093125 -0.6174388542185817
Ni 2.5698047932133394 8.025643869781241 6.304761053555476 -0.8526428571923833 -2.3897953941099166 -2.396049088329112
Ni 7.437926302533661 0.6589572396925342 4.045401245508968 -0.3886309845791113 1.7755123119114968 0.9520663879980441
Ni 8.1561705480323 1.4380916940741262 13.414178998451808 0.36908083036132566 -3.7377677030819303 -0.0727241671376038
Ni 5.452280521761484 6.773848080065016 7.9834221730272725 0.3345321458521787 -2.10943253521129 -0.8349876060044652
Ni 8.250740995426838 1.2987149641560627 6.772139232392351 -0.3617225902240415 -0.8181664206820684 -0.5901139411513837
Ni 8.370638344607682 1.6396411953366241 2.207547620747844 1.6758175297223201 -0.12660677608867227 -0.023078993306650572
P 6.591333140188935 5.001141029349837 8.005367521040501 -0.7834477862539604 0.19078382498721339 0.43864511171370907
Ni 4.645971311873792 2.768055217624053 12.91579505745005 -0.01804528753748505 -0.5543439826406259 0.4867188272924843
P 7.750504567170383 5.24274280632416 0.7689545781970847 0.8355046548501998 0.40346599270941486 1.1517480296955196
Ni 4.399698931716043 4.457330838854371 8.331253297922059 1.39277249600584 -0.9413901392311207 1.390677046929392
P 5.586931046077272 0.8451196982451945 0.13447444998942956 -0.4925822280517968 -0.1482472371765834 1.4150565042150212
P 3.743228973560079 2.636546229973306 3.5386769416796655 -0.8751657208852476 0.02877038726447303 -0.27684610399461995
P 3.8857657742828007 5.2232170902379 12.62942035940351 0.2208600755473035 -1.5105657875679404 -0.06471286679735307
Ni 6.959365550559013 9.199540670688208 1.570520901756846 0.5722987673468338 -0.6198538914179776 -0.20590962488505826
Ni 6.399699403621406 3.5471933788335686 11.31510984346692 1.358635702223131 0.09313204136999444 0.11123003652228586
Ni 2.908136244847553 8.456516280521956 0.8681372462352535 -0.6498887472171712 0.010531495658943152 -0.08879459033690514
Ni 0.6376049841470415 9.344635182678044 5.211858442773766 -1.1244742815812312 -0.2930867342231985 -0.7393433397355783
Ni 0.5963016540110834 2.8571024914127943 6.083950874403237 1.085994380338478 -1.0408949168966783 -0.534879189047795
Ni 2.9307108269007713 2.594214255088617 9.109935519297002 0.1512978510774491 0.5604809487762993 -1.864782299222924
Ni 4.174564737791214 3.731376391275158 10.853388284041083 -0.8963585529127788 2.5981820197805576 -0.6914364887519705
Ni 1.2905599427246868 4.998833528967549 12.421589638224889 1.7135268713476361 -0.9362775005949037 0.2504953819152331
Ni 0.8286558220236233 7.2111611043225565 12.70705616343021 -2.59378337649223 1.200633699652629 0.28082874279145187
Ni 4.788971466086934 5.074147005300269 5.842348170721932 1.8342872159578605 -1.2157440729315063 0.3946069996568881
Ni 8.473725229156122 6.348091091858526 6.416590491761143 0.01327152029792553 0.448536402685492 0.22030368882320123
Ni 2.7067442837717985 0.9865907859399524 5.2524120669622265 1.7117062731991295 0.8596516844100486 -0.6690066989935446
Ni 7.4729187581301115 7.756546696685448 4.431778747271719 1.4093396563359017 -0.5370959941934557 0.4115420848493299
Ni 3.3919328912639384 2.97561904719219 6.607724733266001 -0.3903073438402697 -0.958148332526066 1.2505845776494593
Ni 1.0949413661395535 2.276641039825178 10.47680329494485 -0.05963185273001989 -0.9208076870940787 1.2305549126920938
Ni 7.671521331193544 3.733442947842428 2.6275896070035043 -1.305957655103125 1.5572904453179888 1.2123800415552797
Ni 5.727392023162916 2.0443155997290443 2.3603115597110964 2.1162942953281294 -0.5282200318600645 0.33887833863601635
Ni 6.975962872585825 3.1264128071141806 0.326724446699216 -1.838773790974304 1.2353039973413047 1.0936508684424713
Ni 5.23610758434136 9.008685367984583 3.3007226833819203 -0.4422716527227028 -0.6622105020073176 -0.9117823436670167
Ni 8.308409970844398 5.488792776806508 12.126981148653602 0.23706368189035948 0.5235349676795693 0.5595206417455589
Ni 6.885942556467203 8.491647742165531 6.708255759961289 1.2098408200731938 0.8909173272925496 0.228641005044303
Ni 8.993348367451711 6.146587925945071 2.804672190557912 -1.2811228554476324 0.8245766950837863 -0.6881220796667568
Ni 3.7938457088534605 1.2438353767508252 1.6380796940739115 -1.2510314353788907 0.29202769683106483 -0.30801867294268237
Ni 1.2907452841208542 2.580434122283553 3.587572782109631 0.38539885079505887 -0.7559606365772852 0.17129614857624692
Ni 7.09139349411903 3.729170828660764 6.412915171875139 0.01336253734983505 0.20758007060894573 0.6420880202258297
P 8.462669614874722 4.294211876087233 10.410818051081247 0.9009320312160741 -2.2341300100923913 0.7554574716886215
Ni 5.540558628756129 8.005191446714143 9.77387195559758 -0.4096314980901784 2.0809961342474677 -0.05474727094420894
P 1.8754417866109012 0.288427354009097 12.531655553046022 -1.5642632770913962 0.3044839203165466 0.7624182192771708
Ni 2.9587066447918935 5.5598526680971805 7.081490703321792 -1.9521010763452509 1.4855605237728546 0.012062587591488903
P 7.89238340593671 2.9336762892394543 4.673395351557736 0.8920365284986573 -1.438211859285562 -1.096885316219369
P 7.513851405473734 7.9488013269301385 10.83777697824188 -0.6274589574587451 -0.3651550129443582 0.3025717908954983
P 3.6461564173172785 6.560964952426867 4.726536436666922 -2.3679831833308316 -0.48206024547455045 -0.34150137808116027
Ni 5.7784721119467175 2.349758220613311 9.411284875446906 -2.6475130048052016 0.6393585371098086 1.3194191799246695
