# total energy = -381169.01961324865 ev
CRYSTAL
PRIMVEC
9.27268789350402 0.00000000000000 0.00000000000000
0.00000000000000 9.27268789350402 0.00000000000000
0.00000000000000 0.00000000000000 13.57151602979706
PRIMCOORD
 96 1
Ni 4.3561883163557615 3.6503698448689645 9.899647905758384 -0.07707447368649953 -0.0024947413973957036 0.8213304202323468
Ni 2.582276722675138 5.935271460728612 1.5957257649438645 -1.8486026041392678 0.20572604811934248 0.36951894634000876
Ni 0.46539621487588134 5.105588421831732 2.3724775184576794 -1.5542346892108008 2.5729736388357303 0.8200124727518716
Ni 0.45623758085649685 3.1213351716808067 4.905193577867853 -0.8603993612093505 -0.22434186344831689 -1.4871306964734519
Ni 1.5600463157388555 7.7902078028767665 7.146651722790759 0.6976336187016179 -0.1320395170684694 -0.359222192399691
Ni 2.1925178244906807 7.099958174680996 9.529538760890194 -0.6029465741396777 -1.177009632475786 -1.4366799960220675
Ni 1.6542197359078024 0.4233102654744635 8.63107741267674 -0.49919716226515315 0.15387486777600598 -0.43117297170638
Ni 9.151660957946232 8.626539359129016 0.5976748194522988 -1.1213203093332818 1.4795662538626326 -0.16447526899967158
Ni 5.519270855269822 6.491057839035656 6.912461639840295 -0.35654001758183756 -1.131128296562639 -0.7156017731442644
Ni 8.726016756881327 8.009237968080656 8.27535391610021 -1.3225104172554836 0.2178004627853733 0.9886411017982846
Ni 4.593124042247543 4.871601410750283 5.0533405335603705 -0.8133828832504959 -0.4962753606326679 1.1876627413142578
Ni 7.333463005982141 6.234306378710924 10.496808091022086 -0.06361294886495496 -1.0984891703713793 -0.7728571552223077
Ni 7.520780577942844 2.3397959293098403 7.088565750102465 0.5705948972818495 -1.1886379607433335 0.40012612970290445
Ni 5.865948844621576 8.218040358329214 10.409311933541566 0.18439051986635988 -0.09925975153428712 -1.1567701655004594
Ni 0.7117066284193768 5.594017993905297 13.357886726282862 -0.4588586105471065 0.7370522297085564 -0.7245870073620102
Ni 4.380297305371049 2.7955114578272755 3.6820472018974364 0.32668359634203736 0.7966576000760152 -0.4608278184583354
Ni 0.20082138761568888 5.763188915287954 4.851654004146557 0.8478125256832755 0.14396866440588754 -1.440743881678796
Ni 0.21989067065797321 4.971217898823834 10.846233577852777 0.794676050869612 0.09035165041137988 -0.2702666510048894
Ni 4.621461377028589 8.012845043744866 12.310939969261867 0.6610625044458034 2.0327020751277702 -0.47577955467216126
Ni 6.01922637863031 6.726454298705693 4.656333175101586 1.0898065549957165 -0.1809249299152626 -1.7753829854224843
Ni 5.162893634183455 5.813530338889491 12.199192023369584 -0.3259006954294258 -0.7850557541710286 -3.263448020784747
Ni 6.851552133630787 3.0920891134676456 3.7624988982414513 -0.5303597039108866 -1.5014481415373884 -0.3867157698342694
Ni 8.470136929236379 2.085399731758141 10.57705578822828 -0.5736447398517669 1.48877851648952 -0.5200634641912011
Ni 6.90220882862714 4.249431858458451 5.925609319746331 -0.32901867223311726 0.8974065345613189 -0.3668797089449488
P 9.039387250639653 7.061328156128039 11.749907104037572 -0.07303707039233227 -0.08033463249501004 0.7322715204904614
Ni 7.624820138231893 8.699979048744815 3.6398666710775736 0.21643649255831113 -1.7249207150068744 -1.2454894225147388
P 8.31426304256446 1.5691613681242509 13.158901330907566 -0.6018721101285763 0.024664335515899458 1.194771327334581
Ni 4.586262253066269 5.945870143207255 9.838372128369604 0.13259693223383615 1.8256994742888493 0.7341923916622581
P 9.057802809172099 4.467228756147327 6.50104174229441 -1.242506171516699 0.33596964962965364 0.6485396893884443
P 6.883579998268789 8.533154117447108 5.989178232897987 1.9902061107470885 -0.27378546279142524 -1.0947171049234565
P 2.9819852151724433 1.3786169007107325 11.621004685192105 1.1693415744075668 0.7443747315118986 -0.07704336333824795
Ni 2.7674523036887138 2.8974368452334462 5.452166266152193 2.6246463846196737 -3.9160852772813333 -1.0407051694833753
Ni 6.284638529624379 5.41684474270718 0.2708440916729756 1.796067253244713 -1.0020622603001967 3.4776849345885785
Ni 7.353519830305244 5.131774492977567 3.2023209748583907 -0.14349995229958512 1.6168487644975962 -0.26091966257235066
Ni 5.4036311621891855 2.998898598235476 1.4380511222462662 0.14362876456796553 0.6037706127028699 -0.007814610948412348
Ni 5.672808024544873 1.0896799400505917 11.143477012497492 -1.0203530881895848 0.6860402574370636 -0.03057118791863767
Ni 1.0406366927806467 0.8644213102614838 12.352767210665775 0.1129004822461733 -2.746041791710735 -0.3440444562179881
Ni 1.0914232054101587 1.6241576811433553 1.2685482386302445 0.10014498235271785 -3.0035092340684275 -2.673770910060466
Ni 0.5246486917249924 5.780324842864974 8.030456660220535 0.5318951667188065 -0.331727586523848 0.7569319993516189
Ni 8.19705626519783 1.4035047955249755 2.2345907921287824 -1.5447650591574684 -0.1014017375779544 -0.31100578059546435
Ni 6.279881640637901 4.613867045488774 8.650091059590528 -0.6282449436951503 1.190440304059395 -0.8326885255576434
Ni 3.016600159785547 6.449738740938686 4.02584138525544 -0.45917279935341565 0.40246069137335205 -0.8325466006631403
Ni 8.146149207623242 3.794643598749296 1.2220855804537436 -0.5050479646189754 -0.8700114303778179 1.5926976211726893
Ni 3.045373310906484 6.399341681208652 12.176649191371482 -0.6608033372471459 -0.8133659139696314 -0.5015936875217878
Ni 3.390187489953596 0.59814865381333 4.357053458153887 -0.3782884650025227 0.5477429323843405 0.38088142254067947
Ni 6.042398826149235 0.13617591537761967 7.747924345219185 -0.07418275396100127 0.06607015215619588 0.7031743460141889
Ni 2.061726559082745 4.583183720622778 6.266023608298153 -1.552295563206559 4.148665983699675 0.5619269371942064
Ni 4.113967158256782 4.738148883862581 0.4170419283304887 -1.0804968475590166 -0.5653254213527941 -0.24784765987974092
Ni 7.63215483450539 1.2081756210607308 4.959914492050897 0.20496063070822768 0.992679019313084 0.009736253451157424
Ni 7.930327392496003 6.7298851932963295 1.260689635480069 1.18004173443389 -1.5121231047527313 0.6063687124473492
Ni 2.7331619031585084 4.241976617239877 11.951471233968695 -0.7073783567932076 -0.851229007563992 -1.1205836882775733
Ni 4.981352946898338 3.2491591769022454 12.097459507875536 1.2962748805977224 0.15878850302753944 0.6060267557268981
Ni 1.3825207023935926 2.680539398288601 10.232706170854117 1.4594535422731574 0.29858478122329224 -0.5963334396985343
Ni 7.828337096273253 0.2622863278413567 11.503556817935321 -0.7475950382214093 -2.4508184707605083 1.6617032018081253
Ni 3.5652743863330816 1.3635951460165916 9.497726949884521 1.3205404380133063 -0.8588561850919466 1.0080786416976057
Ni 2.7307046408165654 8.469432204942086 11.049846971850197 0.9379613160552298 2.655561586141291 0.2767149777333944
P 0.21785531562379795 7.6561247331994355 2.564365598374396 0.2410892581099848 -0.2684051723161184 0.8476711150094046
Ni 8.962590847937879 8.837270468498795 6.1109684999839455 0.7793453340498127 0.9198113846190804 -0.36888105564569373
P 8.804843878273234 1.0284616533279265 8.617220307605798 -0.4590167333915256 0.6618778012582471 0.009455746096261135
Ni 8.017972840254657 4.219323440253589 12.693194480980912 -1.3542414298101775 0.1661994507796299 -2.589658555690579
P 5.970674583828753 6.806486869548365 2.382642239134048 0.14463895100003477 -0.1520406427807446 -0.11238446184170323
P 1.6456054086788783 0.9610770290301972 5.782362052436766 -0.3855284343943876 -0.2634933368367978 -0.05672342083397327
P 4.840825359003459 3.8095355358102774 6.883011582489313 -0.033118894041155866 -0.6129072848968153 0.9515534529173677
Ni 6.573213855449291 8.542983166814878 1.1717293205512738 -0.6321144539528856 0.48034120590091467 0.28890869158610893
Ni 5.395239379474249 1.758250023508769 5.4830693537257496 0.014133611187904693 0.6019978370731631 1.1193104779921046
Ni 3.418098281082833 0.03946177867398463 0.25681358733488635 1.1251067729589073 2.774006138134145 -1.7371977326020147
Ni 2.373177606407931 4.297826017562599 3.3711645703517257 0.1951647276637284 -1.4093548258445534 0.7956070473243136
Ni 3.183304546138179 1.6099611956885838 2.1459550212828855 0.8828353216153635 -0.7673344256318656 0.6552404984473876
Ni 5.660364077137752 1.0016914028328743 2.6215011205342034 0.33191142039988003 0.05608270192618083 0.53848438990055
Ni 3.4577482953248984 5.617004987662565 7.837089586554611 -0.37136371285823144 -0.6594241975114321 -0.6280742224452409
Ni 1.3042592149747354 8.070938434583628 4.545806442229808 0.1025463927053589 -0.4559386086868341 -0.39044669763161144
Ni 6.145548208382334 2.302269360638737 8.989120935811586 0.033187799605878324 -0.6352681690905189 0.8410438395008741
Ni 8.460029699226123 3.796303409916118 8.860829587110775 0.5345480309606213 0.05679232639869574 0.08956026485833608
Ni 3.4950245014177663 0.8220033986267016 7.034374306408947 -0.10083326666899407 0.6410626642851088 -0.49009802817736237
Ni 0.44180835093084714 8.578200836153364 10.333162764467971 -0.3256821516607165 0.14887175813445974 0.5673563357398939
Ni 4.0919259786839595 7.214308964118122 0.7241042123860845 1.7292417109797318 -0.8097781966183731 0.955915072320173
Ni 1.0317534575973215 0.966455188118223 3.5736105329195214 -0.23023817432809382 0.06543843210946795 0.6096039315551953
Ni 4.578269195938892 5.150894775804307 2.827638540227763 1.1679714335329174 -0.04593610041048218 -1.753197707574697
Ni 2.9784059575724813 3.1551248470545405 8.196652903266228 -0.3318551132406478 0.4869214302215937 -1.6529313691527658
Ni 1.5057269089497956 3.762652824863626 0.9035186722938143 2.1287237793407336 1.6309777476998102 0.7534460976855476
Ni 1.6805356246867973 7.824498203406972 13.019277830100762 -1.1878352623363801 0.3910192823056298 0.3506146532363381
Ni 5.906813581002489 1.109338038786134 -0.018568557885812957 0.3246948480467828 0.5453073263596544 -0.3569531938598562
Ni 4.949566172150489 8.565432344663344 5.514691074625725 -2.7671047830286213 0.2955323675502136 0.1184808045474282
Ni 0.7791468888456029 2.7452256703542353 7.217318878669801 0.34391230151549806 -2.1163228345732197 1.516361568314111
Ni 7.9794355485825275 6.571516953530137 6.38109581286812 -0.8038852281727058 -0.0007944708768373414 0.6640403561272047
Ni 2.060409837374987 8.585173897591632 1.7242201855136905 -1.0171494936506222 -1.08682973175558 2.4603364375532726
Ni 4.310974689264015 8.252905665520553 2.879455248503274 0.40880257443097984 -0.12959619773429937 -0.024701616511738102
Ni 3.298907148466484 2.5570364657137485 0.057511066027160614 0.21531497735935823 -1.5250282428501736 -1.0894885095346656
P 3.1711851428139552 7.020964144903598 5.966743891350453 0.947645119001897 0.08413240897454544 1.5826014132789519
Ni 0.7062542878266886 2.9641816540534616 12.614045597312531 -0.5634534011410619 1.677865927610917 -1.0013606062474818
P 2.2364425479389185 4.974231522450745 9.681010902529206 0.2783522562265012 -1.4451127001704531 0.3773988633087178
Ni 6.862299179118756 7.3694966718719135 12.500017497420687 1.8157891571536726 0.9169016671714532 0.830468377977873
P 6.843698166824653 3.858467510823229 10.758452748848113 -0.15467525219011424 -0.05682446518821181 -0.4523717172711822
P 6.41872159930171 7.137874196251578 8.619935350676444 0.7179365919250281 0.26037844535689997 1.412247059790684
P 0.5033576726180685 2.9475000881924993 2.671023765778029 -0.9399683191829296 0.9781818541381734 1.899117582169684
Ni 4.0342591314970075 7.981206632006343 8.09135133012911 -0.4374415783239112 0.6041729903476111 0.3569318537036175
