# total energy = -381162.30183863983 ev
CRYSTAL
PRIMVEC
9.32848372268555 0.00000000000000 0.00000000000000

0.00000000000000 9.32848372268555 0.00000000000000

0.00000000000000 0.00000000000000 13.65317886573620

PRIMCOORD
 96 1
Ni 1.3120605284401425 5.601101329470212 1.0604489409128666 2.288378487023311 3.273910096658336 0.7252896898559896
Ni 3.332190266133832 4.566852367229214 9.376593257093564 -0.5059185401493868 2.3887042179282667 -0.7136986425842805
Ni 8.470300304055877 1.366417601615738 11.656359876643165 2.078834607819775 -0.6119600904921977 -0.5286378361237735
Ni 5.760506454993565 6.536505680870535 13.42629035920683 2.0486100046072786 0.34374903646475635 -1.217085417450749
Ni 5.123203121338109 7.444820116276018 10.865731722989644 -0.9441108805963934 -2.880637756652471 -3.4038184263164153
Ni 4.593541158434873 5.40861740156473 7.150319893150301 0.8176439725196952 0.6285097673207627 0.6224743597599602
Ni 3.7565896215695145 7.99590027722476 12.618690895577615 -0.5336813120849518 -0.17162627822215604 0.32097703287556334
Ni 3.4129096335936615 6.862685433857987 8.873815050700497 0.9409605078928697 -0.28962474381652703 -0.10346376231330569
Ni 1.8824506501703295 5.641652247111248 7.541333539097716 -0.15507017363568776 -0.07027853381058864 -0.8194146912668727
Ni 2.039859480231253 0.17956957539058638 0.2721090642543631 -0.5776883137935213 -0.2764997763987948 1.983450794301126
Ni 0.9604046870980402 2.871073999762994 10.916918044634025 0.15686840318669115 -0.48827794424948806 0.2691824168017751
Ni 4.02298312400224 6.0300249993885044 1.0084062644860035 0.7301282488952135 -0.4917715592250434 0.44070250846337
Ni 1.9243915118482904 7.043713984063171 10.71035836802172 0.21600120479310542 -0.1651643246468962 0.278519635042301
Ni 7.05912463875445 5.193511901246203 11.655663971776358 1.549704405440615 1.66495976107221 0.1516071547877518
Ni 7.570708000694187 5.683471838504108 5.156163451980176 1.6761170632406102 -1.3892999640762072 -4.787638598224974
Ni 2.022676413680807 1.3945989501764855 4.042774434530701 -0.846343911557549 0.9151774853914948 -0.5918010990458195
Ni 6.822097202283074 5.745151771203101 8.826670760943363 -0.761086902060257 0.40386965590573676 1.213690018615955
Ni 2.791212852782339 8.047486790809975 6.847368996849747 -0.06859086169552057 -1.1921400603593209 0.8264607994803767
Ni 4.917985813497036 0.8739081898256743 11.419887484938211 -1.7993909183013075 -0.6098165617866336 -0.7030298500165247
Ni 0.9191858500406027 6.651964320770028 3.1820231377901234 2.8277331953439555 -2.2621378081592267 1.5399023317485288
Ni 9.040960951806673 6.75761872454329 8.696528155214848 -1.2592543375093153 -0.8622716385313989 -0.30899543503365495
Ni 2.070578176295649 2.578840598120316 13.06939564154837 -0.8803542070647226 -1.7709228927686016 -1.1084995034195297
Ni 8.179046393177474 9.069384840937623 8.047756383982238 -0.24838167800633998 -1.1887091803009011 -0.36124796458046815
Ni 0.8314897097940853 4.93718383247685 5.356374162743277 -1.0969763332712787 2.1065811818054234 -0.41053498374105424
P 8.297602089588775 2.2335654394712128 4.889558192972699 -0.6289890209500264 -0.18183278644151266 -0.6241571467790219
Ni 8.551831249577535 1.6275591678552483 9.29979465123588 1.132977948176868 0.8840697082430968 0.11300512614483764
P 1.171191099570283 4.176119508634225 3.1237788855528716 0.03240978378927322 0.6518872657044386 0.16000977702915023
Ni 4.119001204351718 2.3064861947507103 3.388268444509513 1.2668933421118116 0.37453593993862594 -0.08252469816779336
P 2.3619626859426215 6.888049580411006 5.147985170522644 -2.2597109438852887 -0.8066553347186753 1.0109803887254332
P 5.1145462886786 4.9178552147284655 5.085522578060576 -0.529168768926579 -0.31525992788612806 0.3504015087842675
P 7.15073967490642 8.198253740640759 5.296054322934108 0.05744332971913333 1.1363651194815463 -0.9525494982820499
Ni 6.8179366986557675 2.6997097584320016 11.219444494936727 -0.7332068878205373 1.3637128596357224 -1.114974826731228
Ni 5.653760618654395 5.7664207135131 3.1578978138418266 -0.07045902525251091 -0.7649427854712375 -0.4540241652729407
Ni 6.883627879246559 3.4504940934914607 8.786925824274075 -1.2427596822884017 -1.226498483234533 -0.7156796775700514
Ni 1.1509389619584387 4.808954498707888 12.452968521048854 0.4563528134061173 -0.6410881182064055 -0.9408810608051861
Ni 8.564676571314758 8.238534132261185 12.640358164131753 -1.7532360170117998 2.9311033695021904 1.2634876588643724
Ni 5.615159354058443 8.12176950467599 8.441650665624971 0.05326991506773406 -0.4598446286094596 -0.30524856639671305
Ni 8.825958064806308 6.0264148762858865 13.23727569430358 -2.513670887310355 -0.19969886808865608 0.9134278496902398
Ni 8.20885089786188 5.070375919451478 2.40403787778254 0.21033552186689583 0.5214950544314051 0.21090682098933355
Ni 3.5173326775489766 0.17918804041669212 5.390739362995822 0.4813922728732483 0.7344687852520965 -1.6348086914101265
Ni 2.3497423725978415 0.31237826169462596 11.697538601221686 -0.2807420966149165 0.6466087909143187 -1.1985215384056327
Ni 4.282147051746259 1.0842403051529625 13.568624359981369 -1.3801766616187006 0.7162090677109602 0.7402905341401961
Ni 0.22222406605394857 8.872759066371772 10.515487281196448 0.030049511087212766 1.4465550890439347 0.22176973184576645
Ni 6.6138388088310105 1.0982610158073165 12.887958503767232 -0.14111396856591182 -0.8112426969790416 2.314742578839136
Ni 2.6076749405239137 2.4539135474994858 1.7262256046616595 -0.8310543323883299 -0.7165404829084497 -0.053171698926972946
Ni 0.22444144657460055 3.059024284702397 6.4937112629551335 0.8616967398645354 -1.7130998111125464 -0.9053568997566472
Ni 3.3525730025142466 0.17564694809174689 2.614842947221722 0.1807503520106113 0.002299594667454104 -0.6508215434440856
Ni 0.5151197900229469 0.646249349302513 6.002769969236258 -0.36365091759500595 -0.20133254703733713 -0.06256033923072452
Ni 1.2887579767338377 8.173897070302422 8.654545315361275 1.6403401627513168 2.058073721123339 -1.2260117734061016
Ni 8.33301301283823 7.590223188111956 3.2755477145082583 -3.887803913838136 0.10984138370487534 2.503924349446552
Ni 6.260606453782596 3.8587551725252593 13.19399432955108 -1.0444114146903691 -0.891122244214504 1.7763443208944893
Ni 3.515504294788994 4.068394181530779 0.1783708652647817 -0.39134478396584865 -0.04328400749961578 -0.6043311131920301
Ni 8.826181948409571 4.622422143255818 7.748779421639604 -1.0170679896804098 1.373711622719647 0.3029618272450653
Ni 5.255443702998868 4.512047526847092 10.700173529769941 -1.0248815721875577 -0.8443585056964038 -0.806302836475263
Ni 5.751607081763855 8.104847635662685 3.372307409293545 1.4983913569889356 1.0908445093419277 -0.09052957075014086
Ni 6.786947476570761 3.851917394142265 6.239720912143187 0.21577211950143485 0.5307140019265117 2.2677016754002493
P 4.067703873754051 2.819450172243902 12.09903746258859 0.1836847520485869 0.6047003236059909 -0.7829093972519873
Ni 7.342719864704559 2.7997857290906234 1.7429375827969058 1.1979782643076529 1.6924577093821624 -0.7322992884046032
P 2.743516316803822 7.502628728335254 1.331557991739321 -2.5471206823283685 2.350330246135759 0.36844653921143644
Ni 1.4935461743353227 3.2497078152983043 8.609543778257038 -0.7924258213828547 -0.6120233396299654 0.10676480166208065
P 1.1497822300082456 5.336051128657066 9.615701878226941 -0.21430196271381158 -0.8828067823702731 0.23123499102372436
P 5.056467150598755 3.564357562717704 1.43456683760069 1.3076797800005544 -0.47895486707634927 2.3325150723312085
P 1.7303497272034358 1.158606975370201 9.716516664776332 -0.04962306234376615 -0.3699560338774274 -0.7304586356514388
Ni 5.56262133515936 0.38997445288893523 6.526833909209568 0.8996991872502376 -0.7144589177890728 -0.04397820535316297
Ni 0.9072836379821263 8.91687346469808 2.9769392272626622 0.8806043754023156 2.1730351996635995 0.6402504527964585
Ni 3.5882104949486977 7.3829722708745775 3.5953598446795674 -0.29132141479265955 -0.6884115858827177 -1.1200082753900775
Ni 3.3806237523064233 4.643122048074189 2.786900294874483 0.6100744434337105 0.418314370576157 -1.7230196413294196
Ni 2.7068367198025447 3.9604916132414165 4.707151825759099 0.9412960368554175 -1.7095406330063783 1.773888660265145
Ni 8.4528840254187 4.220168607576247 10.146646507607205 1.8835441532114594 0.7339949309394714 0.1605941887777105
Ni 6.59405309539263 3.667082822681607 4.017953205715594 0.571537463700777 -1.326385583940174 -1.7805974397438884
Ni 5.140936568413242 7.373653115888748 5.795705621668265 -1.2506853648933816 0.2644508156540607 -0.7824764234796266
Ni 9.319835965121317 7.408019248989641 5.64246289232473 0.467929205389807 0.27624112342076945 0.114383494549603
Ni 0.14619879147586898 2.2776705093140506 2.7321784779952383 -0.6060087580047693 -1.3162724067655718 1.7010104840481801
Ni 7.955106819013523 0.33922656996761064 2.0772900201518087 -0.8369943520218487 -0.24018757223132187 1.1070805115848161
Ni 0.5954772123241683 3.661914842839616 1.0303757759045458 -1.45547990233739 -2.3621053843938156 -1.7253930266576025
Ni 3.671719078965847 8.933179653802412 9.630242185410536 -0.5467635991902067 1.249876238728525 0.5869589404621698
Ni 3.6886316194956836 2.5195487571894617 9.901285004004357 0.36767469404241837 -2.3478671293072466 0.2633053891957078
Ni 3.240230076093498 3.5588444289873493 7.061506200584162 -0.42105259544292645 0.13524028339395416 1.2485667758884818
Ni 8.72171226203691 1.207143074860955 0.21958690377717818 1.8093611421401419 1.0964955369801181 0.4481149988773573
Ni 3.3584965895172503 5.308280233368968 11.842958464327868 0.5167572826361037 0.9786839905855726 -0.20754458938531997
Ni 5.72034733365824 1.4220806624770355 1.733707981252383 -1.7425908785931281 -1.749149762757568 0.51747410619747
Ni 3.3487389958083655 0.9940245415213878 7.740628192784132 -0.17938638178354913 0.8272922942427364 0.06731610874815504
Ni 6.238143465588529 0.9172921678963354 9.719984062081869 1.249536338890603 -0.8215363655955656 -1.6000538044274442
Ni 7.090216474157618 6.682244578111368 6.784865359060414 -0.06178052364190651 1.8007610591759566 4.884714454734065
Ni 9.324350951120458 7.7524921580603845 1.3354050583220591 -0.41381931091928087 -0.10435799199280091 -3.128173027498116
Ni 8.392659336140914 6.99208082806061 10.908289197424926 -0.6961102400785559 -1.7765271263292564 -1.0395674563345065
Ni 7.554840250312912 1.7905091170969347 6.93309775993259 -0.006019980941834794 -0.9823172164627856 0.34840016208352254
Ni 1.2933289336337934 7.428448627787402 12.894854118747736 1.6143789628008647 -0.45584219231828593 0.4274456434534638
P 6.93579275880687 6.866295556960604 1.6804600647612868 0.1291953627514549 0.25880930109756717 -0.13723725921932495
Ni 6.095399011541341 1.0493890909116674 4.195430402264017 0.9803690915974792 0.03560129414337739 0.009630324000912448
P 2.2197499554531834 2.032144824402144 6.036479377100911 0.19069589325909736 -0.4906045355001358 0.4978146800953297
Ni 4.767069607930743 2.675455701411828 5.5385753033205525 0.2816080441596376 -0.4669809825439247 0.6469008682334407
P 6.105800270609607 8.434273700897451 12.167221213962378 2.4187948666660604 1.3030571936268784 3.0063749856519966
P 5.499290260886301 1.9351659102553287 8.025146938597702 -0.8223740310055128 0.5345578011526342 -0.6826320030864631
P 8.520245004550496 3.7533433093221995 12.991327429090514 -0.741334144913362 -0.6504711020832024 -0.8292512177413203
Ni 4.7344945436559565 8.380224467676342 1.0810807478019115 1.4940359082337173 0.05284156928106384 0.5145245366508429
