# total energy = -340895.19560559135 ev
CRYSTAL
PRIMVEC
9.03597714161145 0.00000000000000 0.00000000000000
0.00000000000000 9.03597714161145 0.00000000000000
0.00000000000000 0.00000000000000 13.22506591731853
PRIMCOORD
 96 1
Ni 6.255670172650903 2.0880697236585233 11.257348231226553 0.8772370015919795 0.17920871855510426 0.8950318636815553
Ni 4.658299183406169 0.28508326914663795 5.931799068363032 -0.44288846037109536 -0.3778128109176848 1.0395458590679516
Ni 2.566994579959042 1.4160821814269664 4.9558819196242485 0.36536430074168685 0.37182522587568223 -0.2814337233653024
Ni 3.2944901292894646 4.115779120535275 4.718425478382005 0.021577726170775743 0.0033570893976909923 0.5430928352068389
Ni 5.0305362585222 4.334603377073323 2.9151751733398763 0.25604536519918486 0.05472541656733801 -0.7419730640489415
Ni 6.960386023805151 6.029138227677996 2.632634628138806 -0.060287741146463916 -0.4241222355071857 0.22235002982926866
Ni 5.230954229782633 4.764020115044901 11.361759849788836 -0.5575509196136978 -1.2673959927798433 -0.6595576377655027
Ni 5.571438881498793 7.968918531753337 12.274342028096664 0.432412757650752 -0.6301678717494761 0.8668255764506684
Ni 2.01659514508909 6.462295860153713 0.24278043892784412 -0.8404807679085526 0.3725304794728229 0.07006847468231157
Ni 2.892353006071505 1.6534934427838932 0.5583221795589126 -0.6513547902397363 -0.5815943337161467 -1.0956087634997906
Ni 0.41673564776116745 0.04811205987268616 4.696234022312641 0.33360012095621255 -0.04559157258686987 0.5551106856033214
Ni 8.421964349745025 2.457162278756581 1.4252916492497183 1.1580624019493215 0.45674876329295533 0.4631112151758734
Ni 6.8171386794232 0.7117539736887273 4.83598353997345 0.6295626340653093 -0.47756775692083553 0.22767375603502724
Ni 0.9758855228190637 7.431070069024086 2.462560371454101 0.08847063133858311 0.4391004540835728 -0.1991900467730376
Ni 7.645195617489302 3.741002935864502 3.720303319608262 -0.3994704983967765 1.0027736845449247 -0.20441915638246086
Ni 7.508698147973518 3.8898525860255986 12.60358050276004 1.0380530765725091 -0.8118353362577179 0.14497705106574385
Ni 7.999993256873474 8.75495817647584 7.092920313781043 0.07594807339154017 -0.04308963210062256 -0.7411932484601235
Ni 6.938672570922426 0.6183861262930134 0.45443012967776014 -0.6659936231988337 0.22794577874949132 -0.6747448870289025
Ni 1.8596763674106096 6.462232608314271 9.03688608243203 1.5037194540700682 -0.05810153212842251 -1.108446538694407
Ni -0.3267093046834026 5.17240109841349 1.278337747076468 0.8797960205684073 -0.9881587628452271 -0.0482385232914137
Ni 6.39767055219814 1.808117082288336 6.984342206194946 0.8082568748778403 0.7773434731284354 0.49260228265645495
Ni 3.3626213963455363 4.45067050244935 0.5476660518083522 0.38833299372271834 -0.34814536576023913 -0.4656128985518046
Ni 5.917598126810602 5.449227291719831 4.875301786968289 0.16150667328965088 1.4253465732871193 0.08353025661417228
Ni 5.378565951086079 3.0364678042515165 9.183988174629116 0.15370286097451594 -0.271363483613494 -0.0696864087525445
P 0.2364751341331854 5.600236540399018 12.393632286491112 0.2482261262650822 0.48578423129335696 -0.2130395510616202
P 4.201286571483764 6.107046421916385 12.546461380950817 -1.9773639646770975 1.4862644918184145 0.31436209866220693
P 2.5176942891025527 8.57302781428659 1.3421986113725002 -0.4097819076251137 0.3332329674247809 -0.2509196139368453
P 6.353267760909872 7.66179470735429 5.7739974757254835 0.247217996715542 0.30958730298138293 -0.3751555758004958
P 4.953685273600199 1.0704289508306921 12.65343921699903 -1.0705394792359884 0.13419872950331727 0.39088892737535263
P 3.915433437091346 5.926344952607722 8.261130283205086 0.47998536522339275 0.4582505446494624 -0.3121015847628045
P 4.6401910853716375 1.0590707276623257 3.9355945091146234 0.3383558904736431 -0.19234191350295263 -1.2549449115006839
P 0.16376262670610203 5.677250172908155 3.3847703833227034 0.7957340598204811 -1.8972468475095325 -0.908795493124551
Ni 1.4826682964052413 1.0971935148917111 2.7493189107482454 -0.6742463501259292 0.10645369817956504 -0.9501802267189248
Ni 1.9173349370505026 6.310699272965422 4.653398069447123 0.3293089497800264 0.9319706456894336 0.004081369158225229
Ni 5.981021649816778 5.7614564431595525 9.266499295583467 0.03193618658696435 -0.1988216076900253 -0.7985597021947344
Ni 8.649761331506772 2.325887603983291 10.320590296286298 0.4119997412120388 0.6252138701783104 0.008837910006604135
Ni 2.348215503306309 5.108688424141293 6.764898985228073 -0.029843565723993767 -0.017064154571138353 1.1789158483595632
Ni 0.2545886537539548 0.11764480697125075 9.308779535859603 1.6165942252846288 0.4670403750269505 0.01743722163984094
Ni 1.388513415407328 0.8238705698927493 11.58253949176335 -0.21052758327304388 1.582759279013055 -0.9921030922049561
Ni 3.9081956194637715 6.877020099420626 1.6833528289890376 1.4588642454285907 0.009139243297106841 -0.19619779691393305
Ni 5.897691869340506 7.881034618837242 7.966832124649459 -0.9247538162260203 0.14869460912664714 0.11478767196655716
Ni 5.102715643302558 2.743530463841598 5.1950434497383045 0.4843814374085593 0.16187305549013412 -0.6246130033695177
Ni 0.746242490943318 7.157343215850402 6.568850812475373 0.0034668755026779005 0.6393701070740344 0.5118459613774153
Ni 5.228369940342576 4.496049179260437 7.093488676738314 -0.786136388829717 0.20288497912612158 0.5100698433135991
Ni 8.315032597179831 7.121108947827213 9.026517298752077 -0.8491155607654151 -0.7558737332904337 0.052484957272593474
Ni 4.508076064731475 0.42314396269434595 10.571800398216345 0.463918284458201 0.31616932707427486 -0.8071543858422808
Ni 8.212492329467326 7.103290001058702 4.416180177999347 -1.3593622959765104 1.2926889630186769 1.6108817482808837
Ni 7.526598418535597 6.188424431347018 6.918786192601869 -0.8319909852699865 -0.8700044883992823 -0.4030553875345575
Ni 2.491453811711196 5.117652113387927 2.63832096850464 -0.9738174065218906 0.19042515609621397 -0.7208540226821392
Ni 2.423918919141291 5.240487185584246 11.296031249033856 -0.007596838510651433 0.07664792767204219 0.7559364682075691
Ni 1.0651248322946292 3.4702760270757795 3.7283977478614223 -0.20019869054321004 -0.6727057451116867 -0.06030522464796065
Ni 3.5252599475049835 2.54718771823664 2.732285190386521 0.05052860487717104 0.13073339666253614 0.3692929463721317
Ni 1.2116793442816882 3.2409338932362366 8.24008910701586 -1.1459969861443553 0.05946267414200726 -0.24747382148008995
Ni 3.5311965844354662 2.641170915670354 7.14661389668563 -0.14186241669616215 0.27518234313895185 -0.3705833830487811
Ni 4.156558485021224 6.9109953731780305 6.090750940880719 -0.06388857112384481 -0.5173568638933155 -0.07310417618484184
Ni 0.8166273306789367 7.164752717042177 10.889373426491208 -0.9215075413745807 0.9968485773097413 2.255276562263019
P 0.395225504362364 5.389065756433448 7.887204383975955 -0.935802360730698 0.004211981198818552 -0.20418904264952575
P 8.424286595850251 1.6917969495545415 7.9507507962701895 0.5688655732955686 0.3654236932247126 0.3653051653689773
P 1.7248505536515055 3.215045818950342 10.638401874355626 0.42030800396741813 -0.743663564377487 -0.6109205934840898
P 4.021940498734572 6.073134399998422 3.89445099475303 0.12265961851546618 0.8316641980581871 -0.170612492245661
P 7.058290835284268 4.008232921529789 10.419262262218075 -0.15866791828927512 0.2805425790096007 -1.0272169051889535
P 6.3941374851664525 7.8714564831503155 10.191169804006362 -0.09468138813498532 -0.9047313503575065 -0.22865951698706427
P 2.404392172707847 8.443632622742433 5.842543494128753 0.018136047479078442 -0.7478899437540087 -0.10402889078815632
P 6.780615260133991 3.9268458761220915 1.6119107799370316 0.033209911093065383 0.3078970597631536 0.41535323106530403
Ni 5.152160509792057 2.874660562981878 0.6939829175986508 0.16236233642172682 -0.31431504747435546 -0.34754758427524013
Ni 1.3407221327203833 0.8059377698132426 7.132727407134998 -0.08649345300755426 0.8448434157526225 -0.1085584032273937
Ni 6.894134239978213 0.7964400543221768 9.256422373962655 -1.1954349290605089 0.10882811194901257 -0.24554035190280293
Ni 2.8447695508570128 1.7012485815625853 9.32811471957931 -0.6886165028046721 -1.4478655803252418 0.3768591887551639
Ni 6.382336499121992 1.8990461194747084 2.7168119832636006 -0.7408299515834338 0.0037373555552451766 -0.26241038818526424
Ni 4.094933121450612 7.0488572752303496 10.274818554472963 0.40101058919038685 -0.8369966660146939 -0.05396282736970061
Ni 8.245067026779944 7.334547762035631 0.2057546193139238 -0.4844673122541463 -0.07221226049819175 0.01567035954740527
Ni 7.466473027157466 3.988426059807387 8.157287027600074 1.3010054533041724 -0.410394344398132 -0.10819202102691045
Ni 3.034226881939858 8.355595098216266 12.22358423413989 0.7026251583789384 -0.616957286596473 1.4463936237654058
Ni 0.11176780748938484 4.901312750542242 10.102891922490317 -0.02904086731704031 -0.8080609568169503 0.005624802385945152
Ni 8.675884341196307 2.415027517711162 5.687148182183118 -0.08803945733843548 -0.40314974702057665 0.8451231517765704
Ni 3.807209539806125 2.9049401221204585 11.71896919145116 -0.7583188523968166 -0.6770519378955243 -0.45894345695142896
Ni 1.1621441180215577 3.4828812150788595 12.783097355475727 -0.37581866330579144 0.0927908559804918 -0.12414237370857975
Ni 3.3802325156415947 8.428208209895654 8.03767960641071 -0.363904942587341 -0.293787616944965 0.2972920305537977
Ni 5.691825203911 8.01293277602789 3.5375461655177345 -0.29429978069469315 -0.6031705172250258 0.29912882665222035
Ni 3.1976605990808618 8.305824936552492 3.6315365917330986 -0.2958229022074389 -0.04197094511514707 0.5619367073862194
Ni 3.2974087498808586 4.034852909957798 9.380723985236319 0.3026288693856788 1.4273193807427742 -0.7704624297378859
Ni 7.310927717992584 6.076369279787026 11.364153480112863 0.5144900838684817 0.8211337308405084 -0.08915428766916904
Ni 0.4913945046476511 9.273713619670678 0.5064086841357637 0.6547291060286079 -0.18359270655541285 0.6735626937953432
Ni 4.6228058655021576 0.45352653197144616 1.7355518612873817 0.21344912779521302 -0.9324756103503102 -0.4959794266588039
Ni 6.058839484284536 5.5517765954094 0.33960816194103416 -0.4146348648420407 1.2131094635221364 0.43852889785081894
Ni 7.907491959678115 8.935894581188146 11.324280424126348 0.5448638110643326 0.11338102142701764 1.0184854388532265
Ni 9.069590897814356 4.915445018668992 5.422620857257416 -0.22686514409080286 -0.3366800454331169 1.3938659861803349
Ni 7.92635907978595 8.706588591256855 2.4525087505690646 0.19705757381106706 0.4297789195723308 0.7014578775437146
P 8.394196792229996 1.6913361147243213 3.5959746004034066 0.7757576166985544 -1.3197832481323077 -0.3072149460944644
P 1.7026491580073717 3.2371026389614657 1.6418261891999675 0.4283391018020107 -0.4836124204530188 0.17656331051245722
P 4.735204384190549 1.1277170454109964 8.208202951155453 0.39876987278532616 -0.37978973213839756 0.3978080230926891
P 8.607798254025552 1.8402219087936704 12.560056912040016 -0.8611966602996651 -1.1276619352805934 -0.9148054467640567
P 6.255471381155514 7.6155937566304575 1.3614678324596452 0.08448876387269966 0.826235570843448 -0.4870242743480452
P 1.6897367467841455 3.140688763697767 5.964002387018356 0.4129150539374566 0.14920471599384624 0.16950640366567582
P 6.923437913593974 3.8865544543975523 5.904422768654839 0.7433568317703456 -0.4669604137186345 0.24823332535393375
P 2.4218135364855797 8.472285706009648 10.11177970952962 -0.8437021030593277 1.0472522265732738 -0.5769066984324903
