# total energy = -381168.2036145961 ev
CRYSTAL
PRIMVEC
9.31904386411673 0.00000000000000 0.00000000000000
0.00000000000000 9.31904386411673 0.00000000000000
0.00000000000000 0.00000000000000 13.63936267852872
PRIMCOORD
 96 1
Ni 4.569742333171116 2.0661066085387274 4.357175871292845 -2.7077624365145625 0.3858318245674193 -0.7370326893245307
Ni 1.2232643114810293 2.1641709086165464 6.755344247288845 0.5746122459713588 0.2590525274566248 -0.3681544618923143
Ni 8.67097904797178 2.2411834882842356 8.23705640190854 0.38201399348322596 0.014521847765258862 0.7694918382945005
Ni 4.629216472019033 8.509638439091491 5.589615713502433 0.17840833414099597 -0.8747489450628032 1.2113626560343589
Ni 9.170955077951353 3.4055980368657663 2.4547172669303547 1.5031165303787468 -0.07447688816265238 -1.9496238184493522
Ni 7.479222424275898 7.194227420476615 2.269235674551864 -0.8618972859111156 0.829944387153603 -0.38214434841350314
Ni 4.415568069131638 1.7460906373639395 1.699191616498062 -0.35947467473012934 1.4803159875444636 -0.03481042281096586
Ni 0.5539025419305679 3.855922200380015 9.548563672989197 0.8305575952575697 0.574848787462197 1.4462928365214833
Ni 3.809559956448897 7.406766857127267 0.133493441580798 -0.17220760464692278 1.08678987965658 -0.15514704962021023
Ni 8.034851785060825 6.031173452319997 9.594828066958248 -0.335268509797571 -0.3569850755390562 -0.29439054063628656
Ni 2.2473340573283638 0.2881364535337912 7.8120539447680875 -0.3994026212733186 -0.5586796339015024 0.9585635656866136
Ni 6.52378743753463 7.463762130269521 4.410943027591333 0.7419051869254836 0.9773177063656652 1.2399967748312837
Ni 5.958792437523417 3.711411784975022 0.5961727936385388 0.15799377504038598 0.3602534618776828 1.3433772334021639
Ni 3.2635105729024003 5.362522725827213 9.365359654965832 -0.36767906491779256 -0.7765474595897013 0.8229085633527441
Ni 2.3637289169664855 9.077466428480605 2.172109802205475 0.8029254353625978 -0.9457371033459068 -0.3794251497101272
Ni 1.2899047951697573 6.431240011508514 7.910953231188867 0.39136406723955824 1.2224343404674882 0.2866291515233128
Ni 6.639194478508088 2.226813522426591 12.576801933292087 -0.10784492210013685 0.6028373022553232 -0.40230179719798453
Ni 9.125068105264555 8.823876602982402 1.2484704617091473 -1.1368155767554033 1.474318889420764 0.5341747067816026
Ni 8.913609677718629 8.034795870796788 4.102147185400075 0.16604852702406242 0.424184713314005 0.779280028029516
Ni 3.5022551612986406 2.964919083897992 8.18803729853124 -0.8714093391666089 0.9179316510978643 0.8073616167570804
Ni 2.55366967190197 6.194088979637343 2.1594247195041607 1.9280769455165117 -0.3619583603839315 -0.45775303618775354
Ni 4.462619922319218 7.545546060468413 11.192188625791163 0.7144002966369954 -2.599634693066684 -0.33491755421605546
Ni 2.12962521248536 1.9682193702970279 11.086837765204853 0.5138485936297409 2.1118177476140145 -0.5348403653900596
Ni 2.264369269771797 3.2154336248741315 1.2685846862922476 -0.1126189464500125 -0.3620252090661249 0.2299098444543976
P 8.37694457148643 7.6503014341427225 13.056443809250013 1.1169728309978635 0.11641903692239305 1.2511211668792195
Ni 1.1241096832544788 8.834341889401426 5.781602930501691 -2.1045158146359624 -1.0482138191555948 0.96113132641379
P 3.4501057910396393 3.0104612519565586 6.114798825614526 -0.7239658288382435 2.4056596148356832 -2.2234478477881967
Ni 2.737366667353263 0.8252954690983211 13.360819628869104 1.2834625593244025 -0.5546782260515931 0.22779562632487224
P 3.455622665091342 4.443226991742201 11.623819718933266 0.22944961698852742 -0.4045990778725936 -0.04266899962343619
P 4.648329831275862 9.072378230453191 1.3940385886088498 -0.24324075723534883 -1.547654722000438 -1.1868939814690334
P 5.151753907537749 6.4316686875328015 9.28558304684589 0.448054320842751 0.9074729176583856 -1.0200545831125594
Ni 4.504387877555251 8.746379433026387 8.257788479109255 0.3991493676119319 -1.121751226223113 -0.018022918939981866
Ni 7.858377048714378 0.6739290330179272 3.190151058485163 0.37950048303275286 -0.3308451839188947 0.1732085351076114
Ni 8.846978513073907 4.79581302171885 7.712705480426207 -0.6011928246733647 -0.27651288902491733 -0.9310612465012867
Ni 6.9416347326870795 7.1476135623573285 11.611803743591599 0.09723217958129705 -0.6911711509057258 0.043392250942705914
Ni 6.432805610901564 2.497848598304504 2.977281727676689 -2.878882978744894 -1.1862100680281313 -2.2937199538408817
Ni 6.566580487611351 8.153557767612497 9.646398724584461 -1.280610177477272 0.03292426153184653 -1.7111943665597176
Ni 8.264892386355223 0.5252837577873595 12.709949638340253 -1.1367243025931777 -3.3490891530943347 -0.08258306220955455
Ni 5.490333414372997 5.538876314601579 12.681156588074128 0.5609540317579758 0.31137653367132184 -0.8887401171355725
Ni 7.546114522152795 4.494313990984489 11.383057557509671 -0.8575305243019877 -1.1352587737912447 0.6017057597540412
Ni 7.383646308947749 1.5202342868283496 0.9905407574172302 -0.013938464457963092 0.11055717882497734 0.5369844083162559
Ni 3.986276987939506 5.309385536903549 7.017124580564147 0.31231652898708795 0.65613292835467 -0.23455068566051862
Ni 0.3379215823284059 1.554705430607486 4.661143516784462 -0.24535420403392583 -0.4537786249210379 -0.6166461831139574
Ni 5.599114615058009 0.45797137102578084 11.38952311024121 2.7542338406032245 -0.16520160564273487 0.6104945616902646
Ni 4.181678702662656 2.7560047553657725 12.827616547485228 -1.5847025187823547 -0.331319552452152 2.6728075177059325
Ni 7.6125779440054036 5.6370058479874405 0.40779484238290337 -0.3779786470715878 1.432953953320732 -0.09966547161313803
Ni 5.326597811183102 6.242771665526018 1.495201470818748 0.2995474022468776 -0.81835359699221 0.7425273938905148
Ni 1.204337333104326 3.8473952751142915 12.248311223498012 0.9213239646088648 0.02182789450836886 0.17544796596109138
Ni 6.7102801461878 9.207280711487734 7.185734975673715 -0.6593259813706709 0.28742105129698886 0.9171631483629559
Ni 8.499257024068525 3.6403540744273295 0.01854489757244695 -0.616837473189157 -1.445380352009543 -0.46799939650611017
Ni 1.4906090459324657 9.235312395858548 11.38502201198619 -0.5739195907797083 -2.3476786674455243 0.8312721048260909
Ni 0.44647912595726746 6.920778712201082 2.3024058797877265 0.3387978631070681 -0.8624408171194115 -0.33810417947415317
Ni 8.162289711846359 5.748787780842466 3.9994979156711796 0.4314416519867344 -0.6677190905303726 0.05254177865245789
Ni 0.19099007929058856 4.263201699629372 5.413913525904106 0.5225962579153838 -0.8203081496154195 -0.051568873216227315
Ni 5.925551407553106 6.893930546419062 7.027422124191059 0.2544898477866069 -0.5695952523727417 0.28913803398809557
Ni 4.841178127941298 6.0968820316081 3.972587312294318 0.6711695109728183 1.2372526364272434 0.08574860442172974
P 0.5003245622254073 1.017518457910937 9.84595580103 -0.36974957429357613 0.30937313008804784 -1.1327910289770424
Ni 2.5165426005810505 7.7646833802754935 9.418252684936535 0.763920257743994 1.2866124178072937 1.0066069422480857
P 0.9992531316586779 1.3307035698291405 2.406256374289029 -0.8515241702069076 1.1627148131196685 0.03279107838809192
Ni 0.5923547813091762 1.6891233213537042 0.04019676441657923 0.8571507723650656 0.5156486229529571 1.3278189739525905
P 6.852115995962997 4.497510423078635 2.6798485958422584 -0.6145057397321869 1.6499018382978228 -1.2338063297498556
P 2.756125902937854 7.6220554117597645 6.571595065191117 0.7063709985746157 0.06747268893067734 0.3451387177234314
P 7.36854013861361 5.378066891229646 6.079746173489399 -0.13910079479062495 0.19009014135429844 -0.4534204702506708
Ni 9.190180265736258 0.011577980273370899 7.755245984410359 -0.3234792304721268 0.05666454257157983 0.5436003709708767
Ni 1.7921173957108318 4.536519941288817 6.980653569941269 0.9507273574716466 -2.135959377857225 0.4012638428517734
Ni 5.428632024007585 4.280684226185105 8.603778489738277 0.24438669791433396 0.829916619239461 0.20268006220416704
Ni 3.0817053433843764 5.017382612011563 4.79846428973863 -0.6005935005264689 -0.3672314358574127 -0.0034108254537618676
Ni 6.468311168565396 1.5193955728677866 5.165676559283094 1.5118780786214605 -0.9324169891982329 1.25483692516791
Ni 1.2018211912226373 6.346781515679827 5.458963648439142 -0.49790055494091673 1.102691638488501 -0.5657704793100127
Ni 5.181080939025433 9.208846310880785 3.4385110364870566 0.002647979145808343 0.28863358354785124 -0.41571112862535503
Ni 1.4216574393301868 8.01595276381614 13.445493394614333 -0.5410220687207392 -0.34365879074379524 0.3841984027290544
Ni 2.7188124507368103 0.5048004990616115 4.839109300171909 1.101662168782722 1.5644630518070282 -1.9247062292720658
Ni 9.24979419024427 5.9616627030773435 11.97038191886427 -0.13908613950260562 0.6785208091315669 -0.5748341321741778
Ni 5.120423281588721 2.867740093000767 10.958900337660586 1.250362434336324 1.7286737542914037 -2.708796791316348
Ni 5.462870191686564 4.03269514613466 5.278379213685938 0.20863242313286007 0.6966941376064841 0.13716064034511863
Ni 8.645072105634393 7.095249854086184 6.9620350519211724 -1.6618518115708478 0.47322130702668175 -0.5343377147220281
Ni 7.194339249004691 3.2544338240403077 6.771207123996294 0.047446623517737645 0.5622213285061737 -0.978870652675082
Ni 0.7779985250533763 5.217835248586103 0.5091217397673119 0.88841487258567 0.7022973427258743 0.8050255124247362
Ni 7.647794611305041 0.8931082885230357 10.290804094286173 -0.34275221976912584 -0.22319515143838337 -1.053020496515619
Ni 4.0250069348295 1.1528030197497372 6.704087641445644 1.9204585097393052 -0.5770067143454644 0.42933746115953797
Ni 2.2439232872220747 6.171974888210501 12.292189010297061 0.8029125798467914 -0.20395918602690682 -1.1881795330496763
Ni 2.955562763715712 7.523394692865545 4.139628380393232 -0.262177960459484 0.1409476181913766 0.08471502095089281
Ni 2.2655061931405602 2.9998095846574095 3.992460173637656 -0.7036034631318075 -0.6316606542449186 -0.4693062882429917
Ni 8.839625787352972 8.07455091252747 10.036675628044408 2.0032688574683175 0.9775586187318778 0.35507500300053685
Ni 6.320818659078402 2.0511402238646825 8.523769837422575 -1.281716008946941 -0.8681548367850532 0.8465668262016323
Ni 6.252202538060348 8.041766515713466 0.14277986893303085 0.06425521043464417 0.5492701676621444 0.11353708738890768
Ni 7.970457190977605 3.222562693538917 4.22645670911271 -0.8856290823104167 0.35824105943334433 2.88523360355327
Ni 3.6743033517421155 5.01706576451535 0.20851547344875124 -1.3922950421487892 -1.1852908986479715 0.9446505551499472
P 1.2578752409202594 6.184192154902701 10.057311719091858 -1.488092803276405 -0.601209536843913 1.3147060907197166
Ni 4.310467890829096 4.325862951527429 2.740870627899615 0.26185014480642 -1.74916493226622 -0.8525754942895576
P 8.026324859795102 0.04335592033469959 5.618298799049285 1.6217076352517938 -0.3083364612934174 -0.8822874195316934
Ni 4.089979309641109 1.361959643426119 9.659710047042996 -0.22231480571595905 -1.5012103144949693 -0.6547640730316013
P 3.691916344913937 0.055005657246918645 11.385772195028693 -4.244876149774361 1.6649934425236228 0.5412239003189002
P 1.1394208725567556 5.038219994409548 3.3144876074254146 0.06811495050036656 -0.5096926624798384 0.8467946259417223
P 7.441312553258454 3.9350036078170922 9.279813626701618 0.6510912521657044 -1.0138618240382862 -0.0786317908712904
Ni 8.78643268416527 2.2970511571017327 11.621855264456746 2.060146801602284 2.3913406271098494 -1.4621079491768691
