# total energy = -340876.2409502991 ev
CRYSTAL
PRIMVEC
9.21336650004539 0.00000000000000 0.00000000000000

0.00000000000000 9.21336650004539 0.00000000000000

0.00000000000000 0.00000000000000 13.48469317417092

PRIMCOORD
 96 1
Ni 4.471320352613075 5.569894505284214 3.4185854610922894 1.2445067468864954 -0.9500593848703444 0.47557335219862606
Ni 6.921983643948787 6.7282081247812515 7.5859485687783845 -0.39897581814854516 1.6025290054408143 0.1490692188572465
Ni 3.919900381988456 8.575607833550746 9.806810236199086 0.3636601735663866 -1.2138188308843354 1.2988822363135824
Ni 3.181965024808703 0.950312662825001 8.381046414241284 -0.9313306981125895 -0.25010997355135633 -1.715410204413278
Ni 7.201314482201037 3.1478663562826927 8.495086697790162 -0.10504087699243846 -0.563305819819604 0.7779492250332343
Ni 5.663483879747119 0.9825318046340953 8.404186704938374 0.29537990113274937 -1.7330942519566026 0.08449004942428029
Ni 8.741927521265293 7.744470063290982 5.42621297980562 0.5715981417353833 -1.2040756354546425 0.2787260946261522
Ni 8.760004145866219 8.253794163476439 7.800841123412447 0.3562158014731994 0.3621555639964021 0.034575166871708196
Ni 7.235754045278645 7.12475140858549 1.3306183099336857 0.7035445848694142 -1.16846868488431 0.28546624156346323
Ni 5.386179982071935 3.0287006770837146 2.6757541210822953 0.148586365683557 0.048715462927832236 1.2903914252337518
Ni 9.030536219340751 7.657127351151944 10.033798098058478 -0.6294150527438516 1.7304688985186132 0.7994133084442813
Ni 2.3253522968417197 2.411488058000777 11.87169421953141 0.34844644194042573 1.953192766747533 0.6553348579334067
Ni 8.240333435371467 5.610903198504769 9.212513101676508 -0.14408384982751316 -0.8030920428474492 -0.9555384057070446
Ni 7.632223622152807 4.1837711916574465 11.07728369119146 0.16704405816811232 -0.36435128609614026 0.6498064719160099
Ni 2.7169203628658853 0.24212542262357323 11.774092424062538 -0.0693069139259387 -1.4236360183539158 -0.46856452498096074
Ni 0.2495725865710399 3.8711708878425313 8.008923157707565 0.5549618187302829 0.9494109526530683 -0.5271499387243372
Ni 7.295456658639506 6.187024204070817 12.53206685285647 0.14539305555723994 0.9841239306542212 -0.2223204621429139
Ni 7.3115431961284045 2.6538548708203464 1.3745623816444823 -0.0746334683451747 0.01061762761484623 -0.5785925707753454
Ni 7.041563924629437 2.2780969412972976 4.739734273184571 0.02724238065572082 0.5783853398605457 -0.8362729004747921
Ni 5.038384619146141 2.711364703011472 0.3442491382525534 -0.8734302262513797 0.4121576069461418 -0.1601337042015242
Ni 7.290794695312254 4.604306081201141 6.6210115296898495 0.983417905726132 -0.2677202304339519 -0.9179043974043546
Ni 8.049533833505714 0.8251315767952662 9.482988973616855 -1.39397191563058 -0.8784065964200485 -1.3817069822202976
Ni 9.176770768609822 0.6965719493582122 4.934076414377059 0.41316676493694654 0.8140881368476367 1.483192280650994
Ni 5.478239937735782 0.5841679596570022 4.1682264001046 -1.2903392318395777 0.4271911042404965 0.29340992189057213
P 1.7997113250108803 8.474067324005985 8.869974885538323 -0.4216678604294222 -0.5786162249244293 0.6417622614552947
P 6.817301376509574 8.469801535427885 13.103899036428771 0.0030470143564399134 -0.48591458622363415 -0.4863156783167948
P 5.404754128450869 4.223204399247645 10.344512425800097 1.2136439958693679 -2.22745362651348 -1.5079772009051575
P 8.078906045140656 2.478460017340298 6.540278486505301 1.2342737563045776 -0.8153752310901764 1.379691751562482
P 2.2813768996856414 4.212959135967201 4.524842639887136 1.4458976579655936 0.6132631255743374 -0.2971195095316754
P 0.15072422264727364 5.773482259518002 11.045258030073812 -0.737885010022497 0.8366917331797655 0.9786132852486371
P 0.900129299483344 9.229121115695689 13.293237398405784 1.1068380565567066 -0.40735684312338877 0.8313590081129424
P 5.856282782091159 4.357562919408361 5.091887558351057 -0.6957389727820663 -0.20279344785357975 -1.576958870281194
Ni 2.483177260865107 7.853759013859891 13.365555874185631 2.5443063528080248 -0.47258238789110224 0.8202207321079358
Ni 4.112653217501199 7.864142477634227 7.5285041514877005 0.060395727479237916 0.7380125367392968 0.055350708856162736
Ni 5.002599904594662 6.9978925685599185 13.63154115141115 0.11338513519207569 -0.967340026327663 -0.6147106566541413
Ni 2.7888398998867 8.893432116034736 2.639412919208749 1.3317062248221387 -1.5534900977352923 -0.704182218453413
Ni 2.400127977402946 6.468031874982277 3.6039325928057324 -1.945112303732244 -0.3100806976780337 -1.1894781972564417
Ni 1.7908849201343824 6.07496203025783 1.1265763367433097 -1.686119940089593 -0.9154078562347461 0.7094779196347135
Ni 1.58009231348575 6.173360781908139 8.179653283850483 -3.291684647032937 0.9962513100453746 0.9416559912979975
Ni 4.4709426045964396 2.8338840475288687 8.82322350112829 0.43370319432740145 1.577077398136929 2.543384098104071
Ni 5.481013160979859 5.009555996120503 8.189874592378652 -0.874230867775804 -0.7180456066990666 0.5479005410081274
Ni 0.2642890964971669 1.8523012196194903 0.6644688959639863 -0.13602601252004315 0.3971655044126838 0.4403240420780288
Ni 5.32123496330948 7.924397892970651 2.61348189987169 0.29805667663396407 -0.15016862256901234 0.07817644850142666
Ni 0.4497854847440124 7.036671627145701 12.758150883485815 -1.4383046761096843 0.5884653498043673 -0.041388333138799686
Ni 8.627469872224864 0.29431361446327403 11.936191468693657 -1.1184129058784995 -0.5277793447782201 -0.9303971305547267
Ni 3.727276533603345 8.032212704938058 5.053968106837278 0.5151979085687837 0.5998674209937217 -0.57523445293639
Ni 6.0297612553892534 4.989691978465254 1.5973019603216685 0.6376618661336759 0.6471762333820145 0.09889594043696516
Ni 3.795547577585441 4.7436766726069655 1.0355326153778743 -0.7549669052054482 0.14754866844766204 -0.3679749988916566
Ni 0.7164414950332172 1.650086256958352 7.516354485401441 -0.2043633634438609 -1.3255260641533557 -0.8734677643575345
Ni 4.2727538829906555 2.8909332114070243 4.808709218348885 -1.2777336272604252 0.4550883448713969 -0.8701422995287273
Ni 7.962882123836131 3.9622910801479194 3.162228151607833 -1.532443304367322 -0.9330214555514513 1.138534616329039
Ni 2.477603174278175 1.265465069093768 5.288183854527163 0.02373925259846879 -0.43980776456324255 0.8556183948809393
Ni 1.9861069378046423 6.944989419498489 10.502768575364422 0.9561392725158373 0.9886704123743232 0.004495830987824515
Ni 2.691850793274079 1.1852074356082034 0.7056590924998506 -1.0364384237872215 1.030461123157864 -0.6403926348012776
Ni 5.816370479455472 9.021820374859367 11.182275527736989 0.7199507941415795 -1.0377399162074643 -0.021025196101415403
Ni 5.565435236014668 2.631761218530324 6.701554777529457 0.8123361871535365 -0.30458316489857223 -0.21128811558815225
P 3.9080519929788777 7.088616586116153 11.633986606029215 -0.06175198439681623 -0.021741505442149655 -0.28573903560887565
P 6.006856826868405 7.631044311271606 4.71921057850515 0.36446698573839814 0.7873628050376504 0.24268231362871753
P 6.425687243654111 8.27621028358554 9.020922071649075 0.5229197026930735 -0.2160369431270473 0.35926435849153615
P 1.930697753120658 3.4512256537394377 0.37449017032575616 1.0456776829973025 0.42626499288180136 0.1181373051650804
P 8.94370945571224 6.08314349949617 6.8522605734442115 0.5950890257684719 -0.03371204754046452 0.49315815515992495
P 1.5981689380866773 8.358863392298545 4.303720928325099 -1.5629216754618374 0.9849068315668327 1.7633687345704274
P 8.76664698293924 2.23789902430757 11.028253841305478 -0.8049882314288975 1.0120772213340379 -0.1520468134283317
P 8.456276313759098 1.5615826606706311 2.914568259872243 0.050989346563673474 0.3224273921688447 0.20162462435645923
Ni 7.217852474636646 6.060017950185097 3.6778551156513397 -2.9100051540709946 1.1691690533854444 0.43773828362872347
Ni 7.62036601977697 8.812041238499265 3.6633330077532853 -0.657204564152294 -1.0688813748072752 -0.0425332453765203
Ni 0.6631458565691375 4.075265377220585 2.1185933019414493 1.4096487029358884 -0.5393593363063357 -0.5371682421922879
Ni 0.6007815016959381 3.0098317029844797 4.7964784746395415 -1.0942504496996832 0.3453505766239214 0.3445316802670518
Ni 1.7194536915253151 8.480019158609553 6.745461074438589 0.1791038175461238 0.24661018792821401 -0.9097902529376525
Ni 1.4020992907205536 1.3376702204686244 3.2230437396128284 -1.0857647808261752 0.7622672955216033 -1.5245459038971163
Ni 1.0286170626635747 1.0116644687462932 9.954211197636598 1.9821055931271412 0.3558363066465936 0.2648071705522149
Ni 7.264398400979095 0.17860386894819422 1.5071980023146911 -0.3961473475608145 2.0415494982160713 -1.0490913366645416
Ni 6.04542397803022 6.18181865213426 10.474707425748193 0.24060306250218566 2.3660016341244288 -0.9410443258559278
Ni 3.1580931928306177 3.102693221512893 7.017528094731936 -1.0900772921586 1.0843077366646745 -2.158800544121456
Ni 6.435656105946774 2.1215342084514472 10.576111577472314 -1.437034551148009 0.7700554241074544 -0.10969585926594656
Ni 9.058544852769302 5.416593304094189 4.6991595295148345 2.2609232190258353 -0.4581448723095336 0.8953558226798775
Ni 4.621479795908647 4.992833736359707 12.069069400896488 0.16525354192659283 0.35382004754751323 2.103506399534842
Ni 0.26144585166951856 8.377234844619773 1.803469457108086 0.45838809866859126 -0.48614238596372406 0.08308031356094724
Ni 3.5082656042513345 5.177488022930444 9.820065506236473 -0.6497123695403069 -0.3070786776269163 -0.26682960029888236
Ni 2.1998109681912426 5.2853581150954065 12.160671452257242 0.8015473240681487 -0.4838998697864505 1.440521738365661
Ni 2.9238065022205357 3.0069755594440686 2.507006711358399 -0.059545463663800674 0.5576504213060396 0.3305096549563469
Ni 0.09709321765135207 4.50776842953523 13.137826336342357 -0.42483443108286184 -0.19796260212383968 -0.1751983118441305
Ni 6.638479150781032 1.4755666732729462 12.825776991829752 0.6044995204490945 -0.4065808841893127 0.20415330431558393
Ni 2.373169667727965 6.231045668058194 5.838184045411209 -0.8120019437425693 -1.4023822511814623 0.5276415336487751
Ni 6.938945451232328 0.10513464372254952 6.3856358191879075 -0.12507157039106848 0.035813153043867355 -0.4327068918524032
Ni 5.095019181542625 6.240452515009032 6.146471572480103 -0.10768217127002744 -0.6763464271880675 -1.181304403196398
Ni 1.086983737916824 4.031916488970145 10.479682643528264 -0.1418773290944976 -1.8786472301304742 -1.515181946183713
Ni 4.764323826394263 9.277214887569716 0.5217271338438499 0.7451807723529618 0.6639681081283727 -0.5623966777417734
P 4.356595515951124 0.5991562638877813 6.188031225002969 0.5985764700964401 1.0840573112167653 1.0499012341603466
P 4.291890044711413 1.2415655970169048 2.255597900891862 0.583874387999575 0.35202284643777443 0.5174843906101152
P 3.571183682436723 7.012210139727014 1.8136511481613404 0.19434994507191689 -1.133863693215931 -0.5802234215105491
P 4.362667124316063 1.4796389811595976 11.257601246263901 0.4919669630653011 0.5953435649814393 -0.041696608407837864
P 3.39041743642745 5.648742493732091 7.656446483385375 3.5993184258323754 -1.2255859987225926 -0.7778222125370668
P 8.830652238343239 5.968925397978487 2.3058826112623723 1.3484587616901293 0.6374371517173796 -0.3331859162369294
P 7.144523292578144 4.304235955498998 13.467486109123163 -0.283242494439267 -1.2518187071668765 -0.9305555105094618
P 2.1809419940920076 2.8156968625328282 8.85657128030416 -1.2506151737770785 0.5383311521521374 1.1799962259079355
