# total energy = -381166.56446273794 ev
CRYSTAL
PRIMVEC
9.24096986346256 0.00000000000000 0.00000000000000
0.00000000000000 9.24096986346256 0.00000000000000
0.00000000000000 0.00000000000000 13.52509348672573
PRIMCOORD
 96 1
Ni 0.8583761203875675 3.222991494710439 12.948478205129279 1.9543855015040532 0.8060518968067214 0.12522249414663594
Ni 3.7098427439716315 4.615041933884701 9.585152420000393 -0.04247616688633975 0.28586759076693996 0.4358778333812171
Ni 4.505120598945025 2.335812195771087 10.151894624869321 0.4281655523386239 0.43468766972785783 -0.5063661692097666
Ni 1.5048364747302727 7.531464257798691 12.863581416218745 -0.9929842092583285 1.0370194931016719 -0.6386833654196549
Ni 8.614311849803423 7.126229253193843 2.676345626713587 0.24040920132382468 0.17043225791405486 0.013611934356479782
Ni 1.919173834519281 8.951764341437904 9.547647020253763 0.5241330062748843 0.3349990581862682 -0.41486343591307906
Ni 2.8749303698257904 8.384239426432838 6.408770528414691 0.43014607310376246 -0.48597732114076947 0.08803868600748709
Ni 0.8110503421087477 8.901225477983925 3.476219015933764 -1.8570335085154404 1.5689108031657366 1.495278779501883
Ni 6.6849452256718305 5.838213651241176 12.697614523962915 -1.6031329575734004 -1.556750770764435 0.609883153358511
Ni 7.76422580336074 6.6047890542328425 6.7019134942902605 0.9920079613879884 -2.0841971576832687 -1.116550141638148
Ni 8.345113160595547 7.820152152167374 0.07879590069471451 -0.24005258931535434 -0.24042154261899887 -0.3241479744043772
Ni 5.311506099534013 8.36286506344709 2.9450212770347397 -1.6320655814473504 -2.13216417248085 0.9336596033560823
Ni 1.1234708949383023 6.2686580212697685 6.654751281175664 -0.5145577038816235 0.9622515560611621 0.28265782558039065
Ni 0.4602834612871224 1.8561966258085711 10.881505224843568 -0.6992081622775894 0.6091681295693574 0.22167614369069566
Ni 8.497626125021307 1.7654410620891463 0.21673400766214246 -0.687968327697712 0.25405353158013666 -0.2121736035168991
Ni 7.206634930815543 9.032853850819633 2.053907173184306 0.8388383472091231 1.525982636343643 -2.7034213859370473
Ni 2.695784930637849 3.831906713136674 7.263421613904051 2.666190269499731 -0.7248790846811323 -1.1182223871342483
Ni 4.264245481959939 7.348696358476547 9.58593697833048 -1.654634724997118 -0.7557397788157307 0.7695221773118037
Ni 5.227903046385694 5.3551974044179795 6.682911288234232 0.9048501353235578 0.39640291521504634 0.46692081872995067
Ni 8.237668405543541 4.721507146145316 0.3694234746097473 0.8300770560767252 -0.23211713651836155 3.736766001290294
Ni -0.20473183617667365 5.840366797188292 12.119809030133101 1.6174378042318467 0.40583217894874624 0.10019563308499517
Ni 1.3095285794843667 2.1160619355890358 4.113589952449932 0.37566799666054007 0.20587491499238095 -0.38221531086075466
Ni 6.923029569798422 8.505832106141646 7.317277985491141 0.08647288418226398 1.5836419387283243 1.1256014532071388
Ni 7.001864282566003 4.32735206424687 8.043426918204489 -1.775684575823303 2.6895554265882327 -2.001636721181533
P 0.4633616283042225 0.024968176113788192 12.205734338974597 -1.2123039369017057 1.5160725763187826 0.7122516257251088
Ni 1.650585049313591 7.01979176384242 4.148592897593648 0.2360614658780902 -0.6753041019664822 1.2439254204617287
P 3.2698247293026435 8.334319707950776 4.174384444110389 1.1844573470030826 0.4700971595754033 -0.4557167224840152
Ni 5.535719748095707 0.7728149057534385 6.420835538494325 -1.0276521929541593 0.5062381282723346 -0.8271308289642078
P 4.9192546573999705 5.892495107435851 11.475162678148417 -0.4655118541975661 -0.5591660866196176 -1.5177319662990765
P 1.1418142198525736 4.189929603390382 10.901292913326657 0.0071242697496070855 0.14361333794899783 -0.24643201047913685
P 4.89023801244742 7.854436149866087 7.617224153282018 -0.9996166269731817 0.028420203013905895 -0.40386991301605285
Ni -0.04387335198765024 5.445278377347106 4.85177524823675 -0.3099418581073243 -0.3409439629157935 0.7430534415973139
Ni 1.6127710011779748 4.972732149228126 3.144421997774112 -0.5679029522719832 -1.3711708585756643 -0.6196304625532619
Ni 7.88453398827706 4.922378105168748 3.084627379038453 -0.6242700182078023 -0.31516839661358625 -1.2182997494738246
Ni 6.23737733873334 1.491917599047577 8.537052722374828 1.3705018575330976 -0.8867241151468083 1.202171219343078
Ni 4.931933267869684 0.7867835555974749 11.972547708804964 -0.39207446304302157 0.771447933579607 -0.7076514079489361
Ni 2.5888853927999196 0.4813630373384797 2.4019211691233315 1.0024975480654026 0.6160617713653971 0.061136205189688264
Ni 7.049196529523635 2.553335382248181 6.682045409370521 0.9653471642673503 0.463014541697009 -1.8592297448358108
Ni 6.410811858628073 6.591897901459338 8.840690657572884 0.4372019515092793 0.23634660121867684 0.10770788230164031
Ni 8.414771590421127 9.723440759720594 9.536624391559688 -1.064941416322921 -0.45583267923658916 0.4758134932338902
Ni 7.258005481545233 7.176269104282397 11.177691242051264 -0.4161775267388123 1.8510986310882442 -1.744273151391557
Ni 8.19288666623142 3.6238462796632143 12.037333375291857 -2.5898724714735977 -0.7170711586009392 -3.011792814233458
Ni 0.4635279657593645 9.452865166022928 1.3224483792640356 -0.09309707436700096 -0.4344187323371873 -0.14303638239960528
Ni 3.0648785026282317 3.541860396217665 12.02313185301062 -0.25566869858605645 1.2973300613351142 -2.213218199640388
Ni 3.8419054423846544 5.607411191261912 2.945224578368802 0.4092674298825403 -0.4028648687903062 -0.206516919451754
Ni 3.2221967713136492 5.61304818279728 5.561829183971164 -0.11981263598497431 0.23044874767700313 -1.632130887467647
Ni 0.3288094126459074 3.519820683411349 6.789718416374861 -0.6369080186867869 0.08611652928410976 -0.4719370409976194
Ni 2.6568896890438096 1.319638200369109 11.230574539525772 1.3218514435152462 -1.079122078698677 -2.028870617196822
Ni 8.320652313719942 3.13937920059239 9.070942355756234 2.3574064362562495 -2.7966274750780866 1.550088271142595
Ni 7.105649613604885 2.865319761306474 1.9333984592248414 -0.4160096337023803 0.7168474726259074 -0.04696762699879008
Ni 2.3444802253779313 2.4213096477140783 9.026038635643676 -0.8970350101545133 -0.5785959132094551 0.7344567010672383
Ni 5.792008802590618 8.89581026972208 10.16030667961464 1.1337539071109441 0.849395553899679 -0.3219409394507294
Ni 0.20514860391150172 7.805311154780815 10.734920342499676 -1.0942620196639088 0.2636409181582556 -0.7661666305760095
Ni 2.001492392875114 1.1642605353270143 13.25578203301927 -0.8858957057082419 0.24271728063171102 2.278663830838708
Ni 6.485811568957658 1.446424305066238 4.370796635239044 -0.07674820069533234 0.8634651446188678 -0.39571514511940237
Ni 8.613369270890953 5.230296457545792 9.897541553532866 -0.8242504220926192 0.14620038194988372 1.0867849945605734
P 8.637580611583845 6.966027801952631 8.815939644247752 -0.5999926337176763 0.5468715855229809 -0.5163721313825429
Ni 6.206272234621785 4.564863468250196 10.12814440856596 -0.7030702163361569 -0.3615649816002547 2.009425878208649
P -0.30461840208642155 8.120686969730059 5.425645013058512 2.787280743755864 -2.2920309961742333 1.632394425541679
Ni 7.467341168841449 8.543063973184264 4.180416949150207 -2.2784026067575214 -0.4657347688416495 0.48857799198841023
P 1.9702948790662578 3.8923056912926826 5.267888722407886 -0.8693007774640383 -0.27205356770198313 -1.0669759302544464
P 8.383795859885794 1.5891418415780798 2.8836714030935027 2.0443196047620407 -1.797044015335686 0.6570017041128685
P 0.6277196677300392 6.034510330248204 1.4214736867949371 -0.3289975891871947 -1.6323890262250402 -1.085230248478944
Ni 4.123163597090327 7.884792735429504 11.956452711826028 -0.17461492853683477 0.9925026416362197 -1.930032783691302
Ni 5.928996937869791 6.200690688904799 3.873005001914372 0.850095151069865 -1.3883926217705895 -0.28436041009379415
Ni 5.419671650224967 3.155791162833068 12.35653864809726 1.1360401320419595 2.208459087688848 -1.6177509645968915
Ni 1.5560222060653603 1.3064420955945095 6.524369515156548 1.5634137846069074 -0.1348222220199291 -0.19357347191720858
Ni 1.2842083224238614 4.793697601676946 8.626439698477222 -0.3481093703159811 0.5852445288742243 1.7270657863743355
Ni 3.166409037052966 3.02661164697584 2.2004781940736042 0.6500237301331386 -1.2368844544545474 1.230337397364649
Ni 6.931734563284187 2.044527588908243 10.62533999934304 -0.9530580624873521 1.5159967287755245 0.13209608133801765
Ni 4.817419170974142 1.2315809998108764 2.785695869723942 -0.23153066788727222 1.7689228316194374 -1.2415533206851261
Ni 3.110917013823647 6.189804826562727 7.803951808133516 0.7668472015828018 0.9296224571722311 0.7582869707176166
Ni 8.540910827237148 0.9576324521617219 5.674858257031076 0.398029909295508 0.08642197633967053 0.700800960686006
Ni 0.034492843614614084 8.61150259500547 7.689705699360148 1.7787719564993754 -0.5518980922032946 -1.956629046122592
Ni 7.317203133636327 0.5955971328511986 12.151349383918944 1.8531765966631957 -2.440144793096746 -0.3653452745782934
Ni 5.577673750670414 4.473534964407504 1.0260553643343862 -2.0169599818021653 -1.8565683959535637 -0.239206182154659
Ni 6.652758928101852 6.223395751531682 1.42454353693928 1.478429569155028 3.086656396311568 1.5690277883595751
Ni 5.372283957448955 7.649563850949516 5.475931598038859 -1.0078235882640063 0.9446397565166699 0.38868960573118866
Ni 4.52463752701502 7.01816535316992 1.0532312081166981 -0.29650758697928936 -0.8563789271960477 0.9995047839856657
Ni 3.261396964908782 6.174954588206438 12.912866280080348 0.23604372526627737 -2.272013672512042 -0.3720059744279206
Ni 6.0556074641420485 1.58584281538443 0.24296080385317184 -0.3570961471956237 -0.7794726036562962 2.6033327107435613
Ni 2.050293954019833 6.678190076799118 10.74982510257737 1.9085915830983906 -1.9685036860729905 -0.8284287218400248
Ni 4.077097362985722 0.6893680249935589 8.36225423534793 -1.3189864632626251 -0.736359574516906 -0.03812868855092143
Ni 4.823231740934382 3.371022588817094 5.313170398182406 0.03699920293216854 -0.15469222147097875 -0.07581591868905008
Ni 8.359639965011281 3.0991070545085644 4.505681525807643 -0.19603581741477205 0.2320675142273487 0.3000464533704833
Ni 0.5457125300541109 3.119880754461855 1.736297815851294 -0.03429825906123771 0.08274324193650265 1.2059725953670393
Ni 2.2131198406643966 7.424010261776956 1.4094909213459017 0.4720511979779806 0.09502360196575248 2.0349345640027146
Ni 2.699813993440178 4.463989042676299 0.6185590944365796 -1.1888091962138752 0.6385213859204939 0.9864237824319915
P 7.046858564181916 4.773986613242618 5.417192298046378 0.1721839504978389 0.07963966331051446 0.0912700484605912
Ni 3.7194810754001377 1.0432223138020145 5.013778688575335 -0.7233765319936768 0.35918825383796205 -0.6966049203267873
P 4.99384776506143 2.892580622010303 7.634617506508034 -1.200535740622184 1.0215273110033438 -0.26246026758659313
Ni 3.789185710074369 9.161414221704943 0.37162744589037894 0.13470446549514217 0.6101934855100781 1.1785795480660668
P 5.3296461231142205 3.3879890092415788 3.1272319458821585 -0.8509924660731537 0.23898918104784644 -0.15109679081023655
P 9.262686008977235 1.574402494858552 7.888767276510424 -0.34011375370501423 0.507144442136688 0.030869178775030703
P 3.8610434906957156 2.4775132256126158 0.09788312367225976 0.06999314135968591 -1.0859049059484653 1.742160990144561
Ni 5.906763164699143 8.311642368233082 13.396821409428124 2.0371158879247497 0.00842859038332742 0.11034711969670027
