# total energy = -340892.27349508024 ev
CRYSTAL
PRIMVEC
9.04753398738957 0.00000000000000 0.00000000000000
0.00000000000000 9.04753398738957 0.00000000000000
0.00000000000000 0.00000000000000 13.24198052929930
PRIMCOORD
 96 1
Ni 6.307705304517288 2.0231461676124245 11.493535422095585 -0.05300611988338614 0.01931541249916028 -0.1614976744285864
Ni 4.550176633154034 0.35260139061149476 6.106989386972179 0.490557227201968 -0.14304512415035367 -1.057152516406121
Ni 2.8154206042752516 1.5595505375351901 4.726830634653273 -1.129672537952719 -0.32432486630187374 0.8650839111692133
Ni 3.6703673073226417 4.465518859722483 4.90120103863043 -1.2060695259562197 -0.14309114689694066 0.4871302037982901
Ni 5.136031586986804 4.584946305409827 2.8466816429372903 0.42473981448652653 0.11622646129561275 -0.49110435795468976
Ni 7.329425197440043 5.9915844747963956 2.4853213348886807 0.19034030969189156 0.8119078413668662 0.10518614432105111
Ni 4.869292196550874 4.156437011270131 11.433880508221382 0.15542987096795166 1.177951941784397 0.05483828799611846
Ni 5.688980660519206 7.924020068889024 12.323013317596773 -1.1248486342015145 0.33523045747078395 0.30348967472407734
Ni 1.5460154270239579 6.740665985268967 0.3484693819413879 0.7152220212073425 -1.1165568265063672 1.3310917311665915
Ni 2.316820066064356 1.2248913111314659 0.3113744935081978 1.5922998715136383 2.568109882985526 -0.035045164529591256
Ni 0.48938833933219505 0.1731797485337891 4.840632323846041 0.8796137293542722 -0.33873769929309405 0.38923030872600706
Ni 8.929173927489542 2.168377179595246 1.2673685774009744 -0.6737683820482461 0.6201570244806932 0.2552784051261733
Ni 6.913283881956 0.6350183475540173 4.880093142358568 -0.108115145042388 0.21528360990079054 -0.005935391647828488
Ni 0.6909366299836104 7.616973915533616 2.7406924991499024 1.4885265483797139 -0.8768392519329287 -0.10699234429185445
Ni 8.08930946322706 3.8880962073579393 3.651701340413736 -0.9449606301911985 -0.5254275567165919 0.13988343859292038
Ni 7.718288198625046 3.7788472371553126 12.807789224215984 -0.2900281499025328 0.030440061657412087 -0.5426948284374717
Ni 8.042144669714324 8.943830932187534 7.033914649633981 0.14324052799061138 -0.5457228166305182 -0.8121358982172723
Ni 6.834136056586842 0.96113760683772 0.4116537387370041 -0.3869312282791852 -0.33463087621357207 -0.32954703393276147
Ni 1.8568434494927983 6.378936537842778 9.116268782952659 0.7632612840037565 -0.5363472889528892 0.6878474858491315
Ni 0.2993412736018215 4.61130177126492 1.3176701508697566 -0.3711960769321156 0.9232512635385648 1.0916793465383974
Ni 6.486050290077055 1.8859312705446778 7.003166606136372 -0.062322769298621704 0.5736712222143281 -0.12486588213816559
Ni 3.171305344889772 4.606968002591871 0.32432694284501606 1.0166874664125394 0.6050955021618803 -0.8116790131855117
Ni 6.0130904625538815 5.847448214399041 4.916588179303192 0.6442526319773162 -0.39997392039575635 -0.013553827425034722
Ni 5.760058085770704 2.829326663670816 9.180201370790575 -1.532702985786612 -0.10868335884103217 0.30424197950906956
P 0.35850219213250123 5.479747394688486 12.372962037248753 -0.7950267493408114 -0.5069850337406882 0.020782226852673884
P 4.267205967145142 6.214624277151274 12.395976248884729 -1.1023849058813597 -0.8078902355670409 -0.11708958062685641
P 2.35297401098607 8.487753802668344 1.3633810057065872 0.7597072481039109 -1.0912281179335916 1.5622380191312513
P 6.288823101551419 7.839018489174434 5.951647756007873 0.5080178458805766 -0.2522241916808817 -1.1440894847089975
P 4.530407771879273 1.1192794495020444 12.537652484851598 1.0674068471442777 -1.3901664258415607 0.5760461502044079
P 4.006021762440427 5.789281619829047 8.300616423796534 -0.6124066911113131 1.9409669141053028 -0.7613126449178179
P 4.607773233096885 0.9134480563666602 3.706523061751109 1.1169255226996957 -0.6468733574296149 0.0046398127648565254
P 9.466525052812475 5.610239974169437 3.402592879024089 -0.12049912052903765 -0.16156837976552174 0.9390501782440343
Ni 1.3050524602822133 0.9597804767730911 2.6699670229618313 1.4571215517058713 0.10509461304850932 0.006339054844150374
Ni 1.9198142844915795 6.535938391252815 4.997033421014136 -0.33508724702470033 -0.12104676550239153 -0.7508891355916487
Ni 5.916480897019832 5.593348228631689 9.190689271930026 0.006182217551311933 1.2270335298023964 1.448415796401757
Ni 8.551267489692977 2.4890579663332923 10.278968251742441 -0.054624372213099466 -0.43866130966362515 -0.4515618197753771
Ni 2.348613099711729 5.200640025596905 6.9869452828505505 -0.6306743790722492 -0.4297064144631825 -0.025036631253653657
Ni 0.6855008716980835 9.161894590972107 9.04171710473571 0.2411820749341072 2.112045033133472 -0.8542330844976384
Ni 1.1844126450704677 0.9434225357274307 11.358626741384333 0.4047888252858964 0.0563477826621094 -0.22159104017605707
Ni 3.9570655572423803 6.881092756823002 1.5134524482532519 0.6229996361358109 0.0358432349508544 -0.25320609597817684
Ni 5.596849624198431 8.111774489563551 8.007385854499049 -0.37259732815501634 -0.520639134189013 0.9929405005045868
Ni 5.016314620219007 2.6606444441712074 5.018472457021766 1.8526274090279446 -0.3323739618585953 0.038467045726946654
Ni 0.8436816187575938 7.363525352197286 7.24336324676829 0.34877862846886387 1.4380290538507945 -1.9195539956471652
Ni 5.337212547767393 4.405814184412574 7.196208405542693 -0.942832270994286 -0.14943225862362008 -0.7713574307483296
Ni 8.616536398267861 7.410283006690633 9.411525999813323 -2.515996450119738 -1.9594220354866967 0.3620869155419958
Ni 4.6738835623118415 0.2521457184742867 10.17655469329866 -0.5469471759559226 0.49314452831317007 0.9565514203525914
Ni 8.50308937239865 7.1738799969660425 4.802376636830905 -1.4372854908165507 -0.2336286880668815 0.17591590673644542
Ni 7.362168222132657 6.692189299360423 7.439304780746034 0.10106158062971628 -1.5961015046479157 -0.7825684689728006
Ni 2.518661496809731 5.261231359215703 2.5694073041863352 -0.8945137863945561 -0.14630502584854804 0.5357086269276258
Ni 2.387707493106806 5.346269129065351 11.232549358380306 -0.13359220626756993 -0.8232392072192853 0.8182805776624295
Ni 1.4560105611377685 3.2808890738416743 3.679244747452068 -0.5258949832713136 0.13089023395537458 -0.24845881110117854
Ni 3.819886850309691 2.644060314781442 2.732310863870754 -0.5764649829093814 0.29753191447874566 -0.7127774163215919
Ni 0.9514115080412129 3.4180406381730712 8.214622329628012 -0.2235646189626601 -0.08694956670836639 -0.43825173293003233
Ni 3.4434461129829246 2.661078725791888 6.892345174565528 0.31011669312229173 0.3968196910374908 0.7205213219330688
Ni 4.111841717346426 6.804776809522036 6.209297089270918 0.376823450421222 0.14261189326767695 0.10569830807077925
Ni 0.7040836012963588 7.389419393830406 11.450737873130826 -0.06470669614976597 0.15495113155932025 -0.01294344753454545
P 0.10554310037281364 5.600369114832703 8.070470688423258 0.19062621636342655 -1.0105682408886791 0.18970833253484748
P 8.504609358071034 1.6944040282904824 8.001519433606346 0.05263099593215452 1.3037837873802578 1.0160647452268758
P 1.7419669132888436 3.179194794332148 10.360432245755232 -1.5056236130713168 1.1391709643614574 -0.420300033547618
P 4.012309798406541 6.2627752518443085 3.8604740867758593 0.548425560273662 0.885965639714229 -0.46391545624472363
P 6.888267451098006 4.091122865026424 10.60920956740911 0.021152979928531313 -0.4950890536340506 -0.5376521238072418
P 6.462562892425211 7.828849061223481 10.18623464967297 -0.7184870651118593 -1.30312815607413 -1.054266710217894
P 2.5315542324237055 8.537261907426005 6.019830875208204 -1.7525341058487691 -0.10481950501025174 -1.521857815541992
P 6.922249987916314 3.9708992363678313 1.669999210714949 -0.13737892700351179 -0.6319902696701954 -0.3538172193340358
Ni 5.119592218137266 2.9078140190751878 0.48060408880054034 0.184982644924404 0.0973746186964323 0.4084109954195159
Ni 1.4138400062628664 1.196445864976844 6.934547395808605 0.8523379243574547 -0.28112107722089 0.35106459628956316
Ni 6.913338167158585 0.7176711875034234 9.248410727838824 0.9329780039080254 -0.06658694389161435 0.03309446856112365
Ni 2.6435174627555904 1.7033791817845616 9.114481895034231 0.49128844894103774 -1.6798371924046747 -0.25985831118737185
Ni 6.351459177800925 1.8037072836956947 2.7184192805292127 0.3951438459969646 1.0405156791803887 -0.44474094019880184
Ni 3.9887952581534045 6.938716499367145 10.234633526791145 0.7142360031449893 0.10831954774371022 0.23742954987021045
Ni 7.925132915542019 7.040935535834994 0.05526324098506549 1.2556002856964956 0.4902759485161234 1.2539403814955694
Ni 7.473941454255494 4.14523616447006 8.299357911849935 1.7239789199188955 -0.6462367522868806 -0.9277874608460216
Ni 2.9991488724247133 8.257358355363177 12.375107207504243 1.2362565910625611 -0.1589545962917585 -0.7756498874760964
Ni 0.04925929757914721 4.816309838827762 10.184486666149729 0.5169665704334322 0.38106885596113726 0.46099288328128996
Ni 8.722718254524429 2.2501759323573123 5.825994702337388 -0.8386851094607105 2.163268607195139 -0.8942386783562987
Ni 3.278491477394163 2.4232733483338476 11.509796554529968 0.4522035671244341 0.4412678940485368 0.3017701209298093
Ni 1.0993296375519994 3.4212887027944165 12.670389757459448 0.7848894037964934 -0.7952342373659271 -1.4741186004845
Ni 3.1721739081311346 8.32501581285181 8.011159580832093 -0.3517526234955233 0.19168679641745698 1.597813859353332
Ni 5.88764640691335 7.985416633012836 3.574540353459195 -0.9599655882404627 -0.3704460861399685 -0.7045462866610511
Ni 3.0541307351097124 8.33912996552395 3.7639803296739913 0.5786509348171066 -0.3145826993134453 -0.7734811619595517
Ni 3.460925948215345 3.969867817518713 9.119778321299789 -0.025913634541968274 -0.20659893764259904 0.7342926646855482
Ni 7.317301502196025 6.079752691328453 11.330129724287254 -0.28549915168392764 -0.14037194819356472 -0.6311412914063389
Ni 0.47778668678637076 -0.13210213573760135 0.4174016369373958 -1.6627226442115752 -0.15834910149727568 -0.984145527920776
Ni 4.656774675963752 0.18413088340196795 1.395771176582397 -0.4247107610208041 0.687764696327338 0.1299785207743826
Ni 6.050918201221972 5.425136480887818 0.1734991264756651 -0.9556199096772574 0.6856224531733547 0.7872309074454765
Ni 7.73432947598896 8.857562697745955 11.53492969857352 1.489150555116958 0.6243268395876668 0.22255211853774573
Ni -0.35855919159521565 5.064320834371813 5.92427625211106 0.5704925673760304 -1.0540173132112494 -0.1194727361470523
Ni 7.985660916424469 8.877259178750604 2.240874162894346 -1.20039921504432 0.3705268187792329 0.6136786158452011
P 8.48183671558656 1.5892083532142138 3.54592390891643 -0.39311987358840034 0.421405607906971 0.2235031695971054
P 2.129508974544274 3.184252365706332 1.4678203069601694 -0.9059060873918978 -0.8946287147058658 0.4796413516204127
P 4.695778594021188 1.0698346774807312 8.134985032682211 -0.416279085313683 1.4271561156920325 0.6851861369668845
P 8.479674355016918 1.734529840534677 12.38254880402529 -0.2674518072639136 -0.7526405710651167 0.39592520424767935
P 6.335906467260277 7.765887273758463 1.2574515756420426 -0.4383093256408451 -0.2738965344479928 0.9803454374483954
P 1.6302208237672995 3.444911813452724 5.881187372559093 0.5208468793244448 -0.6340055003280113 0.10333160761081558
P 6.82675326903526 3.8340100505155954 5.808620723250008 0.47090654285057615 -0.3038496291666573 -0.6979580919205721
P 2.2052639747518596 8.29912177121869 10.178421199514215 1.3474236355573954 0.37732507264798887 0.5114546394762676
