# total energy = -340891.4572730222 ev
CRYSTAL
PRIMVEC
9.06696380331772 0.00000000000000 0.00000000000000
0.00000000000000 9.06696380331772 0.00000000000000
0.00000000000000 0.00000000000000 13.27041802890446
PRIMCOORD
 96 1
Ni 6.339929200536447 2.139866869790378 11.521987206661944 0.07941417756326968 -0.6814197279459168 -0.3190013972064313
Ni 4.818492714538889 0.09278223814787247 6.175985805554824 -1.335167701008178 0.7330405374460021 -1.2180742637265798
Ni 2.7533013566595717 1.4431613895516873 4.869593214487838 0.46825882081508385 0.383737661042552 -0.26354038802464935
Ni 3.5107192249211443 4.337209221611379 4.903830975600922 0.8176072057444886 -0.2133614531774132 -0.1398428151629721
Ni 5.02323381877197 4.377593477324329 2.800217452923849 0.7966205761904926 0.9430978659508468 -0.3658322415170409
Ni 7.1648415455665875 6.004460615641192 2.705997194354765 0.3053938337253257 1.2691356011787691 -0.12408118145334113
Ni 5.000085860793711 4.551942119691714 11.772691469288752 -0.6141444997380261 0.040567122789084975 0.08517550552707912
Ni 5.76213694743636 7.876108569288664 12.384789485728648 -1.0633187931178334 0.5075118527784357 -0.06094182979069505
Ni 1.7483009813261914 6.504059374967482 0.30250291877016505 -0.1181067090374611 -0.998225660162926 -0.6531429924884106
Ni 2.681300598999818 1.4724204809719146 0.37951045370982206 0.5094291244058066 -0.05119297793404732 0.35444919649107987
Ni 0.4414695492227202 0.15528081799281382 4.912390189205103 0.05343600833195313 -0.2072615109272624 0.5564756842716481
Ni 8.597548726129268 2.2871415589563986 1.3904741709790818 0.9577032745688474 0.6284015238776726 -0.4443010244479058
Ni 6.951813236636239 0.8526001316647703 4.854557468810069 -0.8550218989475211 -0.38806045678762197 -0.23212202161436798
Ni 0.5687162225727698 7.203022529133547 2.277456228477599 0.026429397836122224 -0.09069283580088251 0.8169605732994252
Ni 7.720700813805958 4.062797569354429 3.9694477392874665 0.1882453748360758 -1.2842580586425043 -0.08658498428009605
Ni 7.633667030557503 3.7266761630825855 12.847781286362647 1.2911002783753183 -0.010526353452620582 -1.140135899377888
Ni 7.917871003463304 8.939427654264096 7.069735444657326 0.6995298072830662 0.3002683395733022 -0.5153238926236867
Ni 7.179493758685611 0.5328010732003924 0.34725926431355675 -1.8553396657527856 1.5370628054172044 0.12110101577909467
Ni 1.7775872736371099 6.652431166724717 9.138725860269854 0.834305492335776 -0.49579327878992685 0.5484679834758232
Ni 0.056390166492041746 4.7083381742028685 1.523138355058473 0.11761691388523615 0.6096360703447113 -0.4268933704944196
Ni 6.295446677292679 1.8294412382582066 7.048555924468758 1.2104679121342314 1.118151681797313 -0.3921163720245505
Ni 3.4401963823222825 4.292354952861498 0.4265108727352424 -0.05596391696012942 0.3002187172822894 0.07994382481449458
Ni 6.248815283684304 5.690000185323152 4.989106674614364 -1.0184874957357557 -0.3885091142892664 -0.9853644879295416
Ni 5.332662084312129 2.898454376351675 9.277774093394484 -0.03437384949417951 -0.18594706572020234 0.5505382357412906
P 0.0018269931580959934 5.478667398579224 12.43937079298972 1.0583483364864352 0.8776974861681659 1.1103427272758555
P 4.104949882962312 6.295428543365552 12.68817824683899 -0.354795266976589 -0.5174077717359089 -0.2923830232879545
P 2.3553613928100674 8.233555473862452 1.4269152042381568 -0.22961236781863678 1.6903699736151983 0.4518346138207896
P 6.516218173106473 7.865074074631577 5.6867986404887905 0.17621312626189006 -0.7401961746541768 -0.11561042497816865
P 4.906351591471645 1.1175485940502317 12.764535680491127 -0.8394996349422058 -0.880619287800651 0.14410596131470021
P 3.8543934118415937 6.113336714114724 8.259932177565762 0.1472195672430174 0.6563650989701341 0.18355465422862582
P 4.767636115909805 0.9662481730619048 3.68668088010652 0.019425712824779447 -0.17307920861859868 0.7896081494284014
P 0.36901090990299745 5.464368797039187 3.723334080312987 -0.1725307923142964 0.3646616182477075 -0.8340686937346217
Ni 1.1154722593941324 0.8856736946562679 2.775362185706536 1.5659668900460644 -0.05741556180499144 -1.0264167778851612
Ni 1.9213439809403952 6.54856909910194 4.84575979406416 0.44496359773256916 -0.1482572644789124 -0.3620601760691184
Ni 5.915241694173874 5.730420708890357 9.25593087147305 -0.23991657795812227 -0.22535102143912158 0.22666279827200966
Ni 8.424088646191132 2.57791908044592 10.303736381790902 0.8114288448479187 -0.37666352780459 0.19260853690077798
Ni 2.306689932399848 5.309795202204346 6.945802746489828 0.572153242907905 -0.34946922677798525 0.7276808157959855
Ni 0.3984631276471325 0.3581622879989684 9.200871735232166 0.2792781104748803 -0.18723313152147755 -0.15118112299392672
Ni 1.5765817583922956 1.193602284422982 11.40016439091573 -1.2788592562244363 -0.23912030730907205 -0.21533863150844204
Ni 3.978057727887605 6.754788118395911 1.4996630796955632 1.0107471896687046 -0.09262913359164691 0.8834156195988656
Ni 5.882791031579206 7.801913606446483 7.844051412912663 -1.8348482306676528 1.2124952269769054 1.2863884747219458
Ni 5.458584074285513 2.875270150519161 4.731248577735757 -0.9045534300187454 -0.8044724681347435 -0.4735025857125264
Ni 0.6930669077605569 7.363770726155303 7.131058039328048 0.03906611276352627 0.5713027219821516 -1.2735728110145161
Ni 4.9842458754478365 4.479587750452973 7.322258540175021 0.7851452285610414 0.13500477034438038 -1.0563359340420968
Ni 8.050593216109505 7.383192162108859 9.117161900826185 0.7480069289478471 0.3623291134597889 -0.6380213063556237
Ni 4.7216394097508925 0.3543133619661557 10.416096914361985 -0.7808828537402616 0.3476653408000271 0.2833720780385958
Ni 8.35692058011086 7.119307254549426 4.737220986635199 0.04004158930291814 -0.17782546505433247 0.34764991418105934
Ni 7.16489594734797 6.1397487789759335 7.093410193218638 1.4708792676115958 -1.4964540307569068 -0.17563925603629107
Ni 2.2793802381458272 5.164896057492028 2.4703413711547175 0.6304761470185142 0.38038237141707393 0.9001869255199335
Ni 2.4297830297413427 5.2742527050344385 11.535323803367866 -0.8521294078910744 -0.3694816653441701 -0.42684811907878095
Ni 1.2781970544727865 3.2900021308887335 3.7277397179086136 -0.7225442659003685 -0.1398433293836043 -0.3700128552572918
Ni 3.797171804790756 2.4763872224590266 2.409974434443614 -0.8433267219977798 -0.08511019950678246 0.23895575670674976
Ni 0.9620864367861427 3.56977235861186 8.313505238478546 -0.5446573514804813 -0.16491184231645792 -0.7391618198523915
Ni 3.7595983077825683 2.4237353650443203 7.035563872378258 -0.6767061245203314 0.9225316117637208 -1.654894149306092
Ni 4.339040748251256 6.726145580498019 6.088945675431876 -0.6715230376574951 0.3732311050842734 0.022923698675708908
Ni 0.8520343531383922 7.393111420247603 11.31445075756216 0.1139767460294876 0.09870567880303001 0.14636750365536727
P -0.015229778698033946 5.622097695194213 8.200945232709062 0.026300071347109544 -0.09523906041066824 -1.4870363369874324
P 8.477066914294134 1.9433495015096207 7.86954318097215 -0.22209471928535296 -0.7959240643441002 0.7081044363259547
P 1.8649293336467312 3.495849404676591 10.35847636091434 -1.25367401520806 -1.370068369540105 1.2963553561266705
P 4.126837533005208 6.073850087794585 3.87436521248347 -0.9494610891647132 0.26833035321412496 -0.6134788411295693
P 6.708474068512267 4.188474751311594 10.704462623543547 1.5806928834023295 -0.3698300498225244 -1.4866740685520072
P 6.091929613140706 7.777215197698822 10.087362363305528 0.866724789206746 0.12046312508477965 0.9195609591711712
P 2.3645734277908397 8.465678808058062 5.728295412631014 -0.04837016377327153 0.49806433421229057 1.351017523556241
P 7.007529727735493 4.061655131945397 1.755158325869457 -0.9158932805115968 -0.8441373908245333 -0.08646619931404463
Ni 5.494471116070843 3.021275464786257 0.450580034211578 -0.5976734986661965 -0.0497485321780369 0.06362349038791623
Ni 1.353289646707779 1.2152179255589663 7.052921667424704 0.13825413051961352 0.4045265727634453 -0.6045573702702234
Ni 7.022680623850523 0.7359735927369433 9.238187730475143 -1.2414504765586747 0.3317671815125319 -0.31216303412835916
Ni 2.7434002324479545 1.7453270172772808 9.05889124609102 -0.5049438349409433 -1.0072656588780071 1.589846267766823
Ni 6.404549449855305 1.822042595990185 2.3130340868054047 -0.319558812371798 0.2724978543282533 1.5021199707934325
Ni 4.038325834695863 6.74277439167394 10.49392772959323 -0.015481897685683014 1.0967300215884273 -0.4749763420445755
Ni 8.111641081784246 7.6006542162218835 0.0023347431176660963 1.8775946204962437 -2.565650108591123 -0.16623416067230726
Ni 7.413076874014985 3.8789195482815426 8.428413587811043 0.3783877095845483 0.12406189817963148 -0.7286506359084226
Ni 3.0777989156426857 8.310597463263651 12.384749591088967 0.33746063235288337 0.32990133194838667 -0.1414870356346144
Ni 0.010668189329110402 4.971606528239966 10.215660804428973 1.139426532015689 -1.0342038780297478 0.7541863182856818
Ni 8.824014275061097 2.4560046883677127 5.607547938763462 -0.3244346524068606 0.27307146744353616 0.5103547215438695
Ni 3.5169210279987504 2.493641654120847 11.562686992706913 0.9850374436074263 0.8032622498767263 -0.28149928649591516
Ni 1.2125431713076595 3.3271313466822976 12.785250972145231 -0.9420090037620422 0.5416255066326929 -1.2047685477566088
Ni 2.8995333450157608 8.600241614307702 7.945689354373251 0.9672364108702632 -0.5422065759471436 -0.5619194809950387
Ni 5.453261766673591 7.687715200361028 3.535518276964362 1.366063619256086 1.2134547626766974 0.08503640884605355
Ni 3.1016540967789172 8.401856451532813 3.6556020490990475 0.2245043571681101 -0.17038957760157752 -0.9398911860880909
Ni 3.2730922438423367 4.03962241048548 8.98934128868255 0.9577526397495443 1.8327782355125017 -0.2990812612437365
Ni 7.543142466337005 6.3795246304193505 11.1502961023295 -1.5786280304535008 -0.40876246522166376 1.223197443885758
Ni 0.6270421857856725 9.22509140830366 0.4353384684609112 0.3465319985265322 -0.10795856485986569 -0.5217704195799788
Ni 4.480920594096845 0.2030519289211531 1.5771094556717058 0.44341630785010727 -0.625443212580297 -0.5672177532795005
Ni 6.6403539712578 5.689909515687513 0.3422171258757544 -1.5150371930757327 0.865443351391161 -0.31928267589227594
Ni 8.00754327310881 8.86580391012643 11.184095929102455 -0.2065477726896894 0.9278483959909439 0.6318917964191182
Ni 9.344321979166995 4.958359694473325 5.894122015944827 -1.3741697933029884 -0.4993779108173916 0.15945261897409957
Ni 7.9837878285717805 8.724903296345726 2.9543667138639065 -1.0863023984972002 -0.03622324399809246 -1.0832540985891794
P 8.355660272175497 1.7908885091851336 3.44772105538384 0.11341984508475304 -0.2731923092921166 1.56372643075132
P 1.8355705056273026 3.171197707312893 1.542937883392638 0.29206112117216154 -0.4059090549332686 0.7910394825582892
P 4.736364158578425 1.0379315869969268 8.252872639735026 0.15570472189589313 -1.376176539320372 0.9073217367925018
P 8.558406644424553 1.7228862824569948 12.420168777554407 0.5572223326296856 -0.5838077964276978 -0.7468170224048041
P 6.454209209293974 7.7760364924355345 1.3381759251433614 -0.2372943098439268 -0.8202274169761552 1.5371890465824236
P 1.9388250866913086 3.3391632073313957 5.850316794879273 -1.1739862722684298 -0.9947158472374547 1.5244440882119294
P 6.762168626736805 3.8101738305411756 6.095009660663313 1.1615151363846126 1.096097273100435 0.40182125801714025
P 2.3079139724809545 8.652984141358047 10.055393156476095 0.21911892448648068 -0.1662480446293782 1.2305127466002483
