# total energy = -340891.3643197513 ev
CRYSTAL
PRIMVEC
9.09363771353467 0.00000000000000 0.00000000000000

0.00000000000000 9.09363771353467 0.00000000000000

0.00000000000000 0.00000000000000 13.30945799274147

PRIMCOORD
 96 1
Ni 6.452136078630184 2.072931110900106 11.512481798440728 0.21628993967811785 0.1828404017704206 0.36971100774615684
Ni 4.603563199514243 0.42026610834945977 5.897167732287352 -0.1503930798749926 -0.60517854879399 -0.033573979300703466
Ni 2.9183029616358094 1.831194937281492 4.695244346442938 -0.6697878001339432 -1.170161756316017 0.7799834818544438
Ni 2.988514939084153 4.341957427304173 4.624610424200707 1.2464777545699373 0.1938714627736016 0.23990140844947067
Ni 5.013913605207353 4.74114993941755 2.5322180190463333 -0.31008404011214336 -0.4995617446934235 0.535897088789348
Ni 7.173161526098351 6.086053501744034 2.537035828352399 -0.04897411590585759 -0.2778655463980698 0.43439893484284536
Ni 4.899579297156839 4.689761792213744 11.435286816526308 0.3405678105232973 -1.2979448121009778 0.14616567205720635
Ni 5.689907358293419 7.855957320258288 12.61847094295772 -0.6735817199587368 0.9391648494450278 -0.386912716336424
Ni 1.8719889964491219 6.298653659853712 0.33270983552652406 0.3454616482804889 1.8508867721877544 -0.025647268254459055
Ni 2.939691197739747 1.3043459377416353 0.48975968841165923 -1.0898543775145166 0.9287122866531361 -0.13036135803509807
Ni 0.729630756917638 9.35335209484112 4.866177456156254 -0.8903488563835893 -0.7122590819242766 -0.3829375337387599
Ni 8.834832867525417 2.4378315148723484 1.38908136411923 -0.3712811804467541 -0.2829995251905255 0.7337938706722588
Ni 6.817891284555561 1.0912910977419923 4.759249006729484 -0.9413140345775466 0.5851314003351278 -1.258361907602033
Ni 0.5423254617104741 7.184346700591481 2.32779758813712 -0.3563132462830122 0.4666004592760545 0.3298283126186062
Ni 7.307974706472875 4.05117926503397 3.771167969918131 0.8798569557133299 -1.565050548879382 0.314266196514291
Ni 8.006966269553354 4.064874283559706 12.764688454496335 -2.467848172549285 -1.3981574144668372 -1.0125361632483272
Ni 7.880992105119743 9.219584682813515 6.545897849887358 0.8649396722818652 -1.985139751967775 1.0100812739499314
Ni 7.391026900493819 0.004402230058637889 0.5813117056836045 0.6504513045888605 1.7332706296334666 -0.9654278969066148
Ni 1.9012432292494486 6.564333381797864 8.978706948603156 -0.04896871658921889 -0.30367042327631566 0.7643262349331611
Ni 0.07665936664804256 4.977684552214969 1.2548319892882631 0.6149896213471407 -1.5115561765056678 2.014816710206917
Ni 6.322006121722297 1.9814491146392152 7.027287754068547 -0.1965469527232357 0.26730036928771383 0.7343533427201546
Ni 3.4925207204721853 4.451308421840674 0.41938220675536847 -0.06923980813342914 -0.37268885942755814 -0.1820176487588091
Ni 5.8427895969751384 5.577928302432922 4.860308422320591 -0.1154373897354141 0.7230875399983483 0.388986311036001
Ni 5.311475621275829 3.0601182431157885 9.358878298531751 -0.1463245662325738 -0.7753192436095551 -0.16581507085701766
P 0.2529659069369612 5.612638717912824 12.217856185892531 0.751911406208576 0.2844285443275682 0.4552287271040031
P 4.088254026341689 6.307410833054431 12.614824394200202 -1.5066114309058827 -0.11215769054287782 0.8211442723634698
P 2.195949843048946 8.398929339616293 1.5394255684911662 0.11850111626240235 -0.5632523408738493 -2.8036406731711265
P 6.2830126028389275 7.89028580295062 5.828797216493366 0.08198425228329106 -0.37546976460680503 0.14873189012248578
P 4.973192295142118 0.9962898636527752 12.757728184124758 -0.6284223498132789 0.08657752808092832 0.1243470335202181
P 4.113752586730907 6.017960341902925 8.382323447631002 0.06207234385071245 1.5224813080586037 -0.7924641308199578
P 4.8867754551354325 1.265397887047262 3.597120289258556 1.392766839578885 -1.709378653507217 2.095962525749313
P -0.1491020134485528 5.604590848460449 3.7209256210770354 1.664798295793681 -0.9512688317974133 -0.820135114372665
Ni 1.5557850228920949 1.0440405557368642 2.60689679138169 -0.839522003539709 1.2592473955307797 -0.23505127944602103
Ni 1.9850956633967318 6.476015971491129 5.0798606665278285 -0.043851192856995444 0.4993277743057465 -1.7350122949149214
Ni 6.129139157637085 5.724635961048921 9.399897879916804 -0.3396476127018731 -0.37475114127322556 -0.6722354903434874
Ni 8.740841027231921 2.435185266272754 10.412574478883906 -0.42137989687535815 0.15819689219012756 -0.21394200827123155
Ni 2.597206610942763 5.12345556613764 7.081869586867465 -0.6430678676405958 -0.7375463957361557 -0.6224422209704441
Ni 0.6301008912043728 9.135377596792061 9.210583800119776 -0.6036759961065344 0.2520082190153337 -0.15441994164619857
Ni 1.492193213761637 1.2766103424537907 11.644936998533895 0.10785854894689166 -1.307511629853806 -0.8798045052088396
Ni 4.095674434785912 6.938218299915809 1.6255641431811925 -0.49431360892060683 0.018659781193032382 -0.35647599711312156
Ni 5.701820023810494 7.805533098661207 8.144603024464557 -0.5249732427879926 0.6160391456575778 -0.01200653754257287
Ni 5.059863757007181 3.129566354988991 4.931286993435414 0.8912489996003553 -0.394884678798307 0.08270030451370919
Ni 0.9281421419848712 7.531641821784292 6.8831063080331925 -1.0960939306663253 0.15539490396495817 0.91700348285664
Ni 5.363454854936589 4.577082526242701 7.364097001514993 -0.6428115286554155 -0.606280266498601 -0.6591730007325745
Ni 8.151400518719528 7.046241623333614 9.123327617344218 0.4561877485831627 1.3723450813894236 0.7433393482688488
Ni 4.573163168351205 0.3465448960743689 10.591866460462333 0.6439595262169296 -0.17457327666562195 -0.7236259290003215
Ni 8.296653195287641 7.234579955794778 4.815135776552601 -0.6087328418041517 0.8886262172655276 0.9643032963838682
Ni 7.298617353177401 6.227123104924471 7.033143147447513 -0.18613655602318913 -0.6144586885443353 -0.6451360630235341
Ni 2.2635064782598957 5.242291224898804 2.433328345434138 0.32621231313257365 0.4103565491816609 1.0412533286773618
Ni 2.333809392086232 5.256913794480068 11.55557745733536 -0.0007193946645277933 -0.1504560719024441 -0.8821478086300356
Ni 1.0903453594108659 3.363663872856199 3.68791753459316 -1.6928480028420458 -0.0749923943464902 0.30133046228922944
Ni 3.7219259212349574 2.546736921156685 2.61486918364033 -0.7236603817826827 2.10212648846818 -1.8962652003225535
Ni 1.0902817039462707 3.4372768708414787 8.448910701052549 0.270569784067605 -0.48407753301489537 -1.1580999400554766
Ni 3.8050235834448993 2.528467802817905 7.105253876468349 -0.4211754941740359 0.8091960988626581 -0.2286924271075287
Ni 4.186201599077877 6.959870251515927 6.246820833761519 0.21177739651974495 0.12521580927841663 -0.24742394207876098
Ni 0.8186665646105189 7.523775825087903 11.435446864551576 -0.027138250977688745 -0.8557767748356746 -1.8727920569012781
P 0.14343213028069343 5.52839525734017 7.95735229108419 0.6853740846079744 0.42813624176258525 0.1680341899955235
P 8.581856957586877 1.5842572028416824 8.019946528148065 0.13263472745030708 -0.15602688112200225 2.1481199244791584
P 1.7461967047714975 3.268053365034429 10.698275663170763 0.07471137277096165 -0.1599401001334794 -1.398556963898101
P 3.847690931999184 6.3013908448313 3.829517296857296 -0.11975992837016794 -0.919200747618275 0.21472619473542373
P 6.85392027751636 4.0290271633548915 10.572913500561047 0.9958404477602011 -0.2589190872025541 0.14810994026777072
P 6.399411166669882 7.854520525486 10.487254160583042 0.21492879766453307 0.242985189581117 -1.221454235942406
P 2.4937392000624037 8.55570365527611 5.698697268590216 1.204674959601538 -0.14552443892878164 0.7081777127660513
P 6.955696271766051 3.9060448057572486 1.53950468314002 0.011488460255573764 0.6666114592884906 -0.13060638416636863
Ni 5.29602553065483 2.93540809433628 13.788732100712554 -0.47594204839195453 -0.008028783841747463 -0.943875881767452
Ni 1.6436022831198707 1.0661471892269463 6.974182728048235 -0.6163463924853514 1.2611101597711312 0.4289831631439128
Ni 6.867760794246885 0.7085207861303585 9.261559096167495 -0.07334148900662853 0.06494426608186879 -0.15180847216528048
Ni 2.885947798345924 1.7611284580379372 9.293941540370778 -0.6756743408217073 -0.2102920702234701 0.38617969482514136
Ni 6.4973405521304715 1.8084790300588574 2.108444494597686 1.0261630100031423 -0.0829245047093733 1.6553754598178847
Ni 4.208199108914368 6.822338073439415 10.472320588589042 -0.47241500907530254 1.3384898234028757 -0.4374310368009499
Ni 8.09502905800171 6.652368889332823 0.29335802731386224 -0.2975915640720875 2.3552659928744792 -0.014011998008375869
Ni 7.70282045971819 3.721225711124412 8.442109569342456 -0.4314591354882311 0.0774511402996279 -0.46234862597823595
Ni 3.166031842564158 8.566552365170667 12.285229129619937 -0.3234267799676365 -1.3096798411497188 0.5052526244306137
Ni 9.237771958412102 4.926505558680546 10.11192699151013 -0.2593836855437985 0.09700823649594907 0.9611002160655384
Ni 8.61257526607289 2.334245886700598 6.075448501342498 1.081015696176964 1.661268942484184 -1.7008999266122449
Ni 3.5486648402450225 2.572190013356907 11.658619285966711 1.3063371499297307 0.43925652004546284 0.26724894722448816
Ni 1.1538644194389296 3.337556038734428 12.885458330017409 0.9305246572715264 0.2357537048296843 -0.39098071575821053
Ni 3.079969654431646 8.589686579732069 8.054032210711156 0.7724270096634246 -0.4884928884737717 -0.04809634128659459
Ni 5.456073555922391 7.82159246301476 3.732850108323248 0.22520241167639926 0.6455487250809204 0.1968400584836223
Ni 3.044458998825405 8.511572231036139 3.3894534296549947 1.0410458406522458 -0.36851724454837176 2.5745618092584563
Ni 3.2922151606671517 4.3673468640398 9.424959945691656 -0.17697314435636619 -0.6980977028222299 0.25788267551823973
Ni 7.13212193871014 6.059099959306929 11.512148971297275 0.8159897247457237 -0.06092948849552087 -0.0690973690182939
Ni 0.6388271460365748 8.691153390296583 -0.04521083904674652 0.1196974505633487 0.9665488978849353 2.104727930646769
Ni 4.7139872433110614 0.2562859940974832 1.6200006555755846 0.4194466844083873 -0.3120820443787787 -0.2604301245304418
Ni 5.901970991772939 5.6390648293575705 0.3517746471727425 0.014704653200026287 -0.798848694190063 0.39007697299701855
Ni 8.099075726822395 9.186665713980075 11.323566929343091 -0.19353516248010538 -0.9986079832030091 -0.41204859217210327
Ni 0.12049615702331586 4.995453520474788 5.818229500006806 0.00592587856613173 -1.254295193731827 0.20115951179458258
Ni 7.69406328651747 8.736376051072469 2.9890114517079946 0.6489978599717855 -0.19143405697670257 -0.1158024863843167
P 8.702829621230876 1.5677886247871622 3.595617110930333 -1.0742166709772596 0.5916098089706199 -0.6522767878333735
P 1.8726892065596674 3.251793940649293 1.6176044820154707 0.2168884924940652 -0.46787469800278775 -0.31847792060279345
P 4.742504891449644 0.9936890832421772 8.390189444327392 0.8837105251314651 0.22213662826688194 -0.4698660174012037
P 8.66068970366895 1.6437295940490606 12.631341168535057 -0.40616873635255857 0.1504229046716635 0.6421841794840618
P 6.224713290907658 7.678758694101259 1.5398375102834743 -0.10219877955795302 -0.3535331124347137 0.24788776908905696
P 1.7994672349997578 3.1687326529905477 6.073065968239083 -0.009987450230015057 0.12093569384582399 0.46483899650025745
P 6.974838379333563 3.9237683058280717 6.0965302818525995 -0.23125555984901464 0.4570626949889483 -0.8603078299368087
P 2.3706568124489684 8.350778527469034 10.152428235540624 0.9641415739950233 1.0339976755562128 1.0496335823212568
