# total energy = -340864.76159045997 ev
CRYSTAL
PRIMVEC
9.31303976619816 0.00000000000000 0.00000000000000

0.00000000000000 9.31303976619816 0.00000000000000

0.00000000000000 0.00000000000000 13.63057507431740

PRIMCOORD
 96 1
Ni 3.793406063258699 7.906333214561604 9.126896506719307 2.216126117315803 0.3876994739037774 0.6528714839945788
Ni 1.7378505090035061 7.420397415442696 4.715538577669344 -0.45444376930886254 0.6458341175318233 -0.7326376455806286
Ni 2.9446156011540303 8.523554938019878 6.956228053322151 0.6999537821943623 -0.4062546111981455 0.16591045878430136
Ni 4.888135284670587 6.2718574491323995 7.036920888069857 -2.5993912095973104 -2.980254377305545 5.142156957391093
Ni 3.1564593211616545 1.2480777374203977 9.817884957105807 -1.0507206447378483 -0.31786676938135583 -0.6014501920998093
Ni 8.799574816403222 6.643121787203528 4.909706147829759 -0.18781445794624427 -0.570955623055378 -0.1006103520249106
Ni 8.117571586971723 0.6733318579232096 3.6240698515480276 -0.36263173230187223 0.17126658088989213 -0.19050511740452997
Ni 5.720534796442754 6.491784887826736 1.2579113763159027 0.5690383514280071 -0.6366251973390455 1.0566197838311029
Ni 6.7288483200505045 1.581233115968459 8.035905539548024 1.1293778895304358 0.7048877291608698 -0.7255992506766085
Ni 5.552564807694457 8.47245428775031 3.6574654815465037 0.3004586012072374 -1.1038707463982664 0.2911712623680405
Ni 3.0588772884434987 3.2919174874038357 11.415961637148902 0.8186420747669062 -0.05958274465963931 0.22260071238749407
Ni 3.799198774114844 3.650180821688502 0.18565079511548732 -0.2456678786196027 0.17685847315537284 -0.10238904119188819
Ni 3.276672040986617 0.21642294175676718 4.715333690790187 0.3109595007385612 -0.09737667557896133 -0.4778487784963641
Ni 7.704519638592676 2.016301090816843 10.355011742981912 -0.22673658893273857 0.5201521672502655 0.8120862759262595
Ni 0.08824384754861056 2.3080320676154904 8.237869986764332 0.2645338622861702 -3.4690881940585028 -1.6583070316423827
Ni 1.3400346940017176 3.0640832777820606 13.381667775766097 1.4479913072698287 0.6816994639698646 -1.8383575293724919
Ni 6.316904623426894 0.8167116959567693 5.699666136496692 0.5059360236508834 0.10671955024644202 -0.5216241238101016
Ni 0.5264773246799587 7.06885809601034 0.704440205307105 -0.4511435012910359 0.40839402613865144 1.765771173364333
Ni 1.0727411340624364 0.13715127690720905 8.517037672654714 0.786630040636684 -0.4563636120393947 0.5758080660516729
Ni 0.6515663522288403 8.085395033904225 6.617603126404614 -1.8113041247991257 -1.2664891646948575 0.7539155811227983
Ni 6.4140303171869295 3.803333763857816 0.3975885768267245 -0.6744008734259224 0.6681389516766106 1.0025222306557509
Ni 8.7295221298117 3.906820263911657 9.331873722363207 -3.9388822205711906 3.249478445978533 -1.5793111725634543
Ni 2.793250762657353 5.6630081485996495 10.957087669550553 -1.2062075941959807 0.30472740378592034 -0.7822470810776398
Ni 7.883963292573725 3.0869374778479464 2.9427325044737844 -2.412334455752697 -0.6461570480888807 -1.177173925967792
P 3.4044842014202845 8.072161204118721 2.987358729362013 -0.6094092990458859 0.4810464594980554 0.2630133118765857
P 7.411233384120433 7.260827788739806 2.755911060235118 -1.2386780560198603 1.4928241473138033 -0.621416093698775
P 2.2933640296758937 5.637453166944886 6.548537622049027 -0.175465192352272 1.182214573715493 0.0556183606952526
P 5.859820622109174 2.9015521043713663 9.555578530065988 0.07677648283010649 -0.43845253608692875 -0.3119779147007466
P 5.95876235866173 7.278466686427168 5.802958925319331 1.767910331194523 3.48652567280866 -3.009690423178475
P 0.44832788114577926 5.3897914952447605 10.250315479037052 1.9221415538686832 1.5307072955128218 -0.5653454759574522
P 8.165040151656246 0.1593060676719753 6.934568716283345 0.317713274522627 -0.059907217878593606 0.28621417547308126
P 5.71554300702331 4.105579162773165 3.206483384011655 1.562366831399632 -0.17190087203978138 -1.7971129209004084
Ni 3.862061793855973 6.960994467174524 5.233582013360033 -0.1612891579622061 0.16087058236754875 -1.522723763086713
Ni 8.38349613003664 4.1469756254026935 11.699027761567233 -2.2505123081051566 -1.528070886331239 0.416282941968425
Ni 5.588233750747572 3.935653435632922 7.450241051999798 0.3417847136495339 -0.6587672806537235 0.6715366645042499
Ni 1.6277983157767029 6.220328399024597 2.6406379768058144 -0.35663746239165034 -0.12237576872646022 -0.4564679988277429
Ni 3.7409643352346547 8.448324201209678 12.151480388112025 -0.9959726024626911 0.9494163519697068 -1.528723946534206
Ni 6.353113722797785 6.017099240981497 4.106128632130902 -0.18102777404171405 -0.41123998022787883 -0.36873167455202305
Ni 7.5687913941916065 7.39427433835027 7.822900483457182 1.7402442327378222 1.9495009197182427 1.4357644261863336
Ni 0.4453374640140938 5.6595064455740705 12.374763315104545 2.5545198030059164 1.2559571548152821 0.5725849311286848
Ni 5.523116975335724 1.506803300594962 3.3790335258130906 -0.05277112105444459 0.8177069645471464 0.07594678783995952
Ni 7.238215727712922 8.747635992537107 0.8661946711849977 -0.2648627063804987 -0.46836346471374823 1.0227796953532062
Ni 6.6498178629359534 3.291870922204027 5.1148053642971565 1.6014038906974355 -0.7219958495960662 0.71218580548418
Ni 8.466819898573513 5.438498694244183 2.5853110690016514 0.46651484154078365 0.6981532386505137 0.5123565824652466
Ni 2.1646578174059075 2.4787587161924356 4.833429556631867 -0.05868131589129248 0.4373765294139306 -1.8135196443932056
Ni 0.952984753195595 3.871542468536932 6.683575770188938 -0.058282280680660915 -0.47160151203507167 -0.9638304705125078
Ni 2.0549874588175316 1.1139792750126172 12.11238797156901 0.9947803819268028 0.005716076548170801 0.15866071920042352
Ni 5.708651357451691 8.61304393901136 7.412525102763113 -1.281456327527651 0.7824617681916073 0.7948786537987214
Ni 5.2709477922941605 0.8176709390728192 0.5318295287459183 -1.211168537745682 0.2627469455890765 0.2535729923992923
Ni 1.9505417156476408 6.685747571107994 8.698297369428285 -0.9280114039313695 -0.39057165324524995 -0.2875611764192789
Ni 3.8992767015427217 6.045625082384028 2.909868649057118 1.6033926389926905 0.07799621416982053 0.42411966440402443
Ni 2.0422192810301114 4.121998052225552 9.040915727881378 0.7056356630704881 0.15679486963627834 -0.7997390672148162
Ni 2.7540428644188113 7.70899921081423 0.7433873384267201 2.325114923212396 -0.9675930228787336 0.2976347586051971
Ni 0.25091192264674106 0.48590879130302056 10.78812304813435 1.2121540415874026 0.2404626802695794 1.8370442098777073
Ni 1.304170177109408 8.127238522451913 12.471826611496837 0.20555429842816858 0.34082209262594854 -1.731660090613237
Ni 3.0045450133072396 1.7085237461642744 2.6885079335126854 0.06676049335500116 -0.7404828526566603 -0.4522143657577115
P 2.090283880272181 8.508467813282005 10.313125414450399 -0.6189180098672695 0.12544669434230007 0.7327019231596608
P 2.9467576003452094 1.4516142257822315 0.4609815085416714 0.05974575260006484 0.8727537690096453 0.5395166878198063
P 2.314122795750409 2.081231605429458 7.897105854567603 -0.47443615327038946 -0.03053236426090226 0.7102189115657963
P 4.373319748630605 2.2108411825757237 5.152657283917282 0.3887831938862594 -0.8682759357439497 0.7294273661734471
P 7.879725859391174 3.740554561476342 7.205258741896639 0.28363510189199537 -0.32146091449051734 -0.3681290079710176
P 8.745996897503858 2.1670419556360896 12.724387873520785 -0.4748873818751951 -0.217681934929638 -1.8547244007662897
P 1.1501045570238528 0.6865209851168966 3.6240698515480276 -0.7621423399079649 0.2759215352978216 2.391033380282076
P 6.625678463355359 5.144132127136389 12.308463783617567 -1.8694208264362 0.13640833556012635 0.44957384281107093
Ni 3.7595252238782204 3.7894014560751894 2.5397172192614073 1.018062492383195 0.05224867289207131 -0.09925023845259037
Ni 7.160768487391851 5.727743089373071 6.564267346544252 0.3959077207461827 -2.783039709091323 -1.6269652841063076
Ni 0.7901089973063197 3.064278851621255 10.684203491722295 2.0039561133433295 -2.6966174756413364 2.338586732446585
Ni 4.6939677145101735 4.380583919800691 4.994256443729579 -1.0015297848354943 1.5869054399709444 0.7746540992217305
Ni 1.5536944568018636 3.865991896719789 1.9111289305299433 -0.6020970816551888 0.08319986985794703 1.1739677603256684
Ni 6.348177811618112 2.1014502151861976 12.47397978633597 0.26095385824439576 0.19707120065782188 -1.17013964482883
Ni 1.3906045009934704 0.9214396242374981 6.246402117005226 -0.4320502321050107 -0.4331120977106218 0.4815917904785642
Ni 8.343468684281474 7.08213849099565 10.630580870231114 0.07624092204161063 -0.032867440151982105 0.9925934015778132
Ni 4.3519276958386985 6.037606554977048 12.569503637222601 0.7608979259779024 -0.40158265964377293 1.5560110643849332
Ni 1.5385235147043377 0.16609713641200957 1.6845342865270632 -0.10731553195922808 -0.887658968256252 -1.9941476118933399
Ni 2.444589172573146 4.836457225923399 4.501334002031441 -1.8138811414976825 0.34505515687068966 -0.013562826286099222
Ni 9.286898258476418 1.9521808106808909 1.1394755845156228 -0.9609788599963256 -1.9346823666481714 1.9311059621508226
Ni 7.992795477565552 9.198489570120486 9.50372818007951 -2.188897363506837 -0.668127895933017 -2.467781580977408
Ni 6.775637032817828 5.521394062942819 9.129159575429988 -0.08595120735083905 0.4277968561452955 -0.08536139628564007
Ni 6.2340837590479525 8.927228655157542 11.87861017984371 1.0108286936389173 -0.03194184301391918 -0.22483345837275473
Ni 5.183954686012399 4.601302966891767 10.699415411195652 -0.19233420019346875 -0.9579228467788213 1.4965923561069838
Ni 0.007871381375585537 8.025772952069751 2.890445372913104 0.874394904157494 0.21179436580060942 0.41728310109816524
Ni 5.40385418558685 0.4487190288241685 9.660697606025106 0.32595057483075474 0.3348111105451782 0.6623735099477431
Ni 4.343229316514519 1.3310941756385348 7.356721367312914 -0.18488057212890097 0.09606746984923455 -0.4380622426270456
Ni 0.03245780687433828 5.756157174296061 7.5616846133968725 -0.180801774073837 0.4161343322057027 0.5401561211760182
Ni 9.12322158115044 2.332311162795509 5.252583408793785 -1.9664982256071872 -0.3103239240370913 -0.1938254400270146
Ni 7.9056347365644815 6.0172482496208834 0.14801586932646849 -2.1824271824014607 1.7533098076725289 -0.1546755093004304
Ni 8.717173038822555 4.09865957408166 0.765726527382727 0.4722517440245608 -0.9459942136620353 -1.0541155293520104
Ni 3.2920758090831836 3.51375409929031 6.616881365807586 0.3050467347985521 0.7746875235628271 1.2169846302068266
P 4.346973158579101 1.4379519961584928 11.652874198125295 0.7254907501232021 -0.00740760531798079 0.46733013835322745
P 4.184693437247371 5.601597963092538 9.178638825442231 -0.8388560878209359 0.635322419367222 -1.1492944259487046
P 8.510824012392304 8.130796103717264 12.948474515861994 0.25338581608915073 -0.6497874457526164 -1.979623707245552
P 2.0595787875186247 5.496816950484027 0.4163627340854122 0.575652514310415 -0.5620058700612579 -0.3153604580197343
P 6.290753607214585 7.693874833916511 9.943122993294073 0.02788824176983584 0.2582531714837811 -1.0868883529076574
P 0.0838965204945129 3.961711321445615 3.899271113718745 3.4227990811839764 1.5331593565977402 1.256037373233914
P 5.198157071953913 7.922053626016868 13.49676391143613 0.18965613914067336 0.04993570848817852 0.8549599353613341
P 6.981129259571609 1.4977975909520478 1.7696033187527478 0.4382633028942581 -0.5982088023443761 -0.9488111142855402
