# total energy = -340865.60137988935 ev
CRYSTAL
PRIMVEC
9.27061361615490 0.00000000000000 0.00000000000000
0.00000000000000 9.27061361615490 0.00000000000000
0.00000000000000 0.00000000000000 13.56848011522811
PRIMCOORD
 96 1
Ni 7.153530008685416 7.36590122751163 5.110201457763872 1.5176368354821088 -1.1869232920450719 0.902960888720645
Ni 7.30624482829971 8.68740867038046 1.4212036226862335 0.4799815085686508 1.054724623690919 0.15789710156152162
Ni 4.594247305959735 8.328543213738119 3.8027019122080525 1.3962386001775695 1.1010641301874071 1.4164032480509026
Ni 4.289151408824643 6.72783269782105 8.461806431669979 0.31874582955219943 -0.6355615319612216 0.5713086355194226
Ni 2.377662109569388 2.1025473771664407 9.870431685677 -0.8430500712976255 -0.1857290361721253 -1.4748271965157502
Ni 4.156210808249827 1.5703770678640143 6.076941982310732 -0.17128277883980825 -2.0283052316116557 1.4600639221636467
Ni 0.16030930636400625 8.268905355753613 12.390315207204429 -0.02330550749515986 0.475049361374356 1.5599975598365068
Ni 4.024280704569197 2.841406019091987 8.474763968449855 1.1081230939167175 -0.45779185984548904 -1.1759739921224197
Ni 8.377315912456675 3.1222963438351097 13.536187165126947 0.11335993838109508 0.08736300009670114 -1.00489587309425
Ni 5.452001568692258 0.48936695875054426 11.66243482603207 -2.2801810388141823 -0.6452911005441596 -0.7823434974461881
Ni 9.097503538374015 5.663918527446772 7.624576380625922 0.7618343217492427 0.9367930067787416 1.1270302152338654
Ni 2.776743488477667 8.429963727705239 13.287938671250206 0.3788620781178056 0.772127990365767 0.663361070671993
Ni 6.271254972694848 8.471681489391896 9.575507505902484 1.4011635482830125 -0.018122677742639755 0.37347767387744063
Ni 4.491019022319527 3.271645930673346 4.844286882404889 -0.30584609077139585 -0.28385313144007246 -1.7119099045695032
Ni 1.7236573949145042 5.43798440076554 11.187849860839165 -1.5447090091085527 -1.3411614566977677 -0.27310951977032316
Ni 1.7958754757009634 3.8934908863746704 2.712542634426013 1.0779542836428209 0.8152716156327765 -0.11200368146351677
Ni 5.152913029240044 7.34304916472105 12.876989979734129 1.5527149101321647 0.7347030127500895 0.39508805305836475
Ni 0.9995019463300776 3.972800986647861 9.177095465303935 0.0780599775282204 0.446662839811863 -0.2832949449437573
Ni 0.9067568726710412 6.040175655405595 3.6275735298315746 0.6423029644501133 -2.2923932646096583 -0.6525534385335278
Ni 4.775098438178252 5.252192031440582 0.9878738155559498 -0.6497403945647648 0.45188397900148625 -1.273528330929826
Ni 1.9541063104716032 0.9395303462520798 7.045405913945936 1.5145569110052046 0.47288552095381786 1.713072814529353
Ni 3.656385670175122 5.821138865323225 12.179773080462834 1.5505305008863361 1.557262677403847 -1.0193570428249026
Ni 2.8835502290092196 3.1814428592930826 11.834658725133787 -0.1405858639765837 -0.1669088181418287 -1.450540556054244
Ni 6.713110963252514 6.090505817227121 1.904092276577525 0.34022405403063344 -0.32061887820519624 0.07352455155171207
P 0.6155520631162351 1.854298883289701 8.18627081340468 -2.6469920993047253 1.3665385020099754 1.904683506293236
P 0.2793977559361111 8.115124415562885 4.014004229273717 0.7272861514607281 0.8604646672296472 0.9124194630303835
P 0.44795512731625503 2.681766051037709 1.7549067796019233 -1.6189079610194697 -0.6654786312356281 -0.8521337787664486
P 3.759539788905665 5.929651398777076 2.8029088686075387 -0.24253061854220168 -0.25061031022654257 0.26459325476919593
P 5.6618511805898555 1.2748855265305614 8.781235624659237 -0.20949297136094244 -0.8969738178992746 0.06169619145821633
P 7.418651019510982 7.034467516831695 13.514247330725247 -0.6159314164351198 0.2306636919012866 0.1712940916937179
P 3.2898812278372693 1.3052375158110323 3.5941687274570113 -0.5362999806547215 0.8009729396219173 1.526736483790532
P 0.3051227819148461 3.8224501735291456 11.521688368714994 -0.5187745701764485 -0.704100200262568 0.20328067190264346
Ni 8.76366873874367 2.1521080780501904 10.200172582293828 -0.3933852114346451 -0.3100842972224595 -0.8727995346459161
Ni 7.806431520309031 4.57566899608861 6.123169897566403 -1.3142461203641624 -0.3561965181994898 -2.1313542749850454
Ni 2.327471006953484 7.670348181687152 11.201729823683003 0.29032485520734513 0.4543998034448045 -0.9403758390339932
Ni 3.0045595497416526 4.978968504234096 4.648927239733124 0.19718355786597008 -1.5565772213010483 -1.3290209646804918
Ni 8.932560779278678 2.1408999060770415 6.084920272467962 0.12167977110070011 0.7427971026121336 1.1664457409170104
Ni 4.256398330593762 3.7194814670727654 2.5893816042519195 0.008408021558037134 -1.3644265978732952 -0.2560402229928623
Ni 8.915317437781527 5.731927749609733 12.888631089367449 0.8251935027321787 -0.6814714071194586 -1.6368892280882392
Ni 7.063475267124484 6.347691182718513 11.279708663827703 -0.9214311796106904 1.808102844253009 2.1585370060474247
Ni 8.674809906351088 0.8460037598574466 4.001521347915698 -0.684865520402672 -0.3366970147139814 0.2453860857131258
Ni 5.01370549379852 6.895306334458712 5.805572577845876 -0.818991487686525 -0.5186961515300292 0.7824414564766332
Ni 2.981364474243871 7.858662157940727 2.3597216179213834 -2.8319896566274645 0.6635826997644959 -1.4517916548525256
Ni 7.907750057525361 3.735649417379772 8.329188448452205 0.6020055503826471 -0.5280961046876904 -0.06859626101215928
Ni 6.828724786806806 0.8817132367998549 5.704432963474113 0.08954123869494257 -3.12645733035859 0.16907394411394752
Ni 3.8735590669021556 8.882425300345023 9.65451631123016 0.13527705016916056 1.1994026554590052 0.43783367155600716
Ni 1.4567286144158498 9.169582559954852 9.483417864632615 -0.6146507499504834 2.8442296503370823 2.7348891175280254
Ni 9.062219582600811 4.990686559961192 1.4256405384069522 -0.643350174767705 -2.1804394625474703 1.5887167821480703
Ni 2.322362898800296 2.3182838287687115 0.45484504742414933 -0.4301815543273882 0.270108013939838 0.5060432386527092
Ni 0.6965151138135885 6.807513622642567 5.712506740952537 -0.8957186053359348 0.5703061623968372 1.5702369781763281
Ni 2.105912609942498 0.23781812639370442 5.0576917746595615 -0.7368447416834406 -1.1889719470439846 -3.9781758759644905
Ni 0.07285126370272553 9.001886428588197 6.254987826821164 -1.0806966222746486 0.24776564168889592 -0.9134378769925688
Ni 0.9542798926617404 4.453927296873235 5.810837359370732 -0.9493222495940038 -0.25645519904309383 0.2949027043860147
Ni 1.830019145988066 5.979805418938147 0.8968085771008294 0.7908237670030575 0.6859196726987993 0.060371301999205707
Ni 3.751001553680463 4.713782599112573 9.92307764680282 -0.6108380610726124 0.5659946795056768 -0.35437412027877035
Ni 7.115687363528764 6.099702266025602 9.117421451925967 0.32811621502350585 0.3614868200641516 -2.4341196699485885
P 4.861815758804252 7.154911330127931 10.770754752434588 0.10273099791233921 0.3793845262801789 -1.1369284481841837
P 8.648305221759498 9.051141199219577 10.36933068944226 -0.8591395206603204 0.47978199096333507 0.6795721332142167
P 7.0245572307776865 2.7164844993747166 4.791667806058822 0.1395286263566629 1.222839803436023 0.007573441471883732
P 1.9664176854760214 6.168861044288374 9.096729442129385 -0.19518272538585738 -0.7166780369275787 0.25045758669876217
P 5.656863590414873 0.2860725978059764 0.28043328348731106 -0.3523048964545674 1.4240095996432507 -1.049465946395141
P 7.302008157835086 7.544063881754784 7.397087572025835 -0.6116762407031917 0.19291578372855162 -0.759499502968479
P 2.3909376283994535 3.6669912522572417 7.230683764210093 0.28568812776628216 -0.20921734910205259 -0.3088594236764229
P 3.461693511690343 8.45601415222513 6.236154575073066 0.919980563207093 -0.372634609150855 0.6285033395628595
Ni 2.19861874702396 7.945017924632109 7.946489171027593 0.8639425984759187 -1.392736757671898 -2.295303753388234
Ni 7.085798904933701 4.19234766048418 10.424609504861193 0.9324203316323426 -1.0865749354322964 0.5116086485556286
Ni 5.059233477719226 4.443089949448412 6.514919148092909 -0.7019456158134105 1.7045444653433677 -0.9030884154374446
Ni 7.78063140235926 0.6780406348159947 8.003680514054517 -0.36559595713651877 0.7499478547243019 0.7471425240650229
Ni 7.448863949585831 1.872441474316543 2.0528707936113393 -0.04895740373530923 0.5594314244658624 -0.17066494275015123
Ni 5.468772108890294 5.223842494721071 4.0904487828497205 1.2642883003887968 1.1492915977352272 -0.2778269798506506
Ni 8.923559013368068 3.375050355974009 3.8400699019428486 -0.640319101250865 0.5607108053989182 -0.4040488617960783
Ni 7.52237991629143 0.7883118036902816 12.294182651296437 1.84234839569944 -0.015502723621289433 0.4846130938033911
Ni 9.17359673569048 8.061169443781473 8.351046701453273 -1.486977458725039 -1.7105618751820413 0.6117130074783981
Ni 8.808436532340309 7.090879201245764 2.2248369696519683 -0.07341245145388002 1.6804647986863448 -0.6068551651654646
Ni 5.205245643622529 8.709621060825178 7.432460525690637 0.9127210534312024 1.068476940280005 -0.12300234656686558
Ni 5.423327560492961 1.4328753253447897 3.903814641800062 0.7306442692996836 -0.40931705217355313 -1.4535235499419676
Ni 0.9362021959308553 1.6337695244003183 11.937060070031228 0.03911650638548747 -0.3157605216716304 0.43758067500493664
Ni 9.283685273474715 6.887305794828581 10.652817713085035 -0.22951338034692728 -0.08618543484883222 -2.218328781394076
Ni 2.7843639329457637 7.183233055006317 4.612388042863836 -0.5711363716076164 0.7832444119939026 0.19841203095643248
Ni 1.3049779386272042 0.7879363438351017 2.6236828749720607 1.0811049134566608 -0.32063996125111877 -0.18041070928300543
Ni 2.6942257558614573 5.819136412762264 6.677917859493649 0.501926131160542 0.6083147804301265 2.0015647302930173
Ni 4.081304249488005 1.2307852171209097 1.732735179857521 0.8608241074515949 -0.8092878872455158 -1.4910297744175418
Ni 4.80546896868614 2.4393858556382257 13.154804314848889 0.36319737499735516 -0.1687427860267739 -0.06447401131366962
Ni 6.326535642236523 2.548640038188729 7.099205139417051 -0.4692075578815984 0.7983002778857606 0.510741929679959
Ni 1.6979499831018148 2.550290207428779 4.812427491335473 1.8040577276493575 -0.3369914060259486 -0.30228742688586
Ni 0.05632824889069649 0.8609952692848898 0.4287779357995838 0.13199169454966944 -0.1313301497062706 1.1302618347972857
Ni 5.92643449582035 4.658613176935395 12.508877085917911 0.5466918654120069 0.4364555602615581 0.4772785078151909
Ni 5.050287335490865 7.945249689974813 1.5422481717507572 0.23580666955480678 -0.420975719458404 -0.029344514600388172
P 1.0906506203085715 8.287789595877108 1.1123438563856336 -0.2129557330985623 0.06814374685577296 -0.3515392219331365
P 6.6632443321163946 8.889072330373764 3.7736246323124516 0.6784516464565283 0.8400418805989212 -1.7282842321624687
P 5.468234413295221 4.810475100088539 8.403149404615796 0.8159748123473883 -0.013067374706919429 2.3582032211259323
P 5.154034773498729 3.4859732489919786 10.92311543460523 -0.5476832827909986 -1.4689026035011994 0.5606976927727957
P 6.333034342445934 3.535719362149891 0.7663487927543124 -0.1866366355880592 -0.09580598865773178 1.06606781661788
P 3.0009718222366 0.8944436435438814 11.479178896617661 0.8319400774273931 -1.4288252758643392 0.7783708859516854
P 2.9734937232056544 4.466294295559901 13.416852117230205 -1.080545441408765 -1.7599080297153367 3.5510372222284845
P 7.941597068173803 5.372496785531196 3.637818485040447 -0.3261737465851544 0.46921141453634024 0.12304528398965907
