# total energy = -340860.68979571515 ev
CRYSTAL
PRIMVEC
9.32324523249204 0.00000000000000 0.00000000000000
0.00000000000000 9.32324523249204 0.00000000000000
0.00000000000000 0.00000000000000 13.64551180582533
PRIMCOORD
 96 1
Ni 9.210238089720084 6.552665707881285 0.141102653633561 1.4367995523190673 -2.031488000215011 0.8143334200892233
Ni 6.111638919584218 3.615405294964275 4.0224647042278 -1.6733096756988022 1.880930626848012 0.4316982480822307
Ni 8.531151559913264 0.08782683390656258 4.210390559624119 0.22409529465514955 -0.6427336242296285 -2.274475503788973
Ni 3.6001244961730756 3.066508560349833 5.368171652759247 0.6664566788781812 -1.3706818347543879 0.8369753258584552
Ni 8.432026817541066 4.0597884515132225 8.409878516376715 -0.9822274849624566 0.1934839975271958 0.867856074597712
Ni 5.205913623569183 6.426009422598526 9.399410462992172 -0.6289046887663363 0.2698244212611482 -0.7149597686848912
Ni 7.707964953159051 9.108055322940618 10.926629806585305 3.197442917538532 0.48406339194750825 1.323149079280747
Ni 4.903420934868474 7.6756132925089835 7.167605514123072 -1.3717668402884504 -0.09860951954479792 0.6333737802812834
Ni 1.2095139157907764 8.173726310823447 3.085114028359423 -0.5818614713346044 0.7587507977279125 1.1697899747988951
Ni 5.943438253939296 7.474725329388805 11.84841159538753 -1.1969984168928869 -1.436242651374333 -1.7897377114822595
Ni 3.7721383690819392 3.987309543762897 7.552490517135841 0.4098793524349264 -0.06361577707843237 0.3654576317864416
Ni 0.7596356385538887 0.5036976421557875 10.307573787612391 0.456312189976169 -0.9096964076722656 0.7215199384009122
Ni 1.490535170924596 5.75407382181724 2.346795989827546 -1.1333800687112932 0.0757963783050243 0.4384412232330191
Ni 4.682124388127834 1.2964625000047634 8.073039924889612 0.4101048381821711 -0.41575843692352266 -0.3124679669632877
Ni 3.685693240105734 4.592546648783207 9.856207520450505 0.3770620487945893 0.9384691089295838 0.7001142190316265
Ni 7.026211975241016 2.136598766430972 9.360316231453883 -1.961672264973454 1.5282740034809807 -0.8170572467782897
Ni 1.1227704429699594 9.138794062180754 8.088895967906202 0.10930453736479885 -2.090715161307444 -0.21744025123247715
Ni 3.3794059906313714 9.074156003596627 9.724569825287244 -0.40051616605247153 0.4653555311253598 0.059786633140329296
Ni 0.4843910661113607 8.088847487031453 5.8204926202238925 0.8637623641443125 -0.41855759693521466 -0.28681658494377055
Ni 5.593602126396786 1.9807607238471419 2.3322769001646204 0.34457333213826463 -0.7745864792085886 -0.48163369946009316
Ni 7.287505243649894 5.531015181744364 9.939758714133976 0.7184307579526272 -1.016198956811895 0.2390650285911044
Ni 5.498877955732609 7.282470691272074 1.8412029319339602 1.645316790030302 0.41032441039214496 -0.519909198001524
Ni 3.8633010601010653 7.762580523213258 4.816824769320933 -0.7620739485638747 0.8718950205537759 0.8383418671886788
Ni 2.962181447187221 5.970969796849857 6.388774246141971 -0.7502520162282821 0.4584474911516169 0.8472090877713215
P 4.100586972263856 1.4391454436902513 11.173108438460188 -0.288081053478491 -0.1594341070313383 -0.2430216992460073
P 6.537785808631283 9.056301989145654 8.057087852448035 -3.17426570809112 2.2552369672743353 -1.5294266290281855
P 1.8144806467019068 7.947637616078735 10.830551900726203 0.7393834489448944 -0.4152655564475042 -2.543115160713401
P 5.811150728589492 4.253870445678199 8.869391435145527 -0.6745615673735028 -1.2166676131870402 -0.17839290752202824
P 5.045591100071035 0.6425170330535555 5.198680649986381 -0.5876292270563169 1.110005912761727 0.019099696943928397
P 8.636970392298933 1.2011323184062197 12.535845226571873 -0.03904811504139727 -0.22059062393600073 -0.42332519352718706
P 7.013923938141076 7.598873661727799 9.536015583168213 1.3010974987973463 -0.6346464763461198 1.70043867070511
P 7.110829748168975 8.843648090653605 1.5301804062509028 0.8880921991389286 -1.0811540215270414 -0.5047070363397889
Ni 6.1986900594947905 9.18209121263001 3.3951939739584103 -0.461996641955456 1.1537552899335357 -1.7916408420422434
Ni 6.100320499979266 8.011958684327963 5.147304907619752 0.5005007115679251 -0.2645788565914927 2.4696638856017854
Ni 8.533566280405589 1.9899161505786596 6.7168806862271 1.0815895664025632 0.005275903686958656 0.5063502283701666
Ni 3.9188955708954043 3.423038777905815 2.4243029236840905 0.6861765259046118 -0.18497133207049435 0.6214148081471944
Ni 1.5172555915076205 4.391425604534426 5.0533154086729315 -0.6392484938945054 0.5926413355589277 -0.16430017687438803
Ni 0.08008854043694973 8.577282976886329 1.048530374211911 -0.11222351078380674 1.772922439697134 0.8230096077069825
Ni 7.583080084453672 8.09806817647898 13.029239750518903 0.9739328490538324 2.1074486720120413 2.8283291770567422
Ni 7.7066969918194514 9.20167935067779 6.21873690120366 0.36768395001379905 0.7102165975729511 1.841558295697977
Ni 3.7797181673841025 3.529472944470996 12.051525017123607 0.6403710375347229 -0.46902320978493417 0.6229330445639336
Ni 8.345758830222598 0.44198428557336794 8.751630458054764 0.22140540652781227 -0.4642808100039424 -0.43813526195682606
Ni 8.713952427453865 6.744547416192252 11.496070311874796 0.37640204661308724 -0.9434447077673044 -1.1952950610485351
Ni 1.9078902398007636 1.2100266942737026 12.135403456711638 1.0532812063761732 1.978786041835605 0.7771223582565648
Ni 6.686799235769623 2.3798795252214267 11.69836515268722 0.3419464360383789 -0.452537296314769 0.31186735726481124
Ni 0.6574370222576779 8.622593948286713 12.358166549913447 -2.5458400158437318 -0.1666591640248678 1.742748744327231
Ni 2.917961295468699 8.609476142368948 12.981111294435967 2.248008824957012 0.7413832529837425 -0.10778295851394985
Ni 4.28729427951984 6.1791205679373 13.527886990780125 1.11589451033202 1.0282926547516356 -0.4292207330760156
Ni 6.923068914211705 6.009474799295039 0.18178929544246517 -0.4696772984291653 -1.026404179479671 0.7423201629757151
Ni 1.0790350999989307 4.628375879872029 11.16254706636094 -0.49363149525191763 -0.38486431844782754 0.47493237618051753
Ni 2.9011887774544416 4.621691113103701 0.7476571331927339 0.2734131670536711 1.106838313667023 -1.5150747311818873
Ni 3.5638663958076244 1.755650969842561 0.46799613952543995 -0.7792111224647934 0.9778650942287029 -0.2996947264580193
Ni 6.7820828011424465 1.2190515955732026 0.28525773772730423 1.0757583044327665 0.6307579399249911 0.25113327260954815
Ni 3.4640983495204836 0.7703583027941319 3.3916054569024414 -0.165229887777509 -0.033146147734665496 0.1771117268167595
Ni 5.249742198991653 0.19913332838405648 12.68485399208764 -1.2699424133507806 0.2812411477385221 -0.9823390708396565
Ni 2.128776563755062 1.454780525796927 6.950614441989984 1.7946482614099997 1.2412710135580172 -0.25659326728285486
P 4.172469192324959 6.429142032966947 11.267604189618336 -0.8271107743595497 -1.461888376966895 0.7556934989588275
P 2.227052890819145 2.6979886495385235 3.904567607757933 -0.7022487488761261 -1.1379090669298983 0.26684836935195977
P 7.90658736770921 6.816727980097966 5.247204411663425 1.0958486474247384 0.23621496073681902 -2.145162641623047
P 8.121394935829548 4.472770918416802 11.758105710597146 -1.3347372983389787 0.9257125805948637 -2.390572638595573
P 5.029471209216866 5.677744413822396 6.027863968017287 0.5235110564201694 -0.6871872265573133 -0.4683755488986062
P 1.9194510637794624 3.2169484439952223 13.092581878027998 0.8086579669710008 -0.3051475220424744 -0.304692693893243
P 8.670375579650287 4.544131036749834 1.6710434524842603 0.52179690194254 1.1961854340732883 0.8590533887044173
P 1.7028627558365996 0.9475307272412328 1.8022988945966103 0.14303638239960528 -0.4689879856716246 -0.26219647240224525
Ni 5.896160077813504 6.212954624565282 3.9369351179247465 0.36167219660208033 -1.9018218684747246 -0.040370947617878856
Ni 1.2584516295522192 0.7408837955955366 4.979438014150989 1.702708183465577 -0.15960868493598965 -0.527013413146473
Ni 0.023235391548155588 5.9728997085946895 6.596103639332217 0.5512375758011604 -2.3848976996979827 0.3389490439729517
Ni 2.828887011361854 6.757143120381947 8.768796417014103 -0.8935179981401903 0.3297537506269289 -0.1494003769444201
Ni 7.666541774983762 2.8761838339779335 2.6419345027585797 0.9026875804546002 0.200838381009738 -0.7272990069765345
Ni 3.848635595489377 5.010144122033122 4.117273716422788 -0.5750287646834871 1.515183745955926 0.13364105722763434
Ni 3.3065821228107133 7.432798695975733 2.6231854567737707 0.5253653360200887 -0.5252282962215922 -1.3196351525902177
Ni 2.1283290479881445 6.386683974580661 12.24092487757721 0.3088879629215132 -0.20236304518438053 0.6769287820540987
Ni 9.007951639828288 1.8934019168468137 0.9882910226867755 1.1262468001006216 -0.5430907783243099 -0.038265728349417966
Ni 6.948045887952781 1.7340490108436537 4.867627132111199 0.04622432107486232 -0.7422499718594121 -0.24516445662062294
Ni 9.29314970878667 3.963339480497386 13.293457720929487 0.7541078996392626 -0.010297782381582266 2.2116099746130042
Ni 5.748619723407934 0.17476329790186246 10.342493069975149 -2.9572185785320038 0.8969470784263971 -1.8636232459178161
Ni 5.959418296116303 4.705861370264743 12.03359455206245 -0.4672458061695372 0.48691731645653563 0.06598787685503474
Ni 8.53465710008745 4.929749779155445 4.002296660332057 -0.24088074164360448 -0.794813861999057 0.8131499413040836
Ni 0.16132756932468287 7.130427209461897 8.718813567472006 -0.42127756696953905 -0.954497623147356 1.0715537794331158
Ni 4.734875309153219 9.316672256285266 1.3009544395151964 -0.34117124843525115 -0.4175476676134615 0.34426762797238775
Ni 7.983942332669907 6.953089763575746 2.8812221156538116 0.23596556373017424 1.2436186878545872 -0.5198788589842208
Ni 5.685380151595424 3.0250014729682473 6.388364955680145 1.0606517878086312 0.7570590118477866 1.1707515673812159
Ni 1.141911065250821 3.6183607636749584 7.4689523759955705 1.1971028036812352 -0.08961142981124567 -1.1133043810073406
Ni 9.277691768337734 2.3779029972508754 4.2153710371801045 0.1597719499867313 1.3791932146595085 0.09632663704789217
Ni 2.319073320391529 2.7737306930892887 10.232864759623594 -0.409784735838591 -1.312777763348752 -0.7912716531737534
Ni 7.361867446919331 7.1550032836617765 7.287945300820696 -0.3877467822019451 -1.2208050323941813 1.3728824419501322
Ni 1.6913485480836212 3.2793209540093304 1.992354179183845 -3.4374926786404085 -1.383248358565489 -0.4136529605447456
Ni 9.038447974694678 2.6729184433460067 10.450647375269417 -0.4711898784189498 0.19361563800905365 1.1454280010147628
P 5.757085229998788 3.1598995069584013 0.12452032982024365 -0.9369824970817283 -0.01578888740314055 -0.29836032391731193
P 0.78230790609534 1.8161868005632793 8.692573294013902 0.16408934641516257 1.9201746599502998 -1.1841508715062574
P 2.7246717771409714 8.442925691114533 6.99430689803335 1.169383997609728 -0.3653056795896096 -0.34669217825348037
P 2.0708978579004156 7.346083192890349 0.6986690739075125 -1.0981826948745539 -1.5640678732511386 1.549218466943132
P 8.222850489487772 4.003047181566158 6.298822644667067 0.0715399170215155 0.34839450565656777 -1.9424707523443385
P 1.2686512597398778 4.97052965341579 9.08589117225952 0.7419465816863803 1.3366237167284143 -0.42623156854070465
P 2.024868996623935 6.579936199927813 4.551078719031226 -1.3268252425807534 -0.004606388423759809 -1.4808785449161528
P 4.969476126714506 5.315405814541632 2.0625460949003203 -0.7393759927457266 -0.9556849585872379 -0.054208624831919544
