# total energy = -340872.2334088426 ev
CRYSTAL
PRIMVEC
9.22891485572121 0.00000000000000 0.00000000000000
0.00000000000000 9.22891485572121 0.00000000000000
0.00000000000000 0.00000000000000 13.50744976435771
PRIMCOORD
 96 1
Ni 0.8977353306237027 5.414992087941227 10.649530276562611 -1.0984776004071533 0.348241010797839 -1.827477649235195
Ni 3.3256487755805946 0.2554212993518088 4.501033247510161 -2.281089923781697 0.8263394434111639 0.6545187897900148
Ni 7.666967341723645 5.387314571636385 5.6905130414311875 1.7012254282724637 -0.09914508033329378 -1.3119568101093535
Ni 3.058868527556562 8.937087549772196 8.940986766390667 -1.7536335095605347 -0.7158750814103091 -0.22917168073679242
Ni 9.168124209717318 2.105041696900325 12.5447470519223 1.0995662054856417 -0.4237080307879026 1.9650095568768027
Ni 6.119536693552418 2.8431795533783464 10.110002364028146 0.4096109292648881 0.12904238211335842 -0.5505611185594259
Ni 1.8562578332692374 6.854472116500003 0.4702621362347874 1.3223643785959225 -0.6715330649598241 0.8706282380262103
Ni 3.540553291977579 6.280165960403295 9.6731710497549 -0.5115322867917383 0.5631962908249333 -2.141780355414376
Ni 5.357209850667264 9.074266143421804 11.920297431557803 -0.8674236150459835 -0.6100507892846267 -1.4547011151898368
Ni 8.840100881266832 3.220863673838288 6.0369249831652345 -0.7815989059706797 0.6832362123293653 -1.2910290588177507
Ni 7.073354295293582 5.4253838463137685 10.552614670703312 2.4001337999214467 -1.0620239855658098 0.721483428736022
Ni 5.67406619187905 5.098357240691199 1.6884309355526899 0.24720077032436133 -0.767525458596749 0.6967013366953356
Ni 5.154099887733963 5.189003644541203 5.565393871107867 -0.4605966762841358 0.21009820904510912 0.511199586042668
Ni 8.481797482460832 4.625043102241671 8.396055324080782 -0.20328452855738538 0.03738563973730981 -0.07143475890221891
Ni 9.028647616214457 0.646329532220289 6.02160775281807 0.3275078920155456 1.2035758130000886 -0.2999160984402061
Ni 8.706835347608305 5.826472495399613 1.0378302614364754 1.8186896186299195 -0.3671370763713935 -0.9694645288698336
Ni 5.377550379488828 0.8980666486748343 3.832388198642621 0.9561500711491145 0.49367854643976916 1.5955574592189876
Ni 4.551350215381329 3.4349375878786748 7.079402926232627 0.47628657621556675 0.5131597950928324 0.32726132322237833
Ni 6.47393626128241 3.46483004380111 4.5052074857978175 1.5897706773338813 -0.3638280666028186 0.9900202415339981
Ni 3.064618141647231 2.141966586108619 8.59684329198164 0.3315350108970678 -1.2258024856087726 -0.6560015449831282
Ni 6.179192400586263 2.5712218839981893 2.400084574444848 0.5014520197376009 -0.3487495750031413 0.011446037053412544
Ni 1.2603744737311418 1.4640104848236204 9.914036504253092 1.1084511666800974 1.9602710137505528 1.416379593901819
Ni 0.26817289130859456 8.12184210785671 1.867593709653778 0.6461462494556033 -0.7826222050288715 2.3954428222036808
Ni 2.733023223063376 4.810682728941204 4.712600588216639 1.4358698414159465 0.12950363802049308 1.3004570369998703
P 4.478155689934946 5.392925752000955 3.5100729541649742 0.3043412240910952 -0.7547072237861583 0.2721900932798474
P 1.3662393585370256 4.380015407045418 6.938506925591491 -0.4110759438461888 -0.252338605771559 0.39038859070016635
P 4.37828959992671 6.587922591352803 13.115680039559713 -0.8790545144166926 0.33203663312383463 0.9218057893412899
P 7.906651495092453 4.81773362005721 12.820839275255297 -0.6954893186651054 0.30924431781966744 -2.0533927707079025
P 1.4051392355710068 3.509248812048928 10.971696935507577 1.7288933265013775 -2.505616135326678 1.213362460073207
P 7.163373132918601 8.727443514966996 5.506217144766327 -0.05451535743906095 0.8073104518041708 -0.08136873018647922
P 1.4136667530987408 4.628605463459967 1.310361969334192 0.640825094353006 1.105457374159096 -0.517364062982167
P 3.887892739676493 0.9108846888201478 10.6267163985014 -0.3378285572152634 -0.19479217481565808 -1.1255945112286034
Ni 2.32528052620968 7.958794865256627 6.325700504483476 -0.9826745998022043 0.6775299059732073 1.993170592692051
Ni 2.384936233243524 4.205385876028338 9.05249051830634 -0.3425804700779519 0.6309762265833843 -0.19673181504053217
Ni 8.77204686151628 7.778452635809171 6.868875684254911 1.3392513841592482 -1.4379637478304979 -0.6008423833124814
Ni 4.974219104040172 8.691663011227792 6.025011376697105 0.5926043116734052 0.6481355119714902 0.1149535081204601
Ni 3.5287125939385287 7.073058970011236 4.65274922818324 0.6299835236528118 -0.4488770738543625 -1.0108158381231107
Ni 4.5286286264708515 2.488189335083663 11.930779633298062 -0.18971064652769262 0.3735378376914147 0.4408061239207699
Ni 3.1453988352838715 8.013153175038395 11.39720806255191 0.7266850275416193 0.3557524886835357 0.3818592130729166
Ni 5.342582020276075 6.739110678083688 11.096113785393818 -0.05777140248251341 1.0323053754554543 0.3992990058159188
Ni 7.958573371294868 3.5869562769661574 1.1605766776944488 -0.25375682627532425 -0.23869967483188567 -0.034260206734450675
Ni 1.133006216804457 5.954726728173335 3.0986359226074343 0.147574636589591 0.6054567421560412 -1.1887181791619656
Ni 8.045685100671795 4.817955114018969 3.382765608077773 0.2895815492834174 0.23648595501001854 -0.39476589383225563
Ni 2.7510749809467607 8.972729619785301 2.2294050190791417 -1.4815272342437453 -0.3084184794842624 0.3781979621712454
Ni 2.611016965794281 0.9157169487525304 12.596008137805466 -1.0647316143049599 0.7042259272071549 -0.8398449340967666
Ni 6.095292333654846 7.003860564791594 4.2996241736248715 -0.41585742439523216 0.2795208226133057 -1.2494810601726352
Ni 0.45176185307883987 9.303576996248218 11.490598222853206 0.3904083881945083 -1.3010285932326238 1.0548958591614608
Ni 0.9074635300024736 6.428400794310723 8.331233270388902 0.5872214500949371 0.07058603774867844 0.046231263053397795
Ni 8.551900321357659 3.126636450939842 10.670196586086265 -0.6109802430774316 0.9722415773943386 -1.758082546470824
Ni 6.477673971887099 6.495698043025264 13.451434430167108 1.7963158789204094 1.7377955140870136 0.2457609525540413
Ni 5.479483746473484 4.713474566474081 12.460231416355493 -0.7763965358341338 -1.0472010616203642 0.5460508893938983
Ni 6.987959144120289 9.06236084297724 2.6085048551113275 1.9641996593809978 -2.3028450560706015 0.8416058826519313
Ni 3.07360710492863 5.526135912169042 11.837672800689516 -0.7195191059207996 -1.284075767428369 0.5741818433021596
Ni 8.419336185244703 7.226148213247222 4.431605042305194 0.485108545382571 1.792530186625732 -1.3611432991363333
Ni 8.319414721746027 1.064453835639946 1.370371143815344 0.08426430656671939 1.0164090159401722 -0.662325430318627
Ni 7.9940031762612875 7.846239017022598 10.98293498539234 -1.7420725441958125 -0.45802480179190147 -0.7322553225405454
P 1.6818405672988428 0.5549512754049724 7.394113544689869 -0.29191405407133597 0.8248816279187148 0.008599054522920676
P 4.726967240311253 4.4607868717669845 10.448039988224677 -0.46991178303747455 0.37793339565594913 -0.6207800027766728
P 0.8646792026141381 0.2646382168355187 0.2793204978256399 0.7127157098457209 0.5925441478594311 -0.22819517575613604
P 1.4068096691992749 7.800638947645396 4.31237484269015 0.29629547096848324 1.2324091922920128 -0.8832497834449627
P 5.023418450295963 8.866504807291559 2.20582052660931 -3.048092162885125 -0.5462887164363173 -1.4172583969623462
P 8.455827315444552 2.5919684850829796 3.2461509011391443 -1.3124396632830428 -0.22951569433977248 -0.07549838744863127
P 1.4822652788386181 7.495512557491781 10.303253076988634 -1.4811636802567394 0.3129616187702546 -0.945156034031456
P 6.761583086287186 4.216211393409324 7.030736088376566 -1.1667236771687457 -2.5149096448134625 0.2933181335077142
Ni 0.3129949631451159 2.343341513008138 7.968463076687422 0.5735506374760638 -0.3156923874378563 0.14954641560398116
Ni 2.055934639795268 2.350281657143263 5.871229041939113 0.22325248703888004 -0.2772950186065805 0.45260980142391727
Ni 0.556385448807364 6.798101903232254 12.278258437614584 -0.975655488171894 0.4969209646364668 -0.6117893692422883
Ni 2.2678951322838685 3.1520897987120176 13.102145835604711 0.0810213741493895 1.2803566667055692 -0.28129874044933495
Ni 0.20992828538945826 8.960593596463903 8.952157445195397 -0.5306690076211893 -1.1148614410818154 -0.20467806647080233
Ni 3.564640760318906 6.710011908857558 2.089305473808832 0.786110420687788 0.0983395537128629 -0.3931360715383165
Ni 5.322499901076563 1.3815316708134922 8.342741727485313 -0.7315549540394111 0.014590753329981325 0.37049802242382646
Ni 5.253218435621261 8.526493118160849 9.358217710831228 0.9931096790925992 -0.9771089327889687 0.5614008894874074
Ni 1.0486816197796676 3.7076335704646963 3.939069842432492 -1.4792505223944266 -1.213166027791685 -0.6813593070216265
Ni 4.264792402355203 2.9824069661742283 4.217741547528479 -0.6739275333339297 -0.5674370683791582 1.4027231794606487
Ni 0.7991031465607682 6.028881060787341 5.499220704249255 0.7147507379978787 -1.2467816589636014 1.6032525138704
Ni 3.8455320194900224 8.600555161624124 0.10729075218470936 0.7074727162792267 -0.9992970388502339 2.302071668239687
Ni 6.926799123929496 2.8498889746366394 12.493918802156072 -0.2540373336302206 -1.061174493081321 0.3096608365317957
Ni 3.305003692561611 3.672148392007838 2.292957174056936 -1.1524581683886668 2.1016423497429098 -0.9187261219747016
Ni 0.5215361425990563 0.6343697811767928 3.512761337125828 -0.27450562878690143 -0.017479130621369895 0.5055058780920004
Ni 6.511008813131878 1.6287281610519713 6.3633729358127065 1.1278547680176898 0.8185325457722354 -1.180986871955979
Ni 7.143069519757329 9.119081755017774 7.875789080195814 -0.032187126255505856 0.29949418041143905 0.9935025436556436
Ni 3.1599066897791066 5.706524286191865 7.152235678208136 -0.052154313406052116 -0.6302066954072114 -0.3027342846152915
Ni 3.909571461183687 1.6379386182951299 1.4712311879769746 -0.15984805464030533 -1.036545381678731 -0.34093933493010314
Ni 0.846489933896161 2.583560943451199 1.5029878847442177 1.5073691350075136 -0.6814215277181296 0.5360559829647156
Ni 6.517007607929526 6.930499918873892 6.777133808185706 -2.7540001273258636 1.0530300095973155 -1.0245774106835772
Ni 8.377058525293892 8.070880038821919 13.52338858942764 -2.033619444735717 1.2750427106918234 -1.5605500899058673
Ni 6.017981712085768 0.8308450770638941 0.45216423377603593 -0.17012295420375217 0.3955323396846349 1.2087496438915442
Ni 5.807867002611829 5.416145702325391 8.608001050305266 -1.2204569050261433 -0.21334037013149065 -0.32624368059114134
P 2.2293182672774523 1.9439878999560762 3.3472269019134893 1.6952116179782162 -0.033296043048968466 -0.14826934866377045
P 7.238044284776713 0.5166955766431077 12.280649649510076 3.151857258488933 0.15265822176008548 -0.4900939144123043
P 4.386254153634972 1.613565053586531 6.01797432895371 -0.7858137153829757 -0.26897570010760774 -0.3736471095757694
P 7.623028477059639 6.833993153952338 8.466590999094548 1.792875485780293 -0.2647927723745117 3.3328089278770725
P 5.224138124225276 3.0466863596597986 0.5805772038890189 -0.13547913887763766 0.9544767972117498 -1.2052681131008467
P 4.346274493537415 7.407976298021481 7.609259858661774 -0.17349521311009478 -0.257479269432234 1.1305726811694852
P 7.540235879937018 6.736941883041462 2.411701009847617 -1.6566954641808886 1.563104738006921 0.8359407139463539
P 7.990505417448504 1.5371034922041975 9.267542697344497 -0.45331145547663215 -0.19006237344015656 -0.44276504741935363
