# total energy = -381165.25470903533 ev
CRYSTAL
PRIMVEC
9.25582185006650 0.00000000000000 0.00000000000000
0.00000000000000 9.25582185006650 0.00000000000000
0.00000000000000 0.00000000000000 13.54683087039342
PRIMCOORD
 96 1
Ni 1.5084582723134445 8.189152966959307 1.2616582679541763 0.5195477008970472 2.4688408754798576 -0.20465312677013786
Ni 4.880566971517312 8.348353098782734 9.880299869615268 -0.8959003823294376 0.959051818176942 -0.2795866428542346
Ni 7.620058774798643 6.038673883959803 1.6938690397937077 -0.020763972020228755 -0.2288243246997027 0.4082269044331679
Ni 7.516421340145915 0.7863699767239809 2.6303749222309603 0.34864724509732214 -0.34264243366413893 -1.8236212516035821
Ni 5.150105752844638 3.833557685951365 7.919693785697891 0.3804301939358738 -0.9204973549425114 0.1147485911985056
Ni 4.577151883069418 8.657525308276801 6.997398366190204 1.1708729234504285 0.27554152625058353 0.22570069146905647
Ni 5.13475960060259 1.6326621426005705 8.324838683963117 1.2568439282956096 -1.1462440691581548 -0.10713401207604129
Ni 4.924809798849636 1.2115592822843702 5.713280847080821 0.19145154047819932 2.587441236324286 1.7653592826378952
Ni 2.922173954548714 7.792022684632798 8.169768499745482 -1.835308458133523 -2.5314143273367047 -0.9763062343820154
Ni 1.736540228615357 4.82704981092411 8.063954095848285 -1.9219752034941482 -0.6261713489955733 0.7636716320682977
Ni 2.4146124645021283 7.65793359685803 3.5701184910700636 -1.322029363854007 -0.8529729868382924 0.8661378063550245
Ni 6.637960566237213 6.570976185190346 11.199503431730642 0.9626837585025743 1.0231229376252378 -2.470631134611061
Ni 5.764840401401892 1.8494705081721963 1.2898339145404376 0.7083072963653801 -1.0086298862153855 0.9426834041212473
Ni 8.59792707288081 0.40520413552357837 7.506434308620481 -1.5543956402686971 -0.24351046595696774 -0.015425590526450851
Ni 3.245017012572037 5.393293210026541 0.03344683699750796 1.9540396881288604 -0.19320014773818983 0.6579419565389507
Ni 9.207598787013213 2.785826446299243 11.360101192618332 3.052542485346995 3.8257577952396686 0.25723527174222793
Ni 0.26761449601301956 6.74917851879479 10.790172125347755 0.6947843221782809 -1.0505190702500038 -0.2126981085618014
Ni 7.948464581614167 1.3811814692492612 12.06635185183785 -0.9071451020053215 -2.937156774785122 -1.1394656127837408
Ni 1.464289491554061 1.4485453389824534 1.7189439861380593 0.5182199832245592 -0.6142031208901034 1.1491761552032855
Ni 3.6982560855446875 5.36975565565288 7.547684728823822 0.05301280475160547 1.7585936817792875 -1.5695759475535613
Ni 2.582957348083785 7.781804257566922 10.363257534637839 0.7137220396230483 -0.8894060328543457 1.7511179422275327
Ni 1.8913808684568754 4.002291314040963 5.573952038688308 1.132123827706689 -1.821999913950075 0.38559142642183913
Ni 5.909795823755769 6.090182531261977 13.306929986057849 -0.3447569089039805 0.28646485803130667 1.1021100549534182
Ni 0.23026447903935232 8.716512659446028 3.1562490553480496 0.13351327340051847 0.17999547612245775 0.06642239328929204
P 7.817050426286898 7.397502544002462 3.7930042291158323 -0.23256630824063818 0.7617271067474172 -0.6097707961503628
Ni 7.739384827093272 7.430406989853176 8.982795242728269 0.4450528150122658 -1.367019298301136 1.652264682103045
P 1.8122158261611907 1.0379663478455108 10.710625743201426 0.7883171985311198 -1.4847028037582495 2.2041236935382877
Ni 3.39100908694709 0.08355415290676996 12.266018435773603 -0.260046515938778 -0.4048633872775737 0.31967348357279135
P 1.4305149984712884 0.5072773363229247 7.506054819934157 0.4700416237471195 -0.027506947171017142 0.5290630965866501
P 9.18457955865014 4.92671649810287 6.915155763206653 -0.02620288364761294 -1.5930951137214242 1.6646442867143203
P 1.1235826978086911 2.6113912320931787 4.163063084375065 0.5729166034364908 -1.403763962020337 -0.8915966127477613
Ni 4.607325861542928 3.9814379479364175 3.6219483153823684 1.2330067166666958 -0.732888328138854 -0.046411240274687814
Ni 4.6343436048448226 7.971141344577389 0.6204843649461316 -0.9674456986675919 0.9460867733758415 -2.1103316499867915
Ni 8.930109254916331 4.752882912301952 9.44207281372427 1.98749771067699 -0.2645184356672025 1.4154257146289817
Ni 1.6764792021384838 2.737372220130892 9.688828390139772 -0.3064932374370915 2.456210074089725 -2.3701138565205895
Ni 0.7041634714447397 2.5447770839110153 7.021376497672866 -2.1626422864650494 0.22064281733017485 0.5121007577006987
Ni 5.22689204898459 6.661100120281317 8.542428240879273 1.5323695137065931 -0.564649221221376 -0.33121825098759733
Ni 3.5721084927178564 9.185523652455139 2.3819255304594282 0.38305811847702415 0.513001158027781 -0.8607027513823823
Ni 0.7916171019990218 8.86792864528902 9.625564849383196 -1.8157058534112471 -0.24581751682358957 -1.6144411834973678
Ni 4.486592924362417 6.883878490796321 11.599189246405782 -2.9130457406695314 -1.0805246154731585 0.559596746399133
Ni 6.231528183184975 4.354317977624707 5.854181293984011 0.5185665679307004 -1.1502922710855996 -0.14480170183014415
Ni 4.684232483363908 1.472184707393909 10.932549801381121 1.8721778203560469 -0.6842438276582732 0.4823404957191305
Ni 2.946766672586787 2.4953509964728116 7.234075278446259 1.1211770988871983 -0.9154667344971394 0.9502969548024472
Ni 6.791338786263145 0.2904226916432108 9.763390512345005 0.6107979518632966 0.7012187649497149 -0.4196523726612902
Ni 1.125989211429278 6.1371002910418 1.0631051593590242 0.6521590313085865 -3.897437837383475 -0.6975870817343987
Ni 8.773232334318932 1.6860034425830366 9.463599078060415 1.2309490628067186 -0.5989515940476716 -1.0727778816482039
Ni 4.022163563054039 3.2154076392172026 9.817306598849926 -0.5695574571562707 1.2112772954094042 -0.8094231272717994
Ni 8.380174613504185 2.493175878392666 0.8817419626721551 -0.4490135994322267 -2.086465642002471 1.237220240527411
Ni 3.344998397685796 1.8656681960030683 3.718550400023527 -2.047087911535797 0.6575953718328095 0.5768179953734259
Ni 5.759407234112336 8.61762346128315 11.995406904720793 1.3830275008039343 1.6689431711999902 0.9497318263275967
Ni 2.2262750062263663 7.154768622079823 12.660447869352087 -0.3271713346117333 1.8193470497082604 -0.22718164688995715
Ni 0.40531890771163714 6.347448093124312 3.1444904595649983 -0.594567091826731 -0.12448355909808241 1.136246591625811
Ni 8.786569973269954 4.055114288012841 4.637960779932997 -0.44496771149762726 -0.01904056157121882 2.2696233179029948
Ni 4.597496178984993 3.1670922503731163 13.421020945645541 -2.34017567420026 -0.5312791304013624 -1.6840692282081513
Ni 2.864741581411251 3.6985892951229222 1.7294558227492145 0.8062658125897404 -0.6875497521030546 1.3644649073103983
Ni 8.260071072193673 6.266246770072747 5.718726972520642 -1.7540875663788178 1.2386328046042216 -0.8847852462528826
P 4.0257640776633 3.7502182681061242 5.974599533229521 1.3155920928690956 0.3730812097699704 -1.131983959694715
Ni 4.209779067243623 6.606537051845322 2.3365303533357076 -0.2521156911274755 -1.5895007115019464 0.6856561346247675
P 8.470770595497656 0.40557992188125463 0.17501000072852013 0.7185474860361496 -2.3614294413727137 2.6753680793442567
Ni 5.933416680523989 8.118105280222293 2.521159929471442 0.3666243984010331 0.22818797666728444 2.8821199976249527
P 2.9668610613186854 7.435432900991555 5.996193365063478 -0.38314527887419175 -1.2374866068149202 -0.7872072532963927
P 2.673581097542109 4.9485139580124144 10.094529563284217 -0.2032223078608823 0.2352626241258787 0.9595051036642765
P 6.994605884808161 2.245082835753413 5.359220679487681 -0.40167599068852755 -0.10498868359826435 -0.2402089123875605
Ni 5.485249797797806 1.1682698045786626 3.613996639030653 1.292209195168781 0.42586132968547946 -1.3191476714308379
Ni 7.949584536029902 5.026633092465305 11.97668515433479 1.1873238699176003 -1.3544178074870417 0.3532212376212497
Ni 7.202436103410675 3.7603719044206767 3.054864487677056 -0.8089284470235681 -1.2962766803699353 -1.2477365666777027
Ni 7.252639679864761 2.531393165851906 7.651114833072314 0.5114189011423257 -0.24890258350681652 -1.0030415934943306
Ni 6.988617368221548 2.7226832312236953 10.106748173401666 -1.9992571652057631 1.8141217967535788 0.4837908550124119
Ni 4.371765201373961 5.884962454355638 5.138841417935969 -2.7341980049982717 -0.3425748136509971 -0.4140013450230999
Ni 6.038942302786716 6.8005853520591675 6.022433619349491 0.9048095118936095 1.4883457998274754 2.2881776838664143
Ni 7.038358153594752 8.886736474816066 5.412811886653823 -0.2804096529761622 0.2533171676347444 -0.0028341270146854418
Ni 8.701425670209273 1.1792749764820378 4.484651052987036 0.8828584615438149 1.6271432044450687 1.4390232994432635
Ni 2.685632177288278 5.243302620712667 3.652536954664349 -1.4015276164906507 -0.16334835448407994 -1.2964733697617734
Ni 1.4548300418608315 5.082149510527917 12.253447178852525 -1.3281164505883516 -1.0486989863221294 -1.8538455977057624
Ni 7.052612118885919 4.752679284226365 8.534679267020982 -0.8093503650523353 1.3988171595380232 -0.9970342109579862
Ni 0.5556260461248348 4.016026953321542 2.6057461064885787 0.1207559737348501 -0.02537293154714985 -1.3968466660752137
Ni 2.691611438053274 2.6984607460503285 11.90128352910884 -0.07058758041057521 0.3814149264466463 0.37959972761477856
Ni 4.267998185218587 8.619900393401089 4.5169871913904265 1.4664438575480616 -1.296675972690883 0.03614662512388613
Ni 1.2248784095921557 5.9768079722674905 5.319867702715956 0.8723789021687298 3.4146175738144486 0.7083623179730316
Ni 5.162267902450219 4.578808675138975 11.441504292581163 0.3685087599079395 -0.5021935258893158 0.074862039416213
Ni 6.680130089527187 3.9479318736805564 0.26401675815024245 0.26867719503058246 0.903146779479206 1.0567244277297672
Ni 7.035312988282547 8.124066029344055 0.6716422166089957 0.5066039962521856 0.9838735052063121 -1.6560974255855736
Ni 1.1651691043367527 0.8365920648213017 12.87908055736455 -0.160253260498524 -0.10560240592286328 -0.09890391085676514
Ni 0.26084016017106804 8.442096060126204 5.70310684795871 -0.011763568293831354 0.16094385880764542 -1.915815611650655
Ni 6.417412848732061 5.758222488945278 3.967257103636029 0.3262912459996251 0.6505225241464281 -1.2697464952898905
Ni 8.937088144416034 7.160812673596143 13.204935459742254 0.08281908947976059 -0.12604447582729905 -0.31941431637413376
Ni 0.28388993274547974 7.260831081996373 7.573274298850114 1.1578713689844382 -1.4002274096219884 1.2541041607669434
Ni 2.395795379153464 0.24334110382075572 5.629670233662185 0.02520349584882111 0.9270613813132743 -0.3359519090178408
P 3.685316446923225 1.2135677955753983 0.6680333717602774 -0.6777548774998199 0.08890540488315657 -0.6130877763387377
Ni 3.239620868568952 0.616919948041178 8.863650604537344 -1.599773039962232 1.173526816133508 1.3669843312981427
P 6.570902138617404 8.48939330859235 7.705071645192353 -0.3642885511790049 0.6142434872097357 -0.7029750855191893
Ni 1.2659464901096293 3.2172495477191134 0.31007928001259527 -0.43272000447852565 1.011837851629722 -1.8383822119628406
P 4.7949598773757485 4.596968597152787 1.4858435233550618 1.045288932199316 0.9326769277278388 0.2732321613911165
P 8.759533718324825 4.54222041228444 0.5673402139641215 0.9220682989740572 1.4940019696719884 -0.6968394049350967
P 6.402547999214129 2.5472391324613075 12.207035712515186 -3.5472026789737425 1.9624970748675945 -0.14270702408464456
Ni 8.206415074276208 8.438763964343853 11.433335104421433 -0.26107649986518905 0.3727937604365386 -0.34239200821622967
