# total energy = -381176.4114553332 ev
CRYSTAL
PRIMVEC
9.13987339363645 0.00000000000000 0.00000000000000

0.00000000000000 9.13987339363645 0.00000000000000

0.00000000000000 0.00000000000000 13.37712858415160

PRIMCOORD
 96 1
Ni 2.1835249427986363 5.068452925497944 11.666502085344472 -0.35970530268369666 0.13108075269962585 -0.2823318096995396
Ni 4.097377915043471 4.962220174650736 8.144249802563362 0.12322731809347809 -0.8622361573077731 -0.646765371096841
Ni 8.423472027041301 7.411614900585775 12.997686287645266 0.41395712204872576 0.3180097227171233 -0.2358498640879164
Ni 0.7237847623711724 0.3069059876235212 12.365603705072786 -0.0622158114071122 0.6000324858166762 1.1099205521367723
Ni 3.1519036905412507 2.45561897985631 8.33610488929086 1.1542633399182056 0.3381430031318886 1.3102534542650015
Ni 7.607601210180256 6.961686342902263 8.65953759635703 -1.1422493461764651 1.7972972689970725 0.7717263840519742
Ni 6.830638835232364 0.23669256464465804 11.772234885105785 -0.649402551609372 0.4609669151393609 0.7491508127443033
Ni -0.39730939138372146 5.005744252731645 12.637213328829684 0.9935917609353405 0.5126813127945171 -0.7049805459849923
Ni 5.150419311938427 1.3697562968654817 5.296419652817141 -0.5153647731639511 -0.9637623362787339 -0.5446226415878039
Ni 4.56253350214378 5.258050463446361 1.49742205130356 0.7781973364882984 -0.29587252449845175 0.3911460376914812
Ni 0.6812541885505317 1.7773672397832208 1.2535007606290425 1.3488891643593286 -0.7741859013360602 -0.04625260320963647
Ni 8.119571229857302 6.704682237157395 5.902912417285689 0.15467705196232717 2.6315140582737837 0.167709202555937
Ni 7.076537994553816 5.907045468127391 1.3461671970924836 0.7873715467883988 0.6205115796066345 0.4435080962329652
Ni 1.0973515041054238 1.6998793914065007 10.241021807117445 -0.43779304812605896 -0.4265943511967621 0.6401995449538651
Ni 2.6864739072329558 6.572601923770749 7.093636870083797 -0.5096355839896578 0.23174355522902668 -0.35646725536237317
Ni 1.7748629144169525 7.101105974789323 12.909130052339528 0.10481847656898723 0.48469099822917816 -1.0301870435608709
Ni 1.0642011825599693 8.429943057549758 1.3835693878364344 -1.1410746091420736 -0.14053855567841603 0.3190957566924504
Ni 7.7446261951842414 4.695747159856767 10.161360496798759 -1.2812508963850644 0.2861444985774104 -0.09302045549279464
Ni 4.734271727078738 7.124988464504866 8.291719835116877 0.7468332203547202 1.0959142105553514 0.6216037842295488
Ni 8.592093555078822 2.71165425899963 12.129135981318676 -0.45721130475167066 -0.39489239210779087 -0.023928742901455566
Ni 6.992039863126266 4.185230380082046 2.921243442472275 -0.8245512411624896 -0.5544535116352968 1.8290933304617467
Ni 3.4455495495465898 4.6910858243210125 5.902484671201231 -0.1751129512191758 1.4539961187030122 -1.2255582308084507
Ni 1.0955143895119206 3.8624648837886393 6.6853541464564925 1.271754269748539 0.30892292992450665 1.297955867844571
Ni 0.4715452727337329 1.9014958631382852 8.100761369989492 0.8216721198424817 -1.1348659092282003 -0.9783052670899152
P 6.792982556002346 0.16712807269136062 9.172403323646828 -0.21988485611822775 0.5625062067364441 -0.5768866438278323
Ni 6.524215432934897 5.2923981084333525 7.5513489441246575 -0.35871259975312414 0.7267469911278064 1.2156903368754355
P 1.0551709874436446 5.787861516389666 5.657897083741309 0.03584709160559633 -0.537500685831042 -0.2758325751284411
Ni 6.462183110814963 6.429919357008661 3.834474020890113 0.8803400659973354 1.825784577803488 -0.45044261856926937
P 5.1995735521566395 8.67704868018635 4.065590348651705 -1.403849579755608 -0.8297410128935453 -0.10273074080202307
P 2.2800237282623557 0.7304422463010618 7.582878766080918 -0.9249818730764263 -0.6248634288174271 -1.6699361312408787
P 6.153822055314397 7.268712976857298 13.226235224912752 1.6493765619219725 -1.0023754206652415 -0.8746180759118938
Ni 1.7552396057987856 3.6903062246681033 4.480415393801544 -1.0995173545255774 -0.06633266178896317 -0.8200829209784909
Ni 8.054952323508703 3.3255795686793066 7.33685987441531 -1.2027574308638511 0.736359574516906 0.710492476942157
Ni 4.84744164198798 1.3734305260524884 10.055280381840664 0.7078673806144842 1.5336260118215137 -0.19451860943929725
Ni 4.369636469825936 8.22689162566285 13.05666680597032 0.23953039826329717 2.1116238864356536 0.455800283336757
Ni 7.734883089927155 1.4621238594622186 2.3415195398019977 0.35519250241500766 1.9280790023990408 0.5426390354988719
Ni 0.5951136218371469 7.976376830173639 8.311946375392612 1.055076607713699 1.3592016020289301 -0.49419533817518757
Ni 3.2266221572173164 2.4447516701464824 6.0449241173255714 -0.5316853647008456 -0.8071914097278033 0.25744070288481474
Ni 0.4851837921189348 5.813517141583516 1.3091671607869118 -0.019460422717456807 1.6880567521009895 -1.1196511491609749
Ni 3.9521453235471173 8.832673307965356 6.4841087535928486 -0.6668410588007935 0.5213161056513796 1.2695721744955555
Ni 3.318733803353267 7.360248810956478 4.792757778242059 0.857069268394853 0.6661080372895108 -0.6313330957021708
Ni 6.498669486224242 8.572982079382228 6.990018123086052 -0.8464069035850005 -0.4614824213231987 0.17407962485865502
Ni 5.276019454943015 8.31159997418319 10.30626222487081 0.033321496970265194 -1.2924099983256774 0.5656123564655936
Ni 4.178412034376804 4.6856110400349005 10.43577880371279 -0.0768225055766935 -0.44176411695866497 -0.45338935990241913
Ni 2.909605641418008 2.7696284772413775 10.842109250339238 1.5779716278164242 0.633906769966618 -0.7739439605285832
Ni 1.963491625763821 4.339675964166713 8.99820555872624 -1.3185887136035743 -0.21593024234585392 0.6064466168731363
Ni 8.60408506924139 9.011622893170333 10.28402856835262 0.5054179463638844 -0.4622740639865587 -0.48438349429108835
Ni 7.50477763218567 8.573749828764587 1.466333685242157 0.9913572151778668 -0.36729211389201905 -0.6019039918077764
Ni 4.276729654686828 4.17052432346042 12.648436179622534 -0.6946498534829456 -0.069425441781674 0.9315307299385375
Ni 3.209256397378231 7.205995164217401 1.4431915252881753 -1.0452861039858385 0.11671934177163124 0.9104155452264772
Ni 1.5201163574511651 7.3769473600227995 3.5273614721232427 0.102420665760772 -0.7527074197473101 -1.1335608172635316
Ni 7.936353323681347 2.453270032341234 9.790453458281968 0.0690397763074811 -1.7298114674402725 -0.5659003200196576
Ni 5.463779878297929 7.7963396000103184 1.886228618277649 -1.5084145455528926 -0.04346964114786062 1.161071878199607
Ni 7.277304458040846 9.08023592428192 4.266755310627673 -0.0826897629907479 -0.5476107776818504 0.5296642205057588
Ni 8.430546289207328 3.5794029984115427 1.244678040643427 0.017831885975098324 0.843740926717063 -0.8788927920278475
Ni 5.929109122996629 3.4914408548897735 8.927066266551746 -0.4252596915457386 0.36803464848499845 0.7649096182404568
P 8.406672939365384 -0.08836064201070777 6.407604355615436 1.895268640737239 0.5783534581813459 -0.7623220600189387
Ni 4.430023614697957 1.8324441180939208 12.37441911315952 0.8240974414545226 0.11309537186579878 1.2137123872134583
P 5.778566264938956 5.763522032994148 9.758147661057109 0.8110462646975194 0.9844941695094465 -0.6505610906938474
Ni 5.63735521782639 1.967979303701185 3.03909662861391 0.5701570384134825 -1.0122947366614825 -0.24610342349512454
P 0.546167770737004 4.011152347505611 10.73016956241649 0.7743951891333889 -0.632934892971652 -0.15807116524554066
P 5.202534871202883 4.90802072420559 4.439775859828644 -0.9872671042688933 -0.7265459308605939 0.5608396176672986
P 8.510867498399898 3.4368575297534476 4.2751968978841886 0.3887649390538144 -0.6049808309608872 -0.37574641530695935
Ni 5.094428446267776 6.7759092721184455 5.994157603404404 1.6219058673055293 -1.3626792761648854 -0.2592096218597794
Ni 5.814687045404254 1.0224045405893698 0.7839571202136042 -0.13148338745468324 -0.12443907901339216 -0.3582035213271896
Ni 6.0086717226804405 3.451746383847064 0.9762719425831587 0.6505055548655636 -0.7955011178740687 -0.7136693320082418
Ni 3.0211120993321368 5.526991244112201 3.342436237558899 0.3410313804232772 -0.1449279429953633 0.21244562623136315
Ni 5.399407748536518 3.4988532923789832 6.38569242264795 -0.0016398495962681437 0.3376346960369024 0.04969222501880474
Ni 2.481420843027752 0.691390308372398 4.730661477006928 -0.28855825022522563 -0.3965209288501494 0.10808712001792997
Ni 1.6677161762097938 4.003319475830823 1.9738352207163965 0.4287885306346034 -1.2443283123271023 0.14696914179510817
Ni 3.846552363851877 6.810521973439823 11.491194739768904 -0.09234374114074419 -0.8787398113897511 -1.0637612799718905
Ni 0.3321859640124302 6.27192750196738 10.295145396611716 0.7657333996933329 0.9407861870985346 0.49310004822847986
Ni 1.1711468435479384 7.897344343158601 5.802316226487305 -0.41457084437332475 1.860249701459893 0.5442979112585336
Ni 7.229247002654577 2.178150697122119 5.475633380369145 -0.39722772510918686 -0.576812081836155 -0.3214174628470916
Ni 3.9177885386865263 3.21915488048651 3.639020565926484 0.4504809280063725 0.898824497954768 1.0081902275748058
Ni 0.09473296188429227 5.722931854338684 7.77960266347488 0.9700972773578259 -1.0518681280787305 -0.037176094829665
Ni 3.883057019008355 2.562546361097081 1.3379669024989953 -0.7950437186216759 -0.006459896692730811 -0.400816985122342
Ni 0.36576037569290254 1.9687836125779423 5.5859946121212545 0.5889957683865404 -1.7427178910892953 -0.03576893006949324
Ni 6.459898142415083 5.056040977149797 12.679417609162822 -0.6077511946171726 0.6169122922911504 -0.9380693023880037
Ni 7.2342190938927144 6.901143820179051 11.037000603076496 -0.894081326842828 0.025255175022362953 0.5180731732340497
Ni 7.293701391278383 4.767879042304169 5.591011488740031 -0.46267721296224834 -1.934017993591295 -2.5895055750524825
Ni 9.313622596645633 5.342813651208298 3.501316488314054 -0.8207130983633218 -0.02349705468067566 1.7734538867205716
Ni 2.7386168861182103 0.5971198240922413 0.4078494936186865 0.14192103784823945 0.44359962750550697 -0.05259680026010942
Ni 3.260960662330709 8.984788224282147 9.220948848283312 -0.5652320903080394 -0.786982024659464 -1.3428285599875454
Ni 1.8702283555543315 2.9533399365917052 12.811583837361303 -0.1396949767311981 -0.1809652962348948 1.4501471772705672
Ni 5.732949155803757 1.5898170335210953 7.724289062437952 0.02806101990227425 -0.8704714007333719 -0.02674615774559265
Ni 6.19422943649787 3.0913063285764415 11.358895069415869 -0.38174942696792963 -0.23245112281901256 0.12374205294636753
Ni 3.5406590742231825 9.467629466797524 2.6144526172561076 0.9641086638745591 -0.6109535036045541 0.10718774813211218
P 2.2168032225744843 2.0589484656371955 2.981949568932919 -0.9592698477250189 -0.9220281897647411 -0.5135652580613672
Ni 3.0669668451809224 0.34757933912873973 11.418396560536095 3.0785052279593437 2.388261473963893 1.7760671559737027
P 8.604450664185372 7.430598418051975 2.8279783442880655 -0.209130188704885 -0.901329523764809 0.2941192892527709
Ni 2.509818430301457 6.570472333222061 9.393835041342369 0.3384111691916107 0.8316698544851419 0.8627012698696497
P 8.101620518107845 1.0602801767857757 -0.04317127895996701 -1.216101713381241 -0.2657906175114068 1.8791460241437639
P 2.644403069054371 5.178661521360941 0.48068971627005147 -0.15491102235000417 0.3613520942585003 -0.5294076244102625
P 1.6758141042189674 8.405850350741428 10.818030253341306 -4.047436767143842 -5.014518654714113 -3.2429856391653376
Ni 0.37125618168829316 0.18367855580536924 3.646350744553298 0.1390707128836379 1.5703912443660053 0.02030400166467471
