# total energy = -340891.1439727132 ev
CRYSTAL
PRIMVEC
9.06982251656706 0.00000000000000 0.00000000000000

0.00000000000000 9.06982251656706 0.00000000000000

0.00000000000000 0.00000000000000 13.27460204470908

PRIMCOORD
 96 1
Ni 6.519851123618434 1.8196241110116347 11.356727713076184 0.20923997480987191 1.063556363049936 0.4027147163656871
Ni 4.683692725809734 0.30893176617564594 5.777080713876506 -0.26059338958118344 -0.490783227169845 -0.002341760759299193
Ni 2.6456491443390213 1.519403909547223 4.933466573371089 0.553348451496576 -0.2943604587292995 -0.07101361220440028
Ni 3.3804136215764133 4.427769538452213 5.044813158830683 0.9253839936108516 -0.431455021723173 -0.6401715199294071
Ni 4.973745656018244 4.612494617550297 2.33181695295413 -0.413651674993165 0.5946609370921178 0.6457662404083653
Ni 7.22821334695223 6.0561473678385624 2.436779290209415 -0.002982993887723895 -0.3353392151345063 1.0827483625973544
Ni 4.948749224634422 4.661970500423576 11.472933909542837 0.8592966150634749 -1.0852616159375115 -1.1234905775117232
Ni 5.535584893500932 8.022793304950257 12.223400063852678 0.7131214299245717 -0.6832279847992492 1.7037942174409042
Ni 2.070948898256094 6.5883192152427 0.4378865054409553 -1.1059083456535856 -0.623183727122159 0.16439736457388462
Ni 2.7896144401864156 1.6159793817442276 0.506632133640093 0.05668485428655399 -0.44772521963810635 -0.1736988444804686
Ni 0.4678785951724594 -0.07701821349129465 4.881150929007872 0.5405731541087787 0.03989349376082806 -0.1669144745687835
Ni 8.593856552127193 2.221562374148605 1.6767943569673076 0.33830729662389475 2.2219846329791086 -1.628467836793763
Ni 7.083576884224428 0.5562050636163485 4.813264213019202 -1.0808166927922804 0.22630130116753286 -0.08251672774799336
Ni 0.7368940716092793 7.625752746075719 2.4739347259158624 -0.4428712339799147 -0.6687930403208417 0.6494858553517975
Ni 7.926743882470329 3.9725460669045174 3.7799293350680214 -0.9721919551033256 -0.4071400991268923 -0.5838823584193751
Ni 7.673441873875481 3.9218276183202154 12.831442792175523 0.13682356872067403 -0.2452503314662099 -0.505526961137923
Ni 7.915352185148818 8.651368297919944 6.8931695611996515 0.4194310006791035 0.06016304264314154 0.7736927637497256
Ni 7.063759321606992 0.8917857828732527 0.4118896726124171 -0.9358514688010786 -0.6025891908002591 -0.9793090257640812
Ni 1.7639898185194833 6.508731520978169 9.215640061852973 0.6761032008290098 -0.5608902683995759 -0.8434982145786377
Ni 0.331380484360733 4.860889852060005 1.5881731192854018 -1.4863385395894595 -0.2544597658796198 -0.6643658577874235
Ni 6.374443725960433 1.6132584349317651 7.0806201220215526 0.6421859792562746 1.1342881823478597 -0.8549254825789728
Ni 3.340406633610505 4.268213217369408 0.17872539137660384 -0.09840923060853374 -0.11517642276454357 0.5348323949702596
Ni 5.860366174859172 5.3109344548413135 4.997675476251582 -0.15367226484689664 0.8155510945464084 -1.3207219578964933
Ni 5.563093665774928 2.9495879731137986 9.153607916422452 -0.7402725364180671 -0.6088688531613837 0.6595352691679996
P 0.3125569743121169 5.684257427333886 12.419067884048218 -0.9887094931423746 -0.5829940422771509 1.1291752866013263
P 3.8942190779964285 6.213653908989312 12.583062069382148 0.3491676363771664 0.43465295983518043 0.8123349016019558
P 2.450675165580662 8.50795626125775 1.4014000742198045 0.08718790797141758 0.8198000996307494 -0.1367315232275
P 6.2186876605923675 7.717376095074043 5.969588607840503 -0.26333521399237875 -0.1690595459362443 -1.4157285905813812
P 4.872036664168394 1.053006416423014 12.650801854242946 -0.6758481473954102 0.24041742885394077 -0.29562107060927795
P 4.132700996286064 6.323643648971758 8.300675440066621 -1.2131434020838654 -1.7315302499035923 -1.103955849912905
P 4.717368977525314 0.9106011300814315 3.538385444632094 -1.0223852881282651 0.461258992458483 2.7464778508068894
P 0.35000083038068514 5.725525120656236 3.6132269006734186 0.10703091083927374 0.1631488368787642 -0.5085881165617498
Ni 1.50883756609216 1.019602259388682 2.7391345279393393 -0.10055764441010423 0.9254320732399675 -0.9256704145030188
Ni 2.021019524247406 6.499217276957259 4.9543471192099275 -1.058709576480596 -0.6235781343471002 -2.0759919961646567
Ni 6.045345208993085 5.489283448575527 9.187856473950918 -0.6737028189176333 1.8886472787659796 0.990947638444274
Ni 8.677063105652298 2.500477562071435 10.00883777887027 0.24414835665128276 -1.2684691712393639 0.33944063889738957
Ni 2.2203016687921644 5.230775361746167 6.992423352042391 0.8114926082063185 0.13813971642893627 1.3859855549909936
Ni 0.5533988604704286 -0.14171870076257126 8.929453597064972 1.6764397366873514 1.5294610818105467 0.8436753635864503
Ni 1.3015830473868861 1.1053211538039611 11.326979601575532 0.7589788545783187 0.0001879476410899989 0.3751704881988313
Ni 4.327421020008594 6.960862182982367 1.5171545935155872 -0.15160612634648726 0.7122182013840122 -0.10144776032454142
Ni 5.432134495691105 8.119205520338515 8.094481183635938 0.7683127303847348 0.2365718298556055 -0.2401834584662638
Ni 5.2734307379428715 2.711214892696661 4.95100216859514 -0.033469592512355255 0.06535667102893906 0.7694337313630556
Ni 0.827223156907141 7.182220275998904 6.767577912194546 -0.8721619010619173 1.5180826647702759 0.5955834489063871
Ni 5.0936305725753455 4.407326158067911 7.145386818998599 1.2158322617699384 1.1038208669969376 -0.2913232145648724
Ni 8.33455032089951 7.293370953288 9.049283187703553 -2.7780877644026867 -2.498723779082219 0.15494418958078476
Ni 4.658315361872167 0.3568485465253826 10.55576441385612 -0.6490891341340111 -0.1197128771823164 -1.8095897132111802
Ni 8.083778792840253 6.95861286695073 4.854150066805535 -0.2417618586969772 0.5760137543045757 -0.7214371488791188
Ni 7.249092078826527 6.0267430026185504 6.917156521316051 -0.14294099447232156 -0.4564134914407236 0.671012930790296
Ni 2.419375207414634 5.256261563556232 2.5803573046271695 0.48359853649594775 0.27513991993679066 0.4668349438843638
Ni 2.1531396316378797 5.395329155141194 11.409772571185144 0.8262430270426159 -1.0029176663219566 -0.24955204416535728
Ni 1.2216597696821523 3.2684103809527456 3.837926316375661 0.21683501354831042 0.29277537363036676 -0.22869834064479969
Ni 3.672942613384264 2.8460287374314728 2.9774404916684363 -0.8284711450421861 -0.9255194907474511 -0.24114916481364276
Ni 1.1991393998976705 3.3476534219543637 8.217549607963619 -1.4524020347430147 0.4578275981794308 0.4833182862513676
Ni 3.480716790906492 2.9619773509332115 7.507465025297535 -0.14367658708676545 -1.4810011865369461 -1.2013862615479374
Ni 4.01379562058145 6.8288146341735585 5.964875927961318 1.78160479796248 0.47466729544458897 0.9944985890203261
Ni 0.5663732418545211 7.3669634947424045 11.078372133214453 1.5008927832545507 -0.07597121331999174 0.7304784331457806
P 0.10278376584077353 5.554767568528793 7.865825511268375 0.6173138986049433 -1.0256834992635626 1.3930388622933494
P 8.671312838055295 1.4568765517968332 7.860476129835074 -1.2677888573428877 0.9645334101168034 0.7752315689917553
P 1.784850410748363 3.2137465594903727 10.525883882943928 0.08474433152693148 0.685549176733258 -0.2649424105784986
P 4.155239505715962 6.10025391566858 3.6519496017438446 -0.34345413093215693 0.918916640718953 0.830848387025111
P 7.019045095655524 3.908331722130401 10.570021268171155 -0.7844060364021717 0.726036338214027 0.3067745161229362
P 6.337484198424484 7.708968369423533 10.099769100395957 0.4628001116933577 0.5381727721974022 0.5203342013540845
P 2.46425269017485 8.537451324704845 6.0018327345504545 -0.3122841330872557 0.20445875137114464 -1.564942562546608
P 6.8612029710645706 4.026284766450654 1.6596968341800638 1.6240134005668354 0.08928541393039462 -0.7031229239509633
Ni 5.215891782681997 2.8313719039350076 0.6131590153125441 0.26990026880440615 0.3456087153813145 -1.1256384770926615
Ni 1.6197070788773014 1.1189077482208576 7.214852591120768 -0.11289971091522492 0.6359713658051305 -2.076092012077631
Ni 6.986420943374098 0.7891698087525811 9.225477191562296 0.15500486761539112 -1.118971349485131 0.21032215213045713
Ni 2.605796343359153 1.5478105942693323 9.273398506823387 0.7641154044739357 -0.5275330330953689 1.088845476634028
Ni 6.228773303443895 2.2601816792401572 2.7416033336805135 1.1337240823142731 -0.1822498193742732 0.389446024281239
Ni 4.109210155471804 6.736166395209207 10.485554916271878 0.07131083172984493 1.4090558065468959 -0.5985191344959435
Ni 8.44325214605739 7.031742847447017 0.6089488036113936 0.3457421556353852 -0.030499711250753927 -1.2927532405977091
Ni 7.57461708564684 4.055335408585045 8.372809554029546 1.194658970126433 -1.0764977537019524 -1.7615998155954629
Ni 2.904574443012959 8.46618972768645 12.420288682184742 0.7531887302591028 0.2648909885152728 -0.48422228612287577
Ni 0.027603098430161937 4.853434457793858 10.209815073279193 0.057525347909978354 0.5261605782278744 0.09716661645068428
Ni 8.652964586716589 2.265777759851122 5.7247913719991415 0.5067631475378692 0.25817218173420053 0.8508991350283991
Ni 3.7339825202105072 2.551186940833029 11.454468657491194 -0.3793073931853403 0.21267419730240147 0.0988799995973652
Ni 1.0587113349064772 3.5058401998082296 12.831668630760959 -0.05371960101064297 -0.5204951524119811 -0.8339087711179897
Ni 2.9884158841276394 8.352562988798013 8.126963846683116 0.9152592464720236 -0.3800923509804809 -0.5430578682038454
Ni 5.801049534347489 7.970016006611192 3.366426140995814 -1.152976502785982 -0.6646916165579585 1.187105069038575
Ni 2.7094009281550195 8.334849625048882 3.6694189872621252 2.3781500965615043 -0.10418829918415605 0.036749034594575423
Ni 3.5080441667263242 4.410301059916204 9.321492148715935 -0.3649441824851328 0.5822394234993133 0.7043125733836902
Ni 7.35240642929573 6.391349875488534 11.524465921224065 0.03907665428648754 -1.0621638535777835 -0.0679840813494571
Ni 0.34676653160293797 9.280151896811919 0.4758165040066835 1.2506056606953817 -0.45364235645348966 -0.3172121665164924
Ni 4.933584481066297 0.5550414053628853 1.5174992467784991 -0.5036150888271906 -1.7801541815588826 -0.9007104021235712
Ni 5.84797679703976 5.484476442540177 0.18006319022606457 0.6286766319159302 1.0174760237521057 0.7681247827436449
Ni 8.117863186577699 8.914547343444031 11.389130561683531 -1.420459420398147 0.5063954797858052 -0.05379262034042348
Ni 9.287226358524322 4.763879028373006 5.577960919158224 -0.31811616638800055 0.27346741733037416 1.3974061381231095
Ni 7.691291284965235 9.078983229143853 2.549851862930381 1.105424978259264 -0.07142807403399956 -0.01254261255170098
P 8.675775190827734 1.667350857563521 3.618855632646133 -0.40567714142812067 -0.7936866903731493 1.9750402016399278
P 1.7937116275342828 3.229881774088276 1.6609584465187757 1.0899477085592713 -0.41414969767550613 -0.19683157384319006
P 4.553704026755689 1.1643112806981497 8.235098807921734 0.36106798735917817 -0.26318274757491444 0.1036645654702021
P 8.628086063027972 1.7412971221035454 12.37030942415116 -0.801543981634039 0.6889278633975039 0.6124131188692162
P 6.575140762847672 7.767940356672305 1.2543147593607866 -1.7947629326109928 -0.008815798519417075 -1.0519221212451173
P 1.849427548430808 3.2347431990598756 6.054798685201852 -0.3133316005151636 -0.4379496283085813 -0.2653041647932915
P 7.050662497616339 3.7635410724165594 5.975668110001815 -0.750521982060217 0.13690635824246744 0.20106849474267308
P 2.4143505256342865 8.481572146999572 10.178314672031313 -0.6438515398841557 0.25155210531452166 1.6490487462689085
