# total energy = -340890.96065900807 ev
CRYSTAL
PRIMVEC
9.12913088135912 0.00000000000000 0.00000000000000

0.00000000000000 9.12913088135912 0.00000000000000

0.00000000000000 0.00000000000000 13.36140583155872

PRIMCOORD
 96 1
Ni 6.742584277200425 1.8120594253966966 11.532883854504535 -1.1212616881812043 0.923339709487313 0.8222483040609259
Ni 4.582549774128831 0.33995239755157525 5.916978554960004 -0.0899274183897677 -0.7372031534641239 1.0387295338142435
Ni 2.9090340373433636 1.9407527819038468 5.044157881274641 -1.159848290205151 -0.7885984772169645 -0.10738726573742798
Ni 3.4742915565467207 4.501528738518349 4.9681578675893165 0.4628936998484286 0.264821311619602 -0.33224489247989875
Ni 5.1344605041420435 4.522397931465455 2.856935913847939 0.3934428041454579 0.8933570470822937 -0.2716743299856934
Ni 7.295170562890841 6.058748478386416 3.022243475146408 -0.5040046109561256 0.7046167348876703 -2.157191033542491
Ni 5.380335383251575 4.484009936564939 11.76187166751015 -0.6950596873268545 -0.4574635299717928 -0.7926392229452414
Ni 5.638525459773901 7.879097154525007 12.548417490825162 -0.4722314323095867 0.7384874194931863 -0.538824289738472
Ni 2.069017069264665 6.461543986353251 0.46198422733365846 -1.6340666710377794 -0.12868319900172678 -0.3258757557287613
Ni 2.6021491772777927 1.4115279418615685 0.4000485525172359 -0.013765943435840809 0.033055644903388234 0.4800753538340377
Ni 0.5167854864509722 0.1495753302373377 4.804414126392264 0.7589554575395511 0.5522742445957908 0.20837248460325403
Ni 8.558660520137247 2.2677673753239094 1.4659466903994929 0.21528026746668086 0.5896848240337651 -0.3648644782871329
Ni 6.696600845496764 0.832119357046966 4.874869106046061 1.3255296636977818 0.22214794112079164 -0.46527094183135354
Ni 0.21552782259388556 7.429660917438855 2.212902212291185 1.3129410283994936 -0.6381825145238363 -0.04502592989138698
Ni 7.632930143230739 3.8530957088420803 3.7172770657665946 1.226456574253004 -0.7374908599078719 1.0642215074377606
Ni 7.575836559376322 3.984582579365772 12.680989814997766 0.9715080416624235 -0.5122951330996919 0.5226003716804419
Ni 8.159589697525801 0.10230469109468161 6.793393367430701 -0.34242568966764253 -1.0269145434571865 -0.35454792685247327
Ni 7.00647093132511 0.564652257833106 0.26540574148531393 -1.2901281442700363 0.8628375383371978 0.4768033679509853
Ni 2.0017262463367937 6.132466209378488 9.262687217481927 0.6286858878873108 0.7391749324785141 -0.8008613537447176
Ni 0.07134963446955254 4.754442177453874 1.2726428237594276 0.009462945185112735 0.5065356049080953 0.12649776131463378
Ni 6.436265423242781 2.0002016814977006 7.227103763847264 0.660505860611385 -0.30181434390418344 0.11147866219798219
Ni 3.616496026597928 4.396552863759484 0.5051494963676911 -0.43744903452307893 -0.9644861018186356 0.4338613171718205
Ni 6.068982233982962 5.555815534970413 4.940566895654042 -0.773683507778345 0.4813804457987064 0.5472402817163091
Ni 5.444221040401114 2.718837726818432 9.710722132994425 -0.1347592299924776 0.1903616498481302 -1.0694351904282162
P 0.11289539570445283 5.865941236460403 12.473192540342467 0.49824919652958705 -1.3115801434962249 1.4548427829740234
P 3.995172371062466 6.06251880939567 12.631271655894865 0.07534360703832187 1.016698779266449 -0.12086138896446283
P 2.033240005765231 8.516310482481245 1.4420429743834384 1.4304916078231686 0.03913090456319067 0.5168976648687098
P 6.603584132050545 7.874167423907581 5.7261906767609805 -0.8609459777414399 -0.3811138502664597 1.173635059576598
P 4.6994026480233835 0.8393943613599791 12.949232890327332 0.47638324969443124 0.3687514720463649 -0.8820346800909391
P 4.089101997585987 6.096543079786685 8.146582512000414 -1.7850392775653259 -0.11159359050929168 0.1952601155910121
P 4.528669644306514 1.2146308493492457 3.888917505082302 1.4071061390196928 -0.6818491021738514 -1.3402443442001368
P 0.23757284758455494 5.680519461329757 3.5296688638158114 0.48913206471966725 -0.8691611665623805 0.660785853745649
Ni 1.5324889246039772 1.3010289429850312 2.8562274932999534 -0.48674042455903915 0.35234500566388355 -0.8729936529345933
Ni 1.8249862745712817 6.958533865636024 4.6261331573522675 -0.6165531091795188 -1.1448430750455703 -0.1599663253857245
Ni 5.967155909340787 5.612023593139847 9.117048368433911 0.767243408579956 0.2506393636922651 0.6440813965067747
Ni 8.627640232258125 2.4182884835093312 10.25064357556344 1.0077325712120968 0.23407734556852589 -0.11991265189794831
Ni 2.125033415687867 5.603204852813118 6.629274418958878 -0.19046912196027196 -0.9958455899665236 1.6585415162506918
Ni 0.7060980971170765 9.011027208201538 9.156637756944157 -0.09496369526209451 0.6606632121248557 0.5016507660119683
Ni 1.6058323612343557 0.8207809766268851 11.549612073733002 -0.19892342337521224 0.6102068552465169 -0.3674075564239608
Ni 4.148140086295054 6.891973373169994 1.6567071812061969 0.19151478961596693 0.8661234081773214 -0.167155386934996
Ni 5.493454442659967 7.732821092149037 7.693992160232185 1.7093053770671205 0.15565741359772547 0.6357769904061373
Ni 5.271744372706598 2.8472298220100725 5.04228732237925 0.4323801046406038 1.1287657098677333 -0.08912574842407875
Ni 0.9912592775951883 7.747071665285708 7.139841141527275 -1.0331049885386143 -0.32765084535131317 -0.8951136247620841
Ni 4.989270808328061 4.4025598318081265 7.055891480764811 1.2314920797943822 2.4740373320791327 -0.041740317161579735
Ni 8.124725547103669 7.439273892142836 8.836578648260051 -0.6486039669674766 -0.46343054618850504 0.744693291193582
Ni 4.928616863472169 0.5358818022019587 10.522895252215436 -0.5484353304656749 -1.3097819139452216 1.4993709472933854
Ni 8.393980130122884 7.327222941034886 4.767122540097587 0.2739325298922508 -0.24772116160420563 0.22639848886702946
Ni 7.394732863101311 6.0173478703308065 6.979170265748418 -1.4185493478596278 0.9654991164641824 0.10418752785320767
Ni 2.2642800473686187 5.410434127410196 2.5899344003035027 -0.3409781585878386 -0.9191189865377462 0.11589376054654234
Ni 2.1673651950823234 5.206060276794777 11.66390605227188 0.8550571230608305 0.4840243111794567 -1.0920143612803128
Ni 1.3894263162601064 3.6440477432708787 4.153980904163628 -1.1650928264335418 0.052487014155122504 -0.6830341236208881
Ni 3.5968683954359526 2.881482320670414 2.670303615976791 -0.4616060913852566 -0.5542925605774002 0.014399977475413907
Ni 1.2523067720494663 3.156342189984259 8.472641285428542 -0.22683043419812546 0.9442209238116965 0.05306654080767635
Ni 4.104548486853923 2.523255229137423 7.18214279479018 -2.523802062207086 -2.7911242858716703 1.085804632925175
Ni 4.034217663378638 6.9254042500607635 6.023080964456258 0.31019639732029153 0.013243495273467513 -1.1692906665649732
Ni 0.7409896349315284 7.353030993730192 11.064619698112123 -0.8400490796877726 -0.05191751480489769 0.36570651457245407
P 0.2102986564871043 5.7864082491659214 7.934710906281119 0.45568792612860876 -0.30630734667853055 0.581113023204354
P 8.706050336467525 1.566339741510306 8.150844903158333 0.08302374929139894 1.3675227203001157 0.45908178230150615
P 2.020185348759824 3.140293178085304 10.500046863716742 -0.043817511405582606 0.08881053117650511 0.8806694243122962
P 3.935075303183728 6.318527023663245 3.7168087413579385 0.3309755388491719 -0.37813368459221325 1.2150074518757978
P 7.033776161467189 4.0820816960215405 10.328139853782462 0.5052546813131428 -0.06975248610378955 0.6029990246441679
P 6.462228671161227 7.892480460238244 10.419330741074079 0.07311188949432569 -0.739300916533417 -0.06180983421794516
P 2.528376671501083 8.624938009549314 5.781079575533715 -0.8489211853664217 1.2382401971514934 0.6662985560337622
P 6.933510918187198 4.140188613391762 1.651496273360962 0.08827728438085441 -0.3453768018761665 -1.0411085755693812
Ni 5.444175394747249 2.7321936451393487 0.5021843546926168 0.06278196832322736 0.19416405431335593 -0.31117290230094796
Ni 1.5853009461258518 1.2357921744810876 7.189304597881607 0.046813617919429056 -0.7840813060729013 -1.185311981693894
Ni 7.074117790353129 0.5365747032276302 9.298402202892104 -0.1656615759982889 0.2617665839536782 -0.5220036186367074
Ni 2.8813271254472723 1.3550186223766243 9.344405718683467 0.4102362215537128 0.5280881342678905 0.3789312407928442
Ni 6.2766973464613045 2.1400508358094714 2.72579321155439 -0.030681231133940706 -0.43601101652497165 -0.10102712784735503
Ni 4.235998840854522 6.8048449490723675 10.522321029889813 -0.11596498010410997 0.48310951267467117 -0.16639511173020377
Ni 7.863513728295477 7.499489638721624 0.1092300496990885 0.5568585215323636 -1.1539429804643095 1.017362380992377
Ni 7.921867132196569 3.900320702330871 8.178356451655882 0.19071131987806508 -0.19868893876690297 0.35285794074456006
Ni 3.2251758360127694 8.22147607503605 12.71630403156701 -0.21736003281384503 0.7145897869399822 -0.4987091668851411
Ni 0.06863280515150418 4.99326936760664 10.260330496226684 -0.6048419913901778 -0.4584436344968749 -0.21250399027312433
Ni 8.734378029256183 2.5408927097908824 5.722769991460333 -0.08717865200003695 -1.0198972315990886 0.5257242620214043
Ni 3.832984233749135 2.569959862172152 11.786523059336515 -0.38236906282979954 -0.11180930606452356 -0.25300940658633847
Ni 1.1783790710496151 3.362706191108195 12.616533587174915 -0.7953589358692496 -1.093724401992884 0.6112512373506311
Ni 3.054552381865175 8.399411962932826 8.112697917310225 1.0286950323963768 -0.5900136681280935 -0.0998297651051442
Ni 5.5427973944880975 8.045119526763004 3.8414305055403255 -0.3899967545783864 -0.6729692831857184 -0.7896348889012788
Ni 3.106953592502264 8.607264012372763 3.526983986455469 -0.03728870914812933 0.20569802309488444 -0.28058680198397484
Ni 3.5785736173668363 4.188956429981191 9.27320306321936 0.24400977419088946 -0.008214674600308433 0.03915841536701643
Ni 7.256107012313123 6.194252166450233 11.633067848520646 -0.07978827307323677 -0.2146297783668755 -1.9856853400585994
Ni 0.30899003762182775 0.04503400210326817 0.3864014149246603 0.5875017003395173 0.3388881088280293 0.013821479264124583
Ni 4.561954455104916 0.5023432015680672 1.796026845933133 0.3658322415170409 -0.620922441891808 -0.3871361452011397
Ni 5.946250199870589 5.793519842038099 0.34180743692465126 0.4372659719779954 -0.6618919423256343 1.4298424042749438
Ni 8.22517337299912 9.040578204513777 11.555331474162296 -0.2829740712692288 -1.5927503287874956 -1.4441565069047708
Ni 9.015418320103356 4.964101794786868 5.756440964490434 0.6821987722037864 -0.2320055506411617 -0.8657261727389027
Ni 7.755123558627505 9.040213039282857 2.427193037665327 -0.09140734536940387 0.823844187793136 1.0937264588754132
P 8.474818583117905 1.6797783204957528 3.622944844575984 0.049342812099185986 0.1445589896917188 0.45348320516780616
P 1.7710604990951 3.2395633461110362 1.5661032970232849 -0.27890401496491324 0.10173880920239899 -0.38703664350879796
P 4.937882931206776 0.5771089567728808 8.383026086108348 -0.37654679972106764 2.1894038708296097 -1.0028613591627245
P 8.765800497376889 1.6877754390529114 12.466058124643357 0.021098729651828182 1.5954569290853813 0.8628460229776301
P 6.2862190298575555 7.655962940171048 1.7077344576619475 -0.23361480410981056 -0.16807738452863313 -0.8185096629541001
P 1.8339784683826983 3.3532849281504467 6.328723349823623 0.3297673774736837 0.5905116908104346 -0.32049366548124164
P 6.956306357727409 3.8971072482987714 6.140314523104046 0.24831328666224978 0.4690700038624696 -0.5575761164246784
P 2.4521210421541135 8.269139266801945 10.296953830148777 1.2529919015393711 0.6569921910311718 0.25172488344696003
