# total energy = -340857.7867931739 ev
CRYSTAL
PRIMVEC
9.44844410950147 0.00000000000000 0.00000000000000

0.00000000000000 9.44844410950147 0.00000000000000

0.00000000000000 0.00000000000000 13.82875301762260

PRIMCOORD
 96 1
Ni 4.35708392133195 4.422580536791087 4.40508012837311 -0.5963396103461214 -0.7630882487610019 -0.3134038485139957
Ni 8.542971481512122 3.6348164984319413 3.712632940333256 0.35913657466442017 -1.0427803068448491 0.38860964442287266
Ni 0.41589972878782827 4.80554487865343 0.44453229420724116 -1.2118107993153708 -0.9264463734370948 0.391749475603435
Ni 4.972933516777215 2.8094004097836067 2.3861649088892474 -0.2171075504834067 0.005818149343673851 0.4658162728118623
Ni 7.498937290080532 5.231348466691729 10.862126134175274 1.015375175359019 1.0062523871221445 -0.03218275538013167
Ni 4.071457452011446 7.826873892699653 7.527322306260904 0.23945532205098757 1.518836512217165 -1.600324798700644
Ni 9.465356953377007 1.9280211859124685 7.651421952262995 -0.2926586455468444 -0.019178115590347617 -0.6127350209850093
Ni 3.9245152472191047 7.13914998193447 9.73175016960625 1.9956537641252214 -2.484820281627249 -0.5301979815220418
Ni 6.494359801787627 2.0843173505006183 4.335673746688209 -3.02653294865711 1.5896634623320558 -0.6851198025053233
Ni 7.962468515961927 0.886653345444896 2.0593781819339143 -0.30582937860084747 2.1071162283732874 -1.3826845156422185
Ni 3.284779984739693 6.560338287902911 5.481482800075893 0.5842777940855809 1.8762471053294136 -0.6620582927001695
Ni 8.60804291698054 3.0132978364437606 10.204388750888835 0.6359950199542144 -0.31571244204251436 -0.17464732443666695
Ni 0.5317064752820595 5.176443557223603 11.950158895890846 -1.180077215657516 -1.9566892099365658 -0.4312853289145282
Ni 0.35034169844114244 5.627228831827679 3.68233461419465 0.23756967499250053 0.8677789415028733 -0.34067476841480687
Ni 2.8029093285919697 1.7614451139931677 1.4226607525441801 -0.33583312405178933 -0.7251518787265446 -1.5695921455034774
Ni 6.530518997887182 8.400536184621398 0.2537880467710722 1.6169891467302024 2.057664915720695 0.7234634352805281
Ni 0.9002222562153616 7.13387775004956 5.989039051885137 -0.1889017774731521 -0.6027120895313685 -1.5820486260992754
Ni 6.538370655049118 4.5733210161671805 3.1948572512359847 -0.9833543994780484 0.30536143782549346 -0.28877730821456715
Ni 1.1435357577039758 7.290051084862614 12.470603770485406 -0.7649471563466116 2.217734342343187 -1.306721529852343
Ni 1.4475677964004745 9.229561578968722 7.176417480543166 1.1974442461810537 -0.7161545603239409 0.9274858704452027
Ni 2.395199511269805 2.8946253768120864 3.3628619279241 -0.24563111184439632 0.16341340339406052 -0.16910068358682487
Ni -0.005742764407972275 1.7797278535940666 0.17227348379493004 0.3389832396449968 -0.012408400966681856 0.022171136780400526
Ni 4.519398744899826 7.714777550257759 1.9083816497189656 -2.0250383879349254 2.933631535240683 -2.216196308432106
Ni 8.457406370491068 8.297425312650024 2.429822390336231 1.4500775003748962 -1.7617612808739915 -0.06607889390694426
P 0.25369545201753796 4.8416473840875565 6.932036304855637 0.7180700321790987 1.0733808053395257 0.40216270051695896
P 2.8450210445615856 4.662136392006173 5.987698317647739 0.832098200271812 -1.1509507306052047 1.04124612958851
P 2.3498280820380137 8.79316628493941 0.8352679814554962 0.2877666075618657 -0.2530729128344222 1.4691949379306375
P 2.235397973869287 7.822527608350085 8.711423069612703 -1.536675854391431 0.7368185164311957 -0.2274806661876147
P 6.065976788472301 5.168374585844189 9.11873510743244 0.211511544452868 -0.8230299194219567 2.412019752725756
P 5.952141932290579 0.5196417568343139 2.729519482816248 -1.4363853475997843 -0.07639158868686198 0.6344328176734171
P 8.840559681238174 7.000550753404452 10.995020392074274 0.4193649233278584 -0.034397246532947214 0.24509066595989404
P 8.534609608361324 9.213990542864183 13.598158429604906 0.13739949582880207 0.06234745188897004 0.2037092747996298
Ni 4.013547937275575 3.4046996390108086 9.231217891243675 -0.14111628255875697 0.25679149933659 -0.04805288964316886
Ni 6.196034623410995 3.437088905859326 10.619487251605266 1.0460160401733276 0.14289651438763132 -1.9540047211258669
Ni 2.4621795324743387 6.6723684912351375 2.97857480386841 1.2108417505338824 1.8967483106065592 1.0203163214143784
Ni 0.8135866364621201 9.259191900099687 10.123960759000088 -0.308407680850985 0.15218719566093789 -0.10883608236881258
Ni 2.2993166991406464 5.652437281055172 8.22120754751381 -0.1703893204912614 -0.6446673509172317 -1.4755753875356845
Ni 0.7113261244721828 7.238027950887136 0.8556029231449301 0.6604744931528174 0.5447064595508618 1.840944830483694
Ni 6.628612745968076 7.065603291984394 2.1351046279697408 -0.529970696002584 -0.921202351429336 0.8697676897981278
Ni 5.841160506268793 6.530604033885325 4.614419858914462 -1.0987681350643785 -0.5663260947031666 -0.10357072020481517
Ni 2.8924049924161115 1.108557617134194 8.60701587109185 -0.3426899990726227 0.13316694580469324 -0.020457753633719607
Ni 1.5950769078471068 6.3225492917603665 10.351582284297912 2.165086634240484 2.218331609607554 0.2748414148597654
Ni 5.036077469621043 8.81943295992158 12.269132704305619 -0.5242793020447616 2.9603908056123984 0.3763917622004421
Ni 8.733754467569668 9.154711003713775 6.399864021272633 -0.36738878737088343 -0.0211825476148861 1.52715634493677
Ni 3.00024953495082 9.04496732388719 10.45031947143143 1.828106541068445 -0.9139053035472906 1.1621957073914049
Ni 4.703530026213685 8.521164472210378 4.223993135792796 -0.3732920402291959 0.5333311278343847 -1.2533014623599898
Ni 3.367954639368485 4.315472972906957 11.398404711624194 -1.0573312080758306 0.672900377620996 -0.18200864989774462
Ni 7.245397737392924 1.6077378231262822 12.535100740544143 -0.11260840492705122 -1.1485326080820155 0.34066756932595527
Ni 1.491266851002106 0.14317038585245523 12.780630847051038 -0.24540896853126123 0.6271866776339651 0.12549605952299675
Ni 8.306807617778546 3.6317268571660533 12.554862161668318 -0.13224263421821095 0.1853253729758034 0.27253642087567254
Ni 7.104039563145355 1.9515194667328488 8.245781061288497 0.05660206476476059 -0.09866222715960427 -0.2990784330302591
Ni 8.336749737569374 1.1059687434129297 4.557237874384932 3.466436872478585 -0.7605649681185159 -0.6198340939236358
Ni 4.764037863115059 5.522823522995672 7.617692896021502 -1.0958175370764869 -0.07080381018643936 -1.2853155533727412
Ni 6.095975598928555 7.13914998193447 11.205189696019737 1.7203048135014178 -2.84903607058679 0.7631245013155761
Ni 6.094690610512162 4.280589316779557 5.99425270341577 0.7363055813505189 -0.956562733206501 -0.24254398827864032
Ni 8.072240541121227 9.202227229787635 10.906917428930841 -1.28260201109632 -0.4246295141609074 0.3689648736087517
P 4.798590823694122 1.1127621748201888 7.696599688387904 0.9957306616552142 -0.6354154933016605 -0.4308382140747806
P 7.949108415809126 2.8582772118277666 5.863073338146004 -0.3252208957535818 0.3051277245481326 0.8287089720846051
P 4.648870776295753 5.951064809647426 2.856232568494623 0.20686607526105666 -1.4725774812496253 1.8417359589264217
P 0.2856888290524753 1.6963075394150813 11.643063671572326 -0.5616939952477938 0.2633724949882174 0.25519818670754113
P 8.984034306995099 8.319024456178528 4.4523053423644345 0.345423853064018 -0.799276782866417 0.7463873910665533
P 1.8748264448514553 5.085010962330633 1.9292768841517243 -0.09527222764144883 -1.868811474986975 -0.7656745214309395
P 3.0367299781544737 9.097491225407293 5.312301792080124 -1.4625373234048038 0.08800500455607424 0.9100363075101876
P 1.5986295228806664 3.9644443725696985 10.239223275106198 -0.029234214274769008 0.26217616068727106 -0.6768308230236537
Ni 5.183756653063964 1.083434203904845 0.6789340230903937 0.03793996957888305 -0.1506360491237341 -0.6463521948188223
Ni 6.702367301691393 4.997603404683131 0.38884694324504077 -0.6880629442940472 0.6411307985188829 0.4970248372041828
Ni 2.6776324064378 9.372346468296259 3.0307784031288376 -0.29686882697345 0.15545403933766777 -0.04157396678704453
Ni 7.7751436604955595 5.754310406831343 5.36251365929514 2.5330873441637536 0.11264774280541891 0.6031648607980709
Ni 8.278443388175498 6.5287332419261634 13.49642041658134 -0.2932381721993982 0.6774342609356075 -1.0787065884278133
Ni 2.3561396427891252 5.707219360748201 13.313258545646319 0.9165640813263763 -2.0197640269098636 1.6985782204576036
Ni 2.730902735052719 1.7062756480863723 11.01238946711734 -1.5253077217638054 2.5432185190604844 -1.9723251167016096
Ni 1.5643316702960341 1.3615964022771778 5.495767902919614 0.3302456026616829 0.07209938906941131 -0.5719041030115763
Ni 4.1179249007748675 1.5846552738523825 4.727275856273106 -0.19118723107321914 -0.15302100441614291 -0.46449369734569684
Ni 1.1642467474740896 3.7180761890588774 5.175936175768014 -1.5867154354473254 0.19849713447107106 0.44419818032145436
Ni 7.945574697664042 3.36740662960267 1.1081371613655944 0.761822751785017 -0.9884516114952976 1.6046792190145978
Ni 2.035667311118175 2.9484531636370583 12.96408278522417 -0.6335905242777798 0.059060553607582146 0.3892210527546265
Ni 3.635430647307424 6.945456875051562 11.94151545910175 -0.0868454370303343 -0.2636085222584234 0.5925919703782311
Ni 2.180294647072159 3.0365599061581863 7.404591739828927 -1.8784448843116808 0.9798047344535771 0.2752756741837066
Ni 5.398198543493938 4.931908371894992 12.279504261545881 0.2250517450311479 0.28476767283454185 0.4168616972900305
Ni 4.8389734743681485 2.4328704584474714 11.932139767884193 -0.5889682575827146 -0.2938752915627648 2.265697757596343
Ni 4.318298057734177 5.358675701245587 0.80446983261669 -0.6729541136770668 -0.1609024640467487 0.19972432200995283
Ni 5.325237657086631 1.4100007821094283 9.7457310325455 -0.4206728435060045 -1.2675381747846621 1.0159698715202243
Ni 9.33975878411874 7.041368032513436 8.056769658525614 1.3522758214433743 1.595924355640103 -0.6154382788487853
Ni 7.216570534022205 7.2818025930426735 8.680460517844153 -1.3110960047709548 0.460435211005607 1.2937058343189654
Ni 7.725133045142816 4.754145341997673 7.821833147698578 -0.6926747320344459 -0.6503934547677316 -0.6543640093797053
Ni 6.832396791297373 8.648331083212186 4.995761902901108 0.8461109696111363 -0.12178595766126123 0.3182508921936519
Ni 4.300034215021753 2.915015119478102 6.772216815411065 1.1405187366386034 0.5748333608432293 -0.835828870958838
Ni 9.42560734846694 5.250679983603067 9.314633481200543 -0.425012608531939 -2.3839669603535976 0.46883140548910224
P 5.006598323597888 3.3659610176342265 0.2645762804022383 0.7489479527048778 -0.5885946762933799 -0.5726260687792655
P 8.616480377685244 0.21070786526704197 8.814019001373097 -0.8071279034797196 0.2543193836470136 -1.7677226406637492
P 5.487013919332931 8.6615211113687 10.093137099361837 -0.5489135556536741 2.055705478001479 -1.7174560311987133
P 0.31040784886842965 2.0527500983008236 2.69857015886963 0.465837612968101 0.39571771622256363 -0.2922544681298902
P 8.153544403790857 5.717017397423206 2.210069529399969 1.518256985564611 -1.7571019277251094 -0.6773486432003366
P 5.3318610164976015 6.925388379489645 13.42482955458857 -0.9129511671641374 -1.6568875255870366 -0.5659805384382898
P 3.5022359288816505 0.9248836405214631 12.71501329150565 0.8465976794395677 -0.745640999818832 2.1258202325406934
P 6.366890840570196 6.964401005749134 6.737894396871414 -0.2745943318459658 0.19331173361538967 -0.9296093445461088
