# total energy = -340894.74606291746 ev
CRYSTAL
PRIMVEC
9.06154692784878 0.00000000000000 0.00000000000000
0.00000000000000 9.06154692784878 0.00000000000000
0.00000000000000 0.00000000000000 13.26248988411038
PRIMCOORD
 96 1
Ni 6.303810089803044 2.0101138885771612 11.391232556843413 0.21151925776235184 0.6649255869456355 0.6824931635157536
Ni 4.600982318350064 0.28972574537534057 5.998850071769593 0.385215274029343 1.0802731615839847 -0.3254237557930073
Ni 2.84996524045179 1.5900296355689942 4.781711246768422 0.5000080882022228 0.012894853684797147 0.39193073837630565
Ni 3.6948638739529756 4.248551574540953 5.209877493461915 -0.10912995946014754 0.6540917295549251 -1.239511093444117
Ni 5.2137513047641635 4.620944906183646 2.680481691743588 -0.8754259165251697 -1.4869625463267035 0.34415115699918153
Ni 7.2263661802873385 5.9247021519031176 2.5483869917236013 0.6922543566675755 0.20931865056660723 0.23944143809391666
Ni 5.089907143201952 4.622829707940062 11.386444435458362 -0.031434307249881346 0.07735369548981516 0.17242152042994177
Ni 5.693949859945721 7.907142076229822 12.345163347334513 -1.8491008839319252 0.39616714505515643 1.3401535842585437
Ni 1.9649420772515134 6.613425024482028 0.28967681302204906 -0.3790783078936697 -0.07787485810060782 -0.039362303847706406
Ni 2.680188097623838 1.642097284089992 0.3266896075136722 -0.3439552389382915 -0.43958742102232035 0.6313685769257965
Ni 0.4161687585901502 0.1047179545080411 4.902412863863687 0.6554186758964647 -0.26226512085665155 0.24366190393316747
Ni 8.764717813852288 2.0979927704700665 1.3966861277030063 0.5754553106979444 1.080199628033572 -0.08461577636886718
Ni 6.955851820507085 0.5906724042841918 4.710968656229165 -0.8059117716844314 -0.11131282604407926 0.6771660948758854
Ni 0.8690775591100575 7.380711508734634 2.5901108844515743 0.5000913919446484 0.2652524856197496 0.12228372323328618
Ni 7.810908448089725 3.68239518541053 3.76710433819577 -0.2598220586327977 -0.0664892419714855 -0.5547206492537543
Ni 7.592371121361411 3.8732313632476703 12.73472196728095 0.510683822748514 0.019882340746223824 -0.840182005721211
Ni 7.885512163765565 8.820799727652576 7.154436527103416 -0.2280697059218653 0.8267523625788664 -0.7642275045717677
Ni 6.863251872676233 0.8096709637500143 0.3986799730618652 -0.6224913290408247 -1.0267718472317349 -0.5062738666062765
Ni 1.8510656172857323 6.618852891078631 9.162828721768467 -0.2681866285474091 -1.245805411093261 -0.43409888710392336
Ni 9.176991013427614 4.860441590905185 1.4339798301487106 -0.8769351540808445 -0.611726891435469 -0.33296531558569104
Ni 6.355651199651395 2.1449406449892603 7.026785609686057 0.5721108197057436 -1.532477242929051 -0.26331387383614
Ni 3.494177794629179 4.457927677347455 0.617689406383975 -0.4937333109371045 -0.45026932621619875 -0.48569398557239574
Ni 6.122570090139195 5.512356459952544 4.731937075769296 -0.06749762863134182 0.3005866421446694 1.3375979077162254
Ni 5.388992560376342 2.971761492413281 9.203703547551362 0.6875410103523062 -0.5196569727814018 0.6673056571420379
P 0.11850962889874041 5.658700442481975 12.597866330516633 0.3339431061179281 -0.30471917625580425 -0.8811988144532049
P 4.049279096534468 6.225907971053476 12.5591798683115 0.04002821956647945 0.0821482886649811 0.2966160875326956
P 2.3634779717175753 8.643238716032501 1.2033679921683544 -0.08881541627251156 -0.7741709889377247 0.986730772149449
P 6.23419022492542 7.804583488349444 5.709952551781447 0.7167412860653463 -0.4767444896885918 -0.5679271206416994
P 4.587933690805644 1.0698696585326521 12.579869192206932 0.5959266911784188 -0.3711595672672253 -0.057917184031758315
P 4.108677536502296 6.004670303347218 8.077267182458957 -1.4263392762176919 0.6094995447668471 -0.6007127997131525
P 4.7951803300892735 0.9269056329991021 3.6977146366095552 -0.0025929575381568246 0.43424235466032307 0.6577241841011898
P 0.17641653824586584 5.493544688576006 3.6428342839289822 0.386938684478353 0.3317131883461448 0.14209381598067786
Ni 1.6139158732128074 0.9981565763197779 2.7943001578091713 -0.703462309568253 0.032432923717724785 -1.1738399764985525
Ni 1.9418804403761323 6.294123296160693 4.91112644736835 -0.9905642869629264 0.5261024712964294 -1.326969738578418
Ni 6.003664471640669 5.859159983133125 9.035628163232326 0.6285915284012915 -0.6262363979055537 1.030184986678342
Ni 8.589512804427732 2.3556487951909237 10.399383723324794 0.39944967246117014 0.657286582343139 -0.6860932221621862
Ni 2.3478830494926126 5.2090393003731235 6.919836702329795 -0.39512019184788083 0.01816098717974292 1.7661123587538359
Ni 0.35651115838081504 0.016914283454454237 9.306925440665246 1.0863059980416259 2.0242392890723977 -0.3584806862479762
Ni 1.5837590451101482 1.2056841235574889 11.250676184322746 -0.6826245468872953 -0.07198420364778571 0.8487530352196737
Ni 3.931460863664644 6.729122855375884 1.7488975820769967 0.8780412426608297 0.7259419787280078 -0.7958703282880294
Ni 5.432642031821808 7.882394991629953 7.7443396060553 -0.07110797169041948 0.12589715161615736 1.4801344676612767
Ni 5.421650375425015 2.8205333361015983 4.64498790858893 0.3764701808468613 -0.29092932156056345 -0.0968287734952913
Ni 0.8646926765623182 7.56359164838844 7.028522708227907 -0.14524701689767888 -0.34205750769494636 -0.5919137133642838
Ni 5.2478861519584905 4.3470868355951335 7.1328854500972385 0.3635077071489224 1.3993442356860868 -0.2795329067981637
Ni 8.313507147222536 7.24755207695321 9.305519994740148 -1.7750145463394722 -1.4639822833814464 0.09478114693764322
Ni 4.6282756976304755 0.4976139421799041 10.447419889627382 -0.1048542149029291 -0.9375013456996758 -0.3396648390930537
Ni 8.246850408183125 7.121859359822204 4.763514754426791 -0.3355662435436479 0.2022414320048517 -0.12367031916816766
Ni 7.379678492387367 6.538386354554708 7.0690531952283795 0.05349257260150143 -1.8188279439799968 -0.3039445028733088
Ni 2.2150498333997994 5.325317070268953 2.5805355478361656 0.4303425053852847 -0.5405505284009593 0.5256535566844689
Ni 2.4610164626121143 5.258261623165685 11.396603335694508 -1.022428996882007 -0.053132618158921396 0.29073031817587996
Ni 1.2946503910790959 3.3100018537678366 3.836745044631277 -0.8882636917197865 0.21586185100176375 -0.10726308145473785
Ni 3.526445963160901 2.730941821843488 2.63365161733417 0.5068001714233916 0.0009765049806563826 -0.030794873893669545
Ni 1.1220732302572374 3.3631659494644417 8.157571517293265 -0.9370866267597603 0.4192739062759489 0.1083653133799811
Ni 3.6974101686335183 2.7152200379618434 7.30935635762454 -0.6409040272200575 -0.9175292734531232 -0.577209831495206
Ni 3.9016664974382187 7.03371769306903 5.897629874367209 1.2080688157744355 -0.662335457620956 0.6323178282129432
Ni 0.7140045884462239 7.354315222597901 11.351869197084412 -0.0015987119456875693 0.09190511094142881 -0.16145422278516064
P 0.12822360718180853 5.653879699528065 8.045915136319419 0.8097334594233668 -0.259752638847443 -0.2607872507595444
P 8.54092478991858 1.64351994695421 7.974430405088571 -0.08442217230082234 0.535751050129787 0.8652530897572259
P 1.7620993497641253 3.3868165868887026 10.292408537482507 -0.4293204918786735 -0.45675261994769717 0.7018101186768106
P 4.0516532218238 6.043779939792854 3.8489871945010763 -1.3274078545571009 -0.2737196425504963 0.4827729552708588
P 6.965692660446835 4.071289593968771 10.498692840484734 -0.2350829040149048 -0.08938620117431703 -0.7923157781675516
P 6.087085072455898 7.750168899179831 10.18275385222016 1.503001087846805 0.7235284841905089 -0.8020394332132187
P 2.4066199965363135 8.70296337168894 5.773174964543542 -0.42881141345273893 -0.8776931152927917 0.11971262007200027
P 6.97691991706318 3.712080813074085 1.5408363097265316 -0.12275346378085311 -0.0066108204482982925 1.01454162371413
Ni 5.1895841591662695 2.6491341763775003 0.6036141055751225 -0.10732684481313774 0.9603106302847073 0.14015546130738443
Ni 1.522240203166352 1.2340920731073195 7.046785349861952 -0.3877758356676676 0.1044610932295685 -0.11608916438680007
Ni 6.871380080250778 0.734495464464416 9.278955163830968 0.005103382664836373 -0.47655705626813405 -0.0570509793767211
Ni 2.8445826815897166 1.6651770440591847 9.343238683735738 0.22549114656141167 0.1923851080360622 -1.0452488229899999
Ni 6.499738857001271 1.6428856386708006 2.5108015074675287 0.0011222865299012929 1.2648040636829507 0.7923908543798611
Ni 3.9957072312271 6.957220114089868 10.21181242083783 0.45309445436981965 -0.13263858410504897 -0.007516620092019312
Ni 8.261811022124679 7.09887021532207 13.975216023277252 0.3554041042051815 0.3711685661282898 -1.2135118411668777
Ni 7.530788848589273 3.9888567017662795 8.18550282947585 1.0746756128915491 0.08659963956811538 0.28023841750562056
Ni 3.204172047454448 8.359630420973298 12.149780085260018 -0.6957795962120146 0.12655072603975623 0.9627647482521549
Ni -0.05492928503386408 4.949534720083474 10.251360636153711 0.478032612372396 -0.38034431909028693 0.28218962769472045
Ni 8.65788217583235 2.40326722418115 5.8610792187677845 0.40191458906189487 -0.1389465286009478 -0.2088298838556468
Ni 3.532009752961091 2.7812243456240333 11.588816868661336 0.3340906874393859 0.38444985661822817 -0.13488469982674833
Ni 1.0732133693409096 3.402556493864159 12.602137037573359 -0.3220615241889937 0.2737360976107286 -0.1109767828608992
Ni 2.916368256177838 8.570981941005275 8.00700304159633 1.491449892674096 -0.2316304266899301 -0.3891007251266783
Ni 5.595242429500328 7.544353984307326 3.4869077155466184 0.5465630531436265 1.2685941268530023 0.07122572821520637
Ni 3.198073626386813 8.403053353746117 3.683258750830657 -0.07714569324406714 -0.667212068986967 -0.0024230076191958274
Ni 3.5467257051361867 4.292355092283818 9.40871560936801 -0.5646420221325243 0.8752886196163571 -0.733254453229021
Ni 7.16347904476076 6.321625091019939 11.419136684385277 1.0640710979028254 -1.6377793440026762 0.5414637842438481
Ni 0.6465350286493581 9.007766624960919 -0.11943934361128034 -0.09315363863654925 -0.006867673654110752 0.8507307277713348
Ni 4.521693782923902 0.14169450281204085 1.671578120793475 0.16567931661010177 0.3927843446258526 -1.1932217234592741
Ni 5.808777782336616 5.309640594121838 0.5566662310559286 0.17384025515433932 1.516249468216279 -1.5563676763934036
Ni 7.680367803364092 8.877624688299143 11.562000126748174 1.1700391146952236 0.02241230625692914 -1.0790179490206449
Ni -0.015048510946540314 4.9079965890670705 5.839328787729679 -0.07955507401650815 -0.389895967334464 0.28563979102685
Ni 7.970282935069765 8.666191614345012 2.568440195026241 -0.49163837608128885 0.03373981545460641 -0.0641197132980444
P 8.596354272341648 1.5257288987251032 3.5361110090906775 0.12258762762695018 0.3070437106239228 0.45704135483270963
P 1.7010245236187158 3.3878767878766864 1.5416980628372776 1.3067248722864526 -0.9491826386923459 -0.10739163661280214
P 4.939820741800405 0.9630158974189028 8.252676982843584 -1.4149947977391502 0.6270743204258168 -0.5859952909973198
P 8.496930979690694 1.6863810638188668 12.498729382747904 0.23608023493116762 -0.275754413592338 -0.9047686313533452
P 6.295736251509934 7.7573818905168865 1.2269869141784446 -0.2142741947996697 -0.37990800288381665 1.1731334373498312
P 1.9229327457960061 3.195210177564565 5.94001707232869 -0.5848233821764057 0.33396856003922487 0.9222464764231343
P 7.000489000565288 3.8933117511910273 5.92512351383424 -0.08396091639368765 0.5585197112848703 -0.5144929120819591
P 2.3329496201917768 8.521424340977198 10.072622529590564 -0.046351590681345985 0.6693059754015183 1.1575972893874449
