# total energy = -340897.56109826575 ev
CRYSTAL
PRIMVEC
9.03015543890503 0.00000000000000 0.00000000000000

0.00000000000000 9.03015543890503 0.00000000000000

0.00000000000000 0.00000000000000 13.21654526694323

PRIMCOORD
 96 1
Ni 6.308141605849679 2.0006399999393074 11.411390455052349 0.5207502058455806 0.03470552180198539 0.17825972437827362
Ni 4.6143192022107185 0.5920865323289921 5.880913205936664 -0.7657431698853457 -1.1675330604439182 1.2286916342311098
Ni 2.7397130837666546 1.6478408514018204 4.701191104966364 0.057767288717455345 -0.09030254234099933 0.36960199297211827
Ni 3.4328317058236144 4.378966257207454 4.922740554142901 -0.6326888383991168 0.17170855352331718 0.31029127102694304
Ni 5.146980989683669 4.450169033992579 2.489587707242428 -0.7672300388435174 0.854815953584302 0.4443871564038088
Ni 7.086649379115283 5.95992074619362 2.5396779802705947 0.9205654891762854 0.5407621301911332 -0.25532725608623763
Ni 4.910445094298813 4.593035125497649 11.288000603112296 1.4406927167258865 0.7507420684908231 0.13292809032100977
Ni 5.646357623671526 7.854673141747083 12.433055033777489 0.14649605881343158 0.6014584196299254 0.1084974680824712
Ni 1.6506311694774836 6.608466520284646 0.3871588905371579 0.8305282846815308 -0.190479149262601 -0.4796670626520255
Ni 2.806879381005433 1.6162714274778127 0.4619764386028274 -0.2943684291490995 -0.5378927790631381 -0.46117106073036707
Ni 0.8590125133184978 0.0183962329570905 4.498013507326839 -1.027073951853186 -0.8257144082326554 0.9756364620085005
Ni 8.624620327518418 2.273161065329075 1.535564411939821 0.004249005084341069 0.664178681477282 -0.12854384521038506
Ni 6.775425066889618 0.6144415854944021 4.7996550184460505 0.876850050566206 0.8512212942545082 -0.22182655322563088
Ni 0.7843990467690417 7.477032035196168 2.530281200369187 -0.3410645476540578 -0.753098998758774 0.5303409348578092
Ni 7.735032610405785 3.9033389324072796 3.8855847435122595 -0.2735232102689741 -0.35353388376566214 -0.1181830708013513
Ni 7.583506599695016 3.774496672525203 12.743248102235382 0.6274538152524226 -0.4972616358053371 -0.7032730763755823
Ni 7.761554177357962 8.85991006143259 6.889917506532095 0.5766357041592908 0.348109113205665 0.5630368824289335
Ni 6.779271913168687 0.9252929522944199 0.6453147844228316 0.7133885675430295 -0.7859558973877948 -1.572830707045433
Ni 1.8101578980362705 6.567568945641675 9.198900296049999 1.0250669487254862 -0.06874898453993965 0.49339212554760187
Ni 0.11702178622174346 4.785973429719717 1.4276910763409074 -0.885741696628881 -0.13761803959751137 0.3101241493214595
Ni 6.323095543497893 1.9789134456025905 7.117004247113152 -0.1848720874884687 0.05789918630962932 -0.8117188652845118
Ni 3.3323441344774025 4.145012986319814 0.1646585659775551 0.497043349146944 0.45017008163417305 0.799876621233945
Ni 5.942700239493654 5.678685580664646 4.695032538857618 -0.13564188970774704 -0.7236786366151279 0.7137747472378545
Ni 5.351324380409175 3.056897298678202 9.120011050831202 0.11645657502854782 -0.3423701538393587 0.7001301598712265
P 0.2749637224754207 5.345256115856277 12.49986463987067 -0.1873891974833676 0.5548150087397735 -1.0438815103288281
P 4.013624222562859 6.174395971485127 12.63271809486346 -0.5106493699661528 -0.6643738282072236 -0.28484274904685136
P 2.4441019105468853 8.4525055620746 1.4360439702567274 0.0972954287190647 0.6914254330083769 -0.008687757581985037
P 6.190018140646606 7.744875479993076 5.832778864608136 0.36208871531420866 -0.6727977906048607 -0.48503989692816474
P 4.665592425620476 1.1138787215246762 12.60369427179877 0.4018161158108176 -0.5057604173049677 -0.30053804829492115
P 4.07277174164245 6.2162597727756586 8.236379624342216 -0.22913414263063764 -0.44522353626217515 -0.05613952330604525
P 4.778270707005993 0.9806207155616953 3.7585214242803624 -0.34509835140379924 0.0167057427904551 -0.48517308007191934
P 0.16831758502046354 5.566296264257838 3.586626994632811 0.28040502499047193 1.0789169046664064 -0.06847207672946917
Ni 1.4844853368751332 1.1113141573386296 2.5262501389161898 0.3721589550660171 0.5720964215280405 0.02156538487560157
Ni 1.9463145839419305 6.467397429740926 4.751638972155684 -0.2330720442324631 -0.32167457316322023 -0.5012201062324528
Ni 6.092022892241763 5.654809849298778 9.140034517824649 -0.46255071468671305 -0.13324382178921568 0.5819164929422559
Ni 8.722543334678583 2.3339340124139065 10.319147986308542 -0.685543263195987 0.2761398219562148 -0.14463869388971864
Ni 2.319205828655309 5.448651397300753 7.05875884057647 -0.2080351558684933 -0.8012128235468654 -0.3762467519821456
Ni 0.6479398506512952 8.782837683517428 8.999674294494326 -0.16875512732194806 0.9837282378776995 -0.21496170778499754
Ni 1.3092100169766812 0.9169310282230151 11.33272515769205 0.5926608759429536 0.5874423078564914 0.9358506974701303
Ni 4.184926274004057 6.934220352846046 1.5001969045769012 -0.018734086074393544 -0.15937137211420294 0.23976771108508385
Ni 5.705405811039685 7.987226795574459 7.965070405831912 -0.23773808224956475 -0.42874893564591965 0.8056957990188834
Ni 5.139314387592284 2.932452724565859 4.7733005093721905 1.0950744882628753 -0.3719152144863272 0.8098347608879214
Ni 0.5726057776861827 7.458411854380578 6.738164838916151 0.7724092690516117 -0.33648618425475596 -0.052668534038309296
Ni 5.003211882620132 4.493974318733816 7.082891931376501 0.11081351781015754 0.27061272149039844 -0.3946293682543913
Ni 8.227383783348769 7.011572665584333 9.178190537232116 -0.748106687750505 0.6222712426102186 1.0382140276304055
Ni 4.513036977173055 0.35103646216735945 10.475143021018166 0.19536347393809578 -0.741816226756103 -0.04311431469097091
Ni 8.00625333339136 7.190875434873548 4.600031690044652 0.5277346075832137 0.4149359410222273 0.3090409435596097
Ni 7.334951567226964 6.1410295465997695 7.111624983431363 -0.6637994437609923 0.320940266100357 -1.4199086901009998
Ni 2.319530914256357 5.198154881381996 2.2483588400002192 0.7772506563043129 0.3396321860829054 1.3898643212201096
Ni 2.386336005271749 5.157419849539548 11.436290206061518 -0.8836279927199879 0.2529628696191192 -0.4942976680810068
Ni 1.1308102632459331 3.529084134200616 3.870981175900731 0.20802949944153853 -0.4324240705046617 -0.4655673900258498
Ni 3.775489989639517 2.651199498725716 2.6748702455598123 -1.3008812690214822 -0.45373671593950893 -0.3323222826850535
Ni 1.1012003830837989 3.2818113838255867 8.165935380626204 -0.5252678912102761 0.4487534037923046 0.034443526389850355
Ni 3.476582809631342 2.5843041061544776 7.345636950330304 0.5257648854513526 0.4563620693774979 -1.5056832626646584
Ni 4.131603205276578 6.802777408155585 6.003417199613861 0.180163883379522 0.589398660251914 -0.27914801265491923
Ni 0.6309667702143489 7.357725619611503 11.336809497062998 0.5043203424243314 -0.7747356031919431 0.054308383634577434
P 0.27976415318423153 5.607997522747846 8.00495750606496 -0.06282799106981438 -1.1246169778066823 -0.4825940064908334
P 8.62978557651285 1.5177072792711355 8.10503330231651 -0.2470693869528197 0.6459948114794036 -0.04120424215245162
P 1.8468022693988628 3.1280549246854044 10.406496681279059 -0.6045661120209717 -0.09654569503723372 0.041083400303871184
P 3.9731330049211975 5.976888408537216 3.586983685778405 -0.07564056945345038 1.3119961479877211 0.4120524488268451
P 6.945201022037006 3.9272688447066564 10.45131334344578 0.001959694829532109 0.313306403704183 -0.5183847909371975
P 6.3438919918093895 7.6657081059822705 10.257836841950866 -0.10203628583815977 0.2837608288365822 -0.19682154654086104
P 2.405597327133851 8.391181775499104 5.858207782734569 0.3449695391354188 0.16616011290126223 -0.3514595177351367
P 6.962873036516205 3.916315265982451 1.5815577033792227 0.5183395395215589 0.3283229317176733 -0.03390719427040612
Ni 5.254223117407214 2.794715761432882 0.6347287330309226 0.0010916904022819907 0.57167938859528 -0.44681144957458535
Ni 1.5209129845036935 1.109472005599357 6.958141234989839 -0.29008805660619075 -0.4094774890108173 -0.45945999157653133
Ni 6.887615719873563 0.8586251196439153 9.24570088339867 -0.3445777030136388 -0.7678625302211937 0.31231472921487496
Ni 2.648499482205899 1.4042343441941676 9.164366272047543 -0.13800653328518167 -0.31135699328729605 1.0903477722111674
Ni 6.422571737418623 2.1596700699409377 2.822432920984469 0.20963978135145186 -0.7167448856097721 -0.3800123896721649
Ni 4.215547531591674 6.774621383042582 10.453388473199137 -0.4503775696592889 0.956640637632288 -0.41393346789964197
Ni 8.161535888825352 7.085087162199135 0.11508933292662399 -0.5720079755792923 0.4620735179399784 1.5132227655748132
Ni 7.615256626730718 3.868021993915634 8.00121721562179 0.6808270886672404 -0.21612667462737617 0.7897001949215755
Ni 3.1690789215065616 8.265843215983878 12.562445424103553 0.09022129548110268 0.5395333999903547 -0.6430118175916797
Ni 0.11972270575711837 4.780365703101637 10.212067498369962 0.1398181325726237 -0.10328481353328017 -0.04880647997974175
Ni 8.520322030515475 2.374307838032968 5.995382167174621 0.3733511756019054 0.22106627802083864 -0.6549689899535559
Ni 3.773367903077119 2.715792201622863 11.324398451227426 -1.089597267198388 -1.510364984411044 0.04391315644318244
Ni 1.118204166049733 3.2599584073106844 12.745507447162668 -0.6387820957810483 -0.36079236510028834 -1.2835173238217379
Ni 3.2888097544037067 8.354952791293407 7.869699320639975 -0.8097496573732829 -0.2423177312004472 0.616859584676344
Ni 5.633281958384924 7.873329443185012 3.633096175271525 -0.6698556772574011 -0.24137619322278428 -0.685061181353246
Ni 3.1414647057286396 8.25499799912669 3.5363507003996 0.4779837614123317 0.3797964170066169 0.2176716505169929
Ni 3.233129815068629 4.248272815430519 9.100040861755703 0.3132467541108412 0.718690182261601 0.43296991570580273
Ni 7.326851517667515 5.984907186696404 11.46882946869532 -0.3470027675153637 -0.5859958052179521 -1.2108780030884565
Ni 0.5249563557125525 8.957796947970417 0.43876261764131524 0.14432373375246113 0.19434043199022014 0.05194476849840731
Ni 4.686948743578221 0.39082784275120946 1.5316787359917374 -0.8641197474837311 -0.8407319646874102 0.8219055760095265
Ni 5.974152271395061 5.618183538247354 0.240287022014728 -0.03350121708123908 -0.40933942077105634 0.7404831097669763
Ni 7.857978178691072 8.847069180191188 11.369150096273936 -0.16325733743217044 0.133902281308821 -0.0011515971059399522
Ni 0.10130931550441699 5.0128560887845595 5.798468788464182 -0.040838888393232894 -0.825126139829353 0.05655629912848969
Ni 7.863125367374334 8.934029578471565 2.576499342682647 0.5601724163969449 -0.06360857798958078 0.24246479830127274
P 8.622191215666142 1.6520669642154462 3.7635566390343747 -0.8163383663343942 0.37336480244866016 0.20383268775137156
P 1.766939573408038 3.202942004949076 1.6230846798664464 0.7536720976534246 -0.5790111463700028 0.22746498245833086
P 4.745897599234949 0.9919896814427953 8.31468732754136 0.20935875977592333 0.6855653746831742 -0.24077069842830143
P 8.545597435996967 1.5053991772092297 12.562485156788126 -0.6778281539399165 0.9534830658399127 -0.20616570675992235
P 6.371731961476928 7.770403729830939 1.4513482779416267 0.13222875026114 0.04893040715211573 -0.6619983859965115
P 1.7848192814656854 3.2519667196182516 5.975028196486774 0.15011951449863178 0.07572284475461152 0.4531463906536776
P 6.806254018055682 3.9446609243627315 5.909712178127295 0.12409480830009595 0.20725739716220434 0.4449206603097757
P 2.3360741592874734 8.38680215004054 10.322240814596293 1.171687448931924 -0.25210874914894005 -0.1216841419760743
