# total energy = -340866.6453813667 ev
CRYSTAL
PRIMVEC
9.31423860417097 0.00000000000000 0.00000000000000

0.00000000000000 9.31423860417097 0.00000000000000

0.00000000000000 0.00000000000000 13.63232969487121

PRIMCOORD
 96 1
Ni 0.5687553484580926 0.9390242734577579 3.4407998733179586 0.9661722312718071 -1.8861767057382999 1.1760182150967942
Ni 2.8848339058101606 5.456103970901036 6.724596147398833 -1.6631324780554841 -1.4700392882088038 0.09218510407569286
Ni 7.702856650740149 2.0327394207211262 4.682241638224578 0.5271692219980469 -0.014334928565433377 0.4877441832332052
Ni 4.748650296224293 2.395920210185744 10.831935971147477 -0.3171090652797248 -0.6709586805135929 -0.09852055937541743
Ni 3.7742412305225854 0.27377900218524787 12.524361989463245 0.11760123015595231 0.6225900594022181 -0.1357143948168953
Ni 0.4192077971787017 6.0395571877879135 1.008963027867173 -0.7977135521443552 0.5743890742169592 -1.353688385520185
Ni 7.390336004738242 3.8544461386596343 3.232280152095598 1.0301145384517227 1.062268497476448 0.8448202758241707
Ni 1.919506222692778 8.732163838443919 11.124566992153929 -0.5426112675847301 -0.47044425850217686 -0.13533721398313464
Ni 9.162332631545937 0.22645428754658414 5.668786225330509 0.5197310205524468 0.7949465309221794 0.7795255683814188
Ni 6.834527447861905 5.274187577819546 6.196370776558618 -1.6586171066836337 -0.8660431897586891 -0.36473052381242993
Ni 7.8650454865769195 1.7155895981608515 0.24040515404381704 -0.7969262803563695 -0.28603419825179127 0.2262779041287651
Ni 2.4537802600460794 6.240409427837538 10.980923736690132 0.6576930737529383 -0.6770959037595824 0.7233824455309477
Ni 1.235775913597856 3.0956803238218176 3.3260018832135425 0.002974252136975523 0.35582859333710976 0.7185477431464656
Ni 0.26615436650983404 3.299606262592292 12.962736626726072 0.23691121547289518 -0.27184582256655115 0.7855342364693438
Ni 2.6937336735203172 1.038034629223271 4.886004577820463 0.26019846813561 0.7946261714682831 0.44617484443185096
Ni 4.623103674835455 9.305688077038601 7.417609958054571 0.028972733083266228 0.055039091153014884 -0.6717225552628109
Ni 7.315421584096472 2.486082039330632 9.946229193410183 0.8508641680254055 -1.132730350942436 0.08576943035733617
Ni 8.860691016168126 4.499559614734442 5.383557229698173 1.057443822394295 -0.4955752492418497 -0.8280474272412062
Ni 1.7824751451742242 2.9930839862153147 7.311249736650811 1.4445272599806283 1.4441997014378805 1.4293526091227189
Ni 7.106922354198916 4.381054557687911 0.03962183935944647 0.27649823373689797 1.2143029696096055 0.43016175683304625
Ni 0.06264104850703717 0.6749153137330702 9.582955261560086 1.1950261236578645 2.4491871058046724 -4.029218701473919
Ni 8.228328732665565 6.336057343487215 7.674142716144294 0.5174836192791669 0.3851543388844206 -0.010626626475910731
Ni 8.733980114960785 6.686198198984597 4.225735904204163 1.295612307313059 0.5590917817382565 1.040242370914344
Ni 5.314397145631373 7.51725181919364 13.07205411886883 -0.24482378545175257 -0.5583320207540965 0.9100458205918843
P 7.4284778115924075 6.672804323952535 0.24617811909588336 -0.48986482912063384 0.18756197561580604 0.14661175845568944
P 0.38048757611070416 2.4993827719772135 5.96832934276345 -1.430914297182884 -1.482970651558491 -1.946268271713558
P 7.635952475249679 2.95725211052106 12.12148577815465 -0.5375911886623194 0.2654075231403752 -1.7945359042018512
P 3.7630548300264066 7.388771212662174 1.3239128272824041 2.9270950196737457 0.9224873887893468 1.4850907832252875
P 1.0087413489897301 6.076599914493411 5.977871780155903 -0.47546922252059404 1.156131760585512 0.07660139070482291
P 6.182875376326384 0.5992902166900853 9.496839537640458 0.28825845959661966 1.566848007099437 -1.6429562602179253
P 6.009667796287299 5.6109345582848675 8.315830415281138 0.3508761344278409 -0.548553601211094 0.33984841585876957
P 9.522039210032142 8.128359010329605 2.44150968218291 -0.4664467073070096 0.809685894014883 0.17686001581726962
Ni 0.97463260742686 4.9623748139472905 8.813750979581496 2.2147210094381595 0.03403137855309623 -2.677838138151304
Ni 3.7046359258531893 5.205923523501066 8.94582129364937 0.7691552808906882 -1.338232970197063 0.4875901741538442
Ni 1.817692281124309 1.811842939316149 10.76367843679598 0.6253884480829617 -0.004998995876488165 -1.6944004349308304
Ni 2.4777457958301494 9.072999769631823 0.9431812181217417 0.46303125386755734 0.3985539001197781 0.3706980542497745
Ni 4.392175758514253 2.6050155513503728 6.728958936734728 -1.5640681303614548 -0.9219762534808832 -1.9795946537798295
Ni 3.8601278241739303 0.3367469804653207 9.493090556624876 -1.19399768239335 4.294443419179527 1.0007759373886054
Ni 3.657962276489033 8.786717333619706 3.1472690968677677 -0.7660331903219387 0.1856156505227126 0.7725455375191598
Ni 8.931358144031996 6.459117063183729 12.384766702072419 0.7291484014804475 -0.21121123960362978 -0.8517098038551526
Ni 6.003026744202556 0.4817296234323242 5.525101055793246 -0.25526015029372817 -0.037694686337296376 -0.3578409957814482
Ni 2.966268293435549 1.805332286571079 2.2351843955624644 0.09988658648500863 0.5172306227280963 0.4969469327783958
Ni 4.220989368240089 4.791980133949708 12.460303313849197 0.2957732799164261 0.5915707282025683 -0.45771112720622464
Ni 6.1260398927063315 4.392157130037157 10.533373643033642 -0.28246859238771993 1.9880651531446856 0.6825399575932891
Ni 3.7781811534284 4.424710393762507 3.1603556020277437 -0.8606371882517693 -0.3852350715236849 -3.5730921451459947
Ni 4.405625518977603 4.728084457510253 5.1840341314893505 2.013955647758203 1.4138311164483521 4.401596714529277
Ni 2.4819558316538575 7.002304826827492 13.431770943017437 -0.8864621197346733 -0.49851299171393504 -1.9969287741829027
Ni 0.12917451730329427 8.580425578258033 7.757477208433481 0.025506628911536718 -1.5846338703279483 0.36561112664517037
Ni 4.623914013589133 6.82525978050662 7.090938189426649 0.8861186203523256 -0.6007840192707201 1.3849044061116729
Ni 8.346982817528865 3.5770960574150736 7.601809271004182 -0.5173774327186057 0.48149665966159655 -0.629288040247684
Ni 7.670433786354471 5.959398850843605 2.379209534806731 -1.0201368584137205 0.6742190964324195 -1.4217388013312031
Ni 2.797987945588369 2.9521851647509343 12.479906991721228 0.1844879646761726 -0.15714222567336808 1.2849697399975484
Ni 2.0556058763565295 6.931628384725073 2.533540879004388 -1.5057097450272199 -0.5226417664413385 -0.5474256582542378
Ni 5.07239459967657 2.772345846865654 4.307106955007425 1.9829376021101335 -2.369131180892346 -0.5429359979140004
Ni 1.9854230888971556 0.7886403035567543 7.9441718058901065 0.4065433460831579 -0.3042890306969211 0.1505396327551859
Ni 0.681761279065869 1.2308766241215947 1.182773239140316 0.38325249387601734 1.9421779036942681 -0.6603371962440047
P 6.005830330005511 0.5294213190697802 12.924130039368361 -0.9438784528706131 -0.7286598918798031 0.5048479327930274
P 4.0589123032658945 3.2152751467784677 0.9024249045071457 -0.7704896834313956 -0.29504977148684025 0.32864946181915655
P 1.647651542191552 0.9839002747821456 12.821028870032555 -0.1357971843386887 0.01064128176393006 -0.02909460337311118
P 4.725299500184392 6.390359354222204 11.042528110446773 0.07378500430195035 -0.09236970928267317 -0.3003603850664763
P 5.891619136929621 5.329560725987559 3.7594418368936275 -0.3268041810803017 0.9435832902276975 -0.37196715077018516
P 6.6571657174304 2.6680729463205064 6.48076894211247 -1.938606641403242 0.8917575638056578 -0.1745395952142091
P 5.621767017716221 0.7464253801855375 3.436383061398485 -0.18105374218364303 1.161044367395781 -1.031898626935339
P 1.1600325257253115 7.1649128033989244 9.597241440645046 0.048506689351135814 0.7180970287622923 -1.5362228260144124
Ni 6.868617560947679 6.873516850423941 11.050203043010347 -0.721965510578763 -1.1732640493904245 0.6141894940433487
Ni 5.424277217782432 3.1963020428561393 8.53792843345881 3.3412148925525815 1.5034420320389654 0.7297240714782594
Ni 5.557554657166132 2.6004050032691 13.11569132646633 -0.32280097345817954 0.1333476943569316 -0.4203542838243212
Ni 8.730142648678997 5.849369750875776 9.978769417201564 -1.605951400858802 -1.1595929796612352 1.2836587344956085
Ni 7.436618456083382 8.867434524876897 1.2082029732241357 -0.11620666380127083 -0.8599360484196868 0.9219392295953606
Ni 3.2936637783986518 6.496411274330025 4.304367637450451 1.5780083945916306 0.5631818926472301 1.4074588943734214
Ni 5.3169678754706275 8.690212508023611 10.871387359941494 0.4507709484429656 -0.9965994374134125 2.2442511576867927
Ni 4.866596498957942 0.5781059125364556 1.2987383033348003 0.6911870917453258 -0.45320192648196145 -0.6596890211370445
Ni 2.0307648021489446 4.144724383008855 1.045667647713378 0.42637914986216247 -0.2627294620875798 0.2830728016306222
Ni 0.3267472139601603 8.521252220762426 0.16287902091318 0.071628877190896 -0.9954984910397501 -0.3992833220866349
Ni 7.936103812459808 9.06518512349003 3.763599712981466 -1.2058705225715363 -1.0663169565142085 -0.8114090473535768
Ni 5.846687250173945 7.348673415712923 5.317889985086882 -0.664294895340172 -0.6035019324225155 -2.437927473730453
Ni 3.768270803613301 7.58084943999956 9.240851662505793 -0.5738159753223085 -2.1960655991205016 0.6013005538958226
Ni 9.005788224269269 0.9083413088328516 11.5844677661251 -0.22922387413096654 1.252838149570326 3.4763207072511997
Ni 1.130934844501279 4.137002879252542 10.918432647423717 -0.17444189329408022 -0.03194235723455144 -0.18575191899026075
Ni 7.345096748110481 0.8797205166224783 7.443102097536663 0.5471430940168126 -0.5468103932677422 1.5403425046097408
Ni 5.994699814940621 2.738991558625174 1.912424607124714 -0.5902121572921448 -0.6786215963754894 -0.23738224157204277
Ni 4.456667546220784 5.351756556447504 1.1842141518436957 1.3573113269847528 0.9641616285996814 -0.7659444872628745
Ni 5.859745812618278 8.066288924645564 2.9244482937787684 0.3485222894836837 -1.890243676718822 -0.7605215164750903
Ni 1.753768661969209 8.1069269474306 4.751588938486195 -1.8323799716328184 0.13039349682461415 0.25786390646516233
Ni 8.570422086057453 8.05701194305173 10.093158512233723 -0.37969768664522346 0.7637549358107234 0.7766508179367849
Ni 7.660020467657778 8.653225666749401 12.514110738517287 -0.572684947041659 -1.3300918291471673 -0.966240108395265
Ni 2.4712817142778194 7.755090900517476 7.213860989816509 -1.3977113280683542 0.33592722642749245 0.17554001145426543
Ni 6.433540164130852 7.8759897168708495 8.76143010738567 0.26429577813343513 -0.6615265885664156 -0.562211815424477
P 1.5692442820942718 5.1404351122698975 12.768653043829296 -0.14751807232004271 -0.26209080006231633 0.23113831754486
P 3.800293155741413 8.402942762725402 5.5562106125436515 0.07231587595559158 0.49518315600975366 -0.6024773478127431
P 8.440115888770574 2.18930245647489 2.4342157019759516 -0.3424894530260424 -0.3350275974313585 -0.5282912514176321
P 2.978768001566999 3.245863106170184 4.699963839909907 -1.0275902293679722 -1.593932779131371 1.446478213059412
P 3.5447477069377804 2.7235951223052877 9.04968529912226 -2.61742492717057 -0.6993061213080344 -0.5447378270094295
P 7.663336336580875 7.849872591982186 6.086358442220178 1.905146304862267 1.138260022511414 0.6851835658637232
P 0.07508021408792546 2.9769982962428747 9.289110595270825 1.1133339486936955 -1.0894098337779303 1.4059918229095913
P 0.6987662843829996 4.982949966899878 2.7481008839251433 -0.8283983828227218 1.022812862583987 1.0143968706061497
