# total energy = -340891.4197230812 ev
CRYSTAL
PRIMVEC
9.03199690550472 0.00000000000000 0.00000000000000
0.00000000000000 9.03199690550472 0.00000000000000
0.00000000000000 0.00000000000000 13.21924043944373
PRIMCOORD
 96 1
Ni 6.418624882279737 2.228022081893084 11.407173919547931 0.6797297418380035 -1.4771877263281268 -0.6782598421606963
Ni 4.590133193049811 0.3436033632880133 6.2310610108593965 -0.6319509317918278 -1.634549781321785 -1.205026686514002
Ni 2.7814486735070174 1.5414548207132495 4.872929538918011 -1.1602175006191113 -0.07309697709599024 -0.49523097852855363
Ni 3.272301589064201 4.573604638317731 5.20976883956184 0.5144900838684817 -1.0476921423241696 -0.7302570611635939
Ni 4.992048032953006 4.298517101992608 2.736184819933345 0.10228285463132707 0.19362103732569236 -0.12246061513078266
Ni 6.979782863429551 6.124877239901894 2.774520228515226 0.721109590336371 -1.1420066340380397 -1.4185627175960667
Ni 5.287909162657248 4.328259468513231 11.538784568801473 -1.4445719971756348 0.947185148646343 0.40312300754769925
Ni 5.776016351089539 7.951996065569372 12.196574080753244 -0.14706684371523704 -0.09570622985507388 0.36608138141336954
Ni 2.0574076562706796 6.5002470402654255 0.5400863318656919 -0.1354274597040958 -1.5276816213126208 -0.45568124126038945
Ni 3.1355300566555155 1.46089843838788 0.42638161690523596 -2.832134666845761 -0.026310355759754687 -2.4685865933772067
Ni 0.3226942899520754 9.364013335536477 4.973620049226305 0.0053504656786359465 -1.1252260721455911 -0.7784770725122464
Ni 8.486283855283155 2.255181297237 1.4049804410098563 1.6265454229600695 1.3346686498845723 -0.4504289917225146
Ni 6.654323879158628 0.7798379858529358 4.762006679070932 0.6888486734201362 0.315283839145528 -0.09075994159339208
Ni 0.9942332111216866 7.718166692094601 2.5121578729343805 -1.4970898645686925 -1.292157001774607 1.364361548963315
Ni 7.5716496347919735 3.746779493840367 3.9644370764693515 -0.5882792019354901 0.621564189240865 -0.8424494615991491
Ni 7.618200547955439 3.9076754905601927 12.681442395017818 1.399286642975274 -1.6572503082430945 -1.6644951627309656
Ni 7.728941864660378 8.776292250852757 6.802423342356918 -0.20116928198659548 -0.2618668569769683 0.1901323074461435
Ni 7.1356751337441455 0.7149114745460723 0.32245945802692016 -2.303797392681542 -1.0400857907318215 -0.6635109659862961
Ni 1.7857703428459144 6.517660730715399 9.28692614330542 0.4673044273216146 0.3846851125574859 -0.6064736134563297
Ni -0.11877076214582417 4.744815175750144 1.1981612549264986 1.2771335317825814 0.4634534290066405 2.314649247794381
Ni 6.046100161009431 1.8735613548654892 7.065644640864004 2.1451801251245444 1.5262510595136811 -0.3097495395908601
Ni 3.5409493114417976 4.505575635999681 0.7283546990614976 -0.11404847980768747 -1.2744806675407665 -0.31231215811171376
Ni 5.750898367095049 5.5537569659272235 4.763394897028484 0.7558431371628144 -0.08249975846712888 0.8878834255622322
Ni 5.602294918457389 3.0025248670464353 9.231736124895379 -0.9134049668721045 -0.4610641028388575 0.11309974274117296
P 0.44823724353949185 5.516906417672093 12.540036544886165 -0.06684893930374938 0.13217835663917882 -1.4319111138785146
P 4.106912315060173 6.068571769847363 12.566567133230434 0.783624935261773 0.19085890119952292 0.875334385252628
P 2.4508775788654082 8.386444159103691 1.2435009772759908 1.1570416739942913 2.5510521561722905 0.6504829291577443
P 6.108339653172691 7.665401764911643 5.758882652550327 -0.001096575498288434 0.4273890791839155 0.1952835126297798
P 4.939183753801713 1.0271458086319059 12.653880352602291 0.39666028264149106 -1.886682441730125 -1.0785914030061876
P 3.9372101211470256 6.232466389611479 8.36746251395345 -1.264060757759023 0.17886650472433713 -1.8316834597864262
P 4.661504034302761 1.037415189358887 3.8986452998382615 0.5682112275410214 -0.3079286843320374 -1.4296601130608089
P 0.11019488087909717 5.6378538911241645 3.375982593619377 -1.3065981169006013 0.6819249497171094 1.3148462158420064
Ni 1.4350940226121676 1.1300744478268727 2.4965858066974516 -0.21958275149677667 -0.09305927915053006 0.2068061685573987
Ni 1.7538422330219228 6.462050724439214 4.8072036958659075 -0.5741044530970048 0.9549555366203811 -0.2883098816598454
Ni 5.828555478344463 5.4995107912163625 9.277633121467257 0.9747144644148631 1.1222880725631896 -0.7426068409781984
Ni 8.73394121635072 2.5391292227381723 9.889432607276799 -0.1850160692655007 -1.0806462286526872 0.8029730007710816
Ni 2.191532813522808 5.276944318151923 7.133009791393634 0.40890464722648284 1.2233892481815898 0.04065248341403967
Ni 0.593402210873053 0.0004913406434017366 9.078736803258753 0.2059253086143421 0.11074898312080926 0.4611111540267091
Ni 1.542863812264181 1.0868563416011867 11.24823876940315 -0.9043423424492039 0.12911025923681635 0.9803966024013052
Ni 4.512078673927057 6.642148747039041 1.7646761135689888 -0.48908038554612543 -0.08114067333607317 -0.2893537495433275
Ni 5.572940927812983 7.692515820269952 7.934955396600511 -0.8350955923372393 0.7547537607533775 0.23654200505893455
Ni 4.881740252109894 2.9017277791721083 4.896935684066861 1.4810932320301202 0.22238422550131376 0.19266510117032626
Ni 0.7428790536323494 7.552574056871671 6.912089851404415 -0.07023533927747903 -0.7649692678337987 0.051360356749847035
Ni 4.818091768395701 4.640197553093484 7.127470467559107 0.4674864614254336 -0.5710507538723455 -0.13045468907985275
Ni 8.278412441535158 7.1985468657059 8.911433507781037 -0.46001457852842065 -0.8362124795505019 0.146930832358005
Ni 4.4581124911269585 0.4540095928997502 10.536157922754912 0.7140639963434992 -0.8188680747347833 -0.15618988906242778
Ni 7.952745721330444 7.16462268451809 4.687727534744905 1.058751742572441 0.34945688548281106 0.0815978154781498
Ni 7.0481460496410895 6.114219483298694 6.902770636774601 1.2885420307298387 -1.4504364263762117 0.09662231391144005
Ni 2.0189945725135545 5.222788463412275 2.736726739760626 1.935206100362125 -0.20882319898742746 -1.5130489590011105
Ni 2.393587621124651 5.2844318437655255 11.407570424221557 -0.4289145146895065 -0.7800490449850566 0.6584098973143048
Ni 1.1381851812418498 3.2731776927849725 3.818840379673389 0.10037792429913034 0.04698819582408037 0.10780327022892403
Ni 3.6178206389416543 2.255949016992315 2.3183375371080777 1.1068491123003001 1.7205763219952497 2.9346244952815717
Ni 1.5053719922134345 3.323883324624262 8.181559626803727 -1.109276233684554 0.034247094108328116 0.9429212311636663
Ni 3.58567576118675 2.337047319144965 6.99391703572476 -0.31754435304493056 1.899333297724916 0.5327662564698502
Ni 3.883713602197237 6.950943696621063 5.9495706917749445 0.5816071892319532 0.33649029801981406 0.504735575584879
Ni 1.0673291638248164 7.396121802735552 11.55296841708085 -1.5055356813432008 0.1775776107095845 0.0026037561714342254
P 0.19330912478923432 5.399562711071443 7.900849672270561 -0.5795857879265502 1.0830512385497542 -0.5796025000970986
P 8.323301467228296 1.428627112673277 7.964711311116816 0.0010466960969594877 1.1391113147681156 0.8119204397723564
P 2.0197261642803848 3.1651821032049257 10.335952868163522 -1.6612851404341002 0.4040447480310203 0.16267446834550692
P 3.888085088803973 6.065302186889433 3.9272776339126705 -0.9072224922104762 1.2335913855255722 -2.913780047732395
P 7.0763078166654765 4.281997579257649 10.458864800989488 1.3799349779215395 -1.085892307542975 -0.3261583199661867
P 6.431793534082672 7.643228211978715 9.947914788637576 -0.2984030042297893 -0.8308545576726981 2.193847765533577
P 2.207420096459272 8.52290860361025 5.633022675863952 0.8763278595141488 0.013608077701737853 0.652092182626393
P 6.872717569553003 4.072184286128561 1.5692029222694777 -0.6729219748875508 -0.6461385361461194 1.2574350249123891
Ni 5.51188462727262 2.7378602553993563 0.4057091818938776 -0.8570980647502594 1.7796623295241285 0.23019060891961
Ni 1.3181567558819784 1.1853141422210824 7.059166892528568 0.1456717631399233 -0.4472685917166619 -0.856053425535829
Ni 6.688031292415527 0.5719512177098339 9.210545253249254 -0.07921748817143132 1.2147171743288887 -0.4523431780260919
Ni 2.627091842703053 1.364797989016658 9.145321589237097 0.24158188147568715 0.3849764185456596 0.1471771440408562
Ni 6.3928114345069025 2.0440403005310737 2.4586198067978344 -0.7946184581587992 -0.4582705992541204 1.6768968788294283
Ni 4.156624427216113 6.7697166743810655 10.481073578711188 0.30647035461895605 1.1098305635261274 0.22495867109670936
Ni 8.343767972705287 7.199034593550453 0.41351011780759234 -0.45185569686671206 -0.2693711357738135 0.6867992470902753
Ni 7.514594508976371 3.8701385105238395 8.092554714371042 0.7338563484790781 -0.11928298873374941 -0.4978663592688716
Ni 3.180771330236385 8.231464120498353 12.401987888084522 1.1017069059777282 0.2328974663278118 0.09788986776995398
Ni 0.1531564783865365 4.915863137234374 9.992635819184255 -0.030086020752103024 -0.41386687632776464 1.047492367608538
Ni 8.386597703054754 2.2952923964529393 5.970020939657117 -0.34404214222514296 1.1639875091845049 -0.18805382765056003
Ni 3.679870459165366 2.5321474889633646 11.436943382059917 0.5276405052075106 0.601297468572029 0.49404235753709114
Ni 1.1965499466400489 3.3534992431851864 12.48546702467836 -0.3861848370314639 -0.5033314961485009 0.31011592179134334
Ni 2.98942847122047 8.27274937934007 7.895218222065396 0.0577048109106361 -0.0512989073842923 0.24261983582189828
Ni 5.51708705761452 7.925676825957743 3.72011884473755 -0.09183826225923539 -0.18031455002477334 -0.7787948608629813
Ni 3.1291805626792026 8.405194585127626 3.5647531398551298 -0.20863473712570518 -0.5151416014095515 0.1633118448191897
Ni 3.5648389438277825 4.453271340669912 9.489498484342317 0.057275693793017494 -0.9213607313840714 -0.4829914990395682
Ni 7.65025510573913 6.309120949180423 11.507230383658305 0.0026973443265050317 -0.4919399664821076 -1.4785324132814794
Ni 0.5296146344031923 0.10156390442992991 0.22108793513567515 1.078610429169581 0.7055148212219076 -0.03905325724771984
Ni 4.608459115209041 9.160612760363552 1.5940156247612651 1.2430489313940463 -0.7832734654596253 0.2823076413298235
Ni 6.326841727532522 5.5787846299505 0.13139478452234268 -1.998089370149907 2.337918502734967 1.4084446553254582
Ni 8.030818304447441 8.761705575501768 11.087532444622873 0.47758189798822276 0.40456976729655486 0.6520183919656642
Ni 0.11215572745414346 4.764884273353796 5.55206798246553 -0.5297179565618296 0.6429082021342799 0.9551524831225356
Ni 8.06125613474641 9.065144550790826 2.3754576933029536 0.011575106432109097 -0.3329246921557428 1.2728629294316853
P 8.558070168403688 1.840088773533746 3.67264847426713 -1.1494260664305622 -1.3963776968585953 -0.4659499701762492
P 1.701203753798663 3.1695084298260547 1.5657003137858159 0.46557638888691427 0.3029042345342525 -0.5091108218344393
P 4.59578722324778 1.0426176197007877 8.386391773520387 0.7085422951943217 -0.5700030293341215 0.06704357181305873
P 8.466485717593143 1.6411861329272563 12.180512480272338 1.3297642706044195 0.6469918852853502 -0.5069606082606559
P 6.486807428548849 7.808658271253461 1.4713412334595912 -0.5271723073218405 -0.14463535145560896 -0.5011941380905238
P 1.7726016910429778 3.312557200234082 5.998864622464166 -0.5979288092101122 -1.4328056006683259 0.11202682139196835
P 6.7098977574463285 3.9801121074734636 5.971342320835972 -0.21861113161212675 -0.35702441341742386 0.7741249661911378
P 2.4959111165124868 8.368362100866738 10.275699512167247 -0.26833523831013145 0.6172406221648467 -0.8192683954969955
