# total energy = -340895.6621921155 ev
CRYSTAL
PRIMVEC
9.03875392574038 0.00000000000000 0.00000000000000
0.00000000000000 9.03875392574038 0.00000000000000
0.00000000000000 0.00000000000000 13.22913002157534
PRIMCOORD
 96 1
Ni 6.372673838838536 1.9410000375863818 11.26912848795802 -0.0444353474952396 0.21153622704321637 0.5614736517068717
Ni 4.791307731715162 0.41282157247608886 5.858347966681476 -0.5739558433342824 -0.8296170857211711 0.8603186285700861
Ni 2.6815541633721613 1.445522678428077 4.87084605226144 0.1005519879831494 0.46450603864087103 0.34609079722405556
Ni 3.4466485053338496 4.346067765376636 4.827282875141215 -0.2657106562030908 -0.6908862726754553 0.4596744215801825
Ni 5.112644462937901 4.527629210063739 2.8678238948386485 0.28322269694492513 -0.15761659420662533 -0.8986414354096844
Ni 7.392371793781074 6.383312451891592 2.614724330466151 -0.24974719089529893 -0.6793505041217138 0.7878549141827206
Ni 5.291873909181767 4.472022797572324 11.946512572193082 -0.5582183779943677 -0.06939895941911274 -1.4136274850779784
Ni 5.600601579054453 7.983623786677842 12.476220595321843 -1.8906547961143114 -0.22309590685635772 0.28944785191903055
Ni 1.8002033718876223 6.603641111009071 0.4049063358995719 -0.16478071605523234 -0.9229864399129524 -0.24478393335275267
Ni 2.869515045647677 1.6318294687845536 0.5317471659535422 -0.43633523263360985 -0.5675712799641773 -1.0529999276903286
Ni 0.39625172927399815 9.081055023061563 4.741016106373446 0.279705427820286 -0.2295666021823659 -0.1167414532588183
Ni 8.797003150669624 2.2622825362871852 1.1009979285763594 -0.1398232747789463 0.3190137385016054 0.46561984053034006
Ni 6.884737310955513 0.9008998078916316 4.727852969424284 0.4349146981369993 -1.2580356346108656 0.03581341015418348
Ni 0.772152704691621 7.401546128741864 2.5535663154792507 -0.3383060110723141 0.184946649480146 0.18027598347735405
Ni 7.538817680514803 4.090361424449762 3.8442000073835736 0.9993026952771886 -0.7915634733825593 -1.1368366598013258
Ni 7.557283854233912 3.917278330691943 12.722705599768915 0.7441705859208926 -0.2448592666753783 -0.9837032981770347
Ni 7.864050114563256 8.588307367507356 6.996979649979756 0.23006771018850056 0.6315886633564026 -0.10144544633169625
Ni 6.950512321309874 0.5903119625165502 0.24479837301487134 -0.0857419195535104 0.6580954513976796 0.8502512170317551
Ni 1.7370947938617671 6.5757113622121794 9.030084587320285 1.1916932026298894 -0.6294322791350321 1.1484539323252803
Ni -0.14863597674456666 4.893680655622471 1.3334565951001254 0.36385172075190236 -0.4823631214269499 0.4893405811860475
Ni 6.444134225242491 2.07537014943576 6.950055864250248 -0.6340281260358307 -0.2177277005659089 0.6048522758028229
Ni 3.721399500213814 4.260588272052301 0.6673067777840436 -0.5287774470254313 0.4127453611288117 -0.44257401445447
Ni 5.904791794591853 5.6741770338139 4.8413453680791445 0.8804781342370966 0.3694847506679637 -0.11927887496869136
Ni 5.241627477608332 3.0575753542134083 9.232490301813378 0.2906261884978479 -0.6252753195438651 -0.12416782762987649
P 0.13243129919017646 5.712410961778576 12.484131312521532 0.33314812102045854 -0.8397827134002633 -0.6654110112224862
P 3.9861084397820155 6.121830347378565 12.685570784248801 -0.6358610654795113 0.3424614280015844 -0.10035067060562072
P 2.3703046812294644 8.484849793161333 1.4654169752248267 0.2904063591775579 0.5952170667059039 -0.3064317880715368
P 6.388717626577852 7.705148825291626 5.637157010465219 -0.22945810162895966 0.5263228148373517 0.19534933287070874
P 4.517813123593375 0.9646067514095104 12.325461415343492 0.30967626315076346 0.8885459988468956 1.5469453546382392
P 4.005840039012958 6.150456080206964 8.24193328865763 -0.5724072679002401 -0.09973591983975726 -0.9214676892755808
P 4.796279046225934 1.1746402701128602 3.8142754056548145 -0.8029508892838946 -0.74806452165866 -0.7814865487625315
P 0.24983205492587082 5.451200019875228 3.5399166926835184 0.4547839262571007 0.2632331411968757 0.34330012185279585
Ni 1.4257730016898225 0.9976072410073901 2.6366315577020814 0.20263815322263812 0.6756002930506623 -0.25427053268694916
Ni 1.8698108137921061 6.551803858792187 4.632351306046229 0.2813882148393476 -0.6771421836164854 0.6214274065526846
Ni 5.893656050087721 5.516776177649158 9.270471144675687 0.28447610973605203 0.6909412942831068 0.08245810659591606
Ni 8.690861066487784 2.2983562021280886 10.19206517906262 -0.4045983065416451 0.6835768834982355 -1.0068450264008209
Ni 2.5143281819833985 5.126347213480323 6.928253486556727 -0.26869622119397596 0.10442921155036854 0.7569422837642641
Ni 0.5199452653049661 8.928381435058883 9.082869100920313 -0.23679217339652764 0.31582197103718507 0.04998533077919133
Ni 1.522288813228075 1.0200414275814622 11.246400541890129 -0.31576566387795296 0.9583378228290528 0.5373160806240617
Ni 3.840448924616354 6.883734009299703 1.6720690961854852 1.2830532397011258 -0.05281740091134775 -0.13666313188340978
Ni 5.559249281078475 7.813207125248528 7.794496905180709 -0.09929806097139028 0.41050824426817695 0.9529089385039975
Ni 5.448804750156401 2.9240368077003778 4.790731059231912 -0.21670620127993 0.8697882586234181 0.6402699931804844
Ni 0.9888486887147728 7.348479606027771 6.919284331303926 -1.1184766692368995 -0.30996139849135007 -0.08849505681861533
Ni 5.216337044878978 4.6831590442217 6.964527812728793 -0.4322039840740557 -0.23944323786612953 0.4056560583821982
Ni 8.045213854089496 7.044479204317147 9.175327415942409 -0.26483108181161485 0.27379523298343816 0.5592923277848367
Ni 4.552693673951692 0.3824965539603708 10.295966556213152 -0.1879512406344247 -1.2990143910160723 -0.2936842585978813
Ni 8.379015026603794 6.967170744297793 5.010347464561302 -0.08551206293089145 -0.2991432248299235 -0.7182867761755951
Ni 7.2831746108635205 6.10069774133095 7.036930941139062 0.21020825226041218 -0.5888682416697407 -0.21253895727611782
Ni 2.353854149575632 5.073985713551396 2.5479830773459695 -0.3463923876248744 1.4859364190550344 0.17498799560553735
Ni 2.3054697012553227 5.228331470980427 11.460368630059914 0.33283187533162034 0.9031886884607347 -0.17404877162071958
Ni 1.346322357054007 3.320612124355259 3.7450873619199663 -1.6564946610239923 -0.46650995644477716 0.8446102166958938
Ni 3.533800168084536 2.740748961064989 2.7316966492785535 0.7502689855091466 -0.8387876964768457 0.4197310484180255
Ni 1.1037222089282632 3.123702875960351 8.205103079135723 -2.1068981988252102 0.7504916430429139 0.5956762657305097
Ni 3.9525385087038107 2.670789007767923 6.988697440004807 -0.3648194839818104 0.01163475602545093 -0.2611495191949696
Ni 4.130493490682188 6.903438492269677 5.947287494905309 -0.16229343085700437 0.3283527565143442 0.2623373688554837
Ni 0.7651259775994842 7.497058638624305 11.316210451876506 -0.5363532024901602 -0.3633938072788774 0.01733823416813143
P 0.1795702072566958 5.49116034978819 8.010701181004977 -0.012247964129417616 -0.08268307812252858 -0.30697789038299395
P 8.250872616023367 1.510818634838672 8.017275970414316 1.4444264727367058 0.5041951297003768 -0.3276055939356745
P 1.666023073865019 3.2125899794129804 10.33307515934766 0.3495533018513593 0.18802374574357295 1.0254058201221437
P 3.9971718742569005 6.146614609903184 3.833034434992377 -0.8573739441194653 0.46920370122685645 -0.7311844580738698
P 6.866741152426513 3.9842103015142656 10.512872239321121 0.4379406294475167 -0.029688271093052103 -0.4774798251927196
P 6.086552091859385 7.611353678603815 10.269191056258125 0.5892055704045014 0.2643824243099705 -1.2561134778874885
P 2.4805593983247634 8.376086470419265 5.810590807864889 -0.36056250847766935 1.443738702641062 -0.5134518724119544
P 6.728249368910021 3.8730697865606833 1.5371060420962765 1.0309102948801405 0.3185807647292449 0.3570339264991206
Ni 5.402815571554918 2.6205696924554553 0.29236752575541397 -0.46232934270452636 -0.644461919774645 0.2993139460798329
Ni 1.1677165848124011 0.8952623372364145 6.906373375581764 0.4566559464688329 0.203193768615792 0.5177319878445471
Ni 6.907759016517222 0.5366280929277562 9.336219942644446 -1.1489180164458923 -0.12139103621568771 -1.2856842495660696
Ni 2.8054664372416034 1.7065347677509946 9.187246820388511 0.027645529631410457 -0.600661891870559 -0.31336811018005384
Ni 6.466975155731081 1.9866547823025937 2.540124784917485 0.3672610035437675 0.14478987475560223 -0.23931571114932976
Ni 4.044995919850541 6.747809231821501 10.372589878705385 -0.5179646726806435 0.6187565445887407 0.5758504892538341
Ni 8.10564696103319 7.187282473327528 0.42234751495409634 0.24853954374044293 1.111521835185621 0.1241382599435217
Ni 7.566159910324057 3.8883543189928975 8.305326587423647 0.6270972032439524 -0.14749261839874597 0.03181045964237747
Ni 2.9252299231829633 8.301444442728416 12.337459456946403 1.3057187996194415 0.15957628903615745 0.04468114495745853
Ni 0.10351994174624933 4.965864142318901 10.259203233468298 -0.7623485423815 -0.5441930102495531 0.21309945776527817
Ni 8.574695004501493 2.303634834263164 5.837009277050504 0.6337795003601343 0.569835650518322 -0.45671559606217477
Ni 3.5832873443508717 2.892211356077772 11.419451096134786 0.08849762792177662 -0.831046104858214 0.27044791377776006
Ni 1.257254478528259 3.4768740975593517 12.543569252687705 -1.261939340540646 -0.6610285658840744 0.5487587752433646
Ni 3.0330351380374996 8.488230287028658 7.997908632955708 0.9890972154990966 -0.22903618360019265 -0.12413003241340557
Ni 5.471211820469505 7.834818785239909 3.5262510010310852 0.6291553713245617 0.6258700157050705 0.9565362508439398
Ni 3.1454410785029148 8.39820430061538 3.654030957589909 -0.13516520718164465 0.16324782435047372 -0.29190865475469724
Ni 3.2112974376401793 4.28360997761401 9.282641826473425 0.49613189307626815 0.7795247970504704 -0.5056413752286002
Ni 7.0735026423064085 6.295799238994667 11.640086169001203 1.0060040185567642 -1.8599463112868613 -0.7376685231363166
Ni 0.7097220331899626 0.1301047239991345 0.19725452878456534 -0.5049158099164852 -0.5205501740196325 0.09031205542269607
Ni 4.614780872814425 0.42250207764161307 1.6981576508626584 0.14074630081384792 -0.4686815101747993 -0.17818130573185445
Ni 5.954315125872811 5.6548883335121 0.5944444806880512 -0.04615490128950761 1.4646155460900712 0.6167711387275959
Ni 7.646198073947509 8.723111339532219 11.353066873784014 1.3761402867657977 -0.38162909933998146 0.4207864862657334
Ni 0.3595363119235223 4.652617095618239 5.826650865360784 -0.44448537254457 0.32053248913897703 0.08852333895338949
Ni 7.856782956623872 8.924630352291663 2.4431687860761877 0.5064456162974504 -0.29414011518837724 0.19887097287072203
P 8.584511090971855 1.6961402010466502 3.502094931885554 -0.389808035606348 0.4267252203476715 0.4698451914655973
P 1.8320197847565722 3.2900972920127662 1.4985557577536426 -0.9440265484127032 -0.4944118250613678 -0.4468875542281594
P 4.716051068775707 1.0774013582821318 8.232051219285578 1.1195660456463363 -0.16404820876458198 -1.0095063752830677
P 8.470776453719015 1.5651053892963183 12.157054068851897 0.10501593729177397 -0.10788914507451094 1.684966028990808
P 6.158907314875279 7.789299621828536 1.4797443036448759 0.39867422774772626 -0.005545869518893675 -0.8966678566230817
P 1.9417140991252022 3.015924777366783 6.343447028892017 0.31923665314568894 -0.16370676626476324 -2.9715380804784695
P 7.11677115605745 4.093859422114616 5.942551187989591 -0.45951578451513125 -0.3523455198845158 0.9468084820332145
P 2.396706880658499 8.426432328282916 10.129769184990435 0.03812226079301822 0.04017297267445985 0.058264025848215786
