# total energy = -381170.43017438 ev
CRYSTAL
PRIMVEC
9.19926194512798 0.00000000000000 0.00000000000000
0.00000000000000 9.19926194512798 0.00000000000000
0.00000000000000 0.00000000000000 13.46404973233862
PRIMCOORD
 96 1
Ni 0.975820926440879 4.312190906075529 12.401615388778122 -0.44766351316223546 -0.826229657306177 1.029179171121647
Ni -0.00800059824772458 1.910438357939182 13.445792352173747 0.680240620036151 -1.2729634595652914 -1.72005695915667
Ni 7.525051592765543 4.883483480963641 2.5960575223444518 1.0005252548303802 1.4992668176153534 -2.261398616000357
Ni 8.933191841561046 0.9031909123148182 8.9418253490412 1.6529141427615854 1.401088472070703 1.153993888306903
Ni 9.172308261307055 1.9700587756044723 3.5804944776674956 1.2839945205684724 0.01545361555090887 1.0512788312341637
Ni 4.213979583903852 2.220278704704287 10.653752830140494 1.2689003452395113 -0.0264723352589157 -1.571476507010384
Ni 2.366648163965579 0.99365829565134 9.402336730025208 0.5183570230230556 0.23740795260365566 1.9846260455561497
Ni 6.71884666091078 7.33295260160884 1.8738998088071395 -0.6702405714006457 -1.0525821234266195 0.13014898491397583
Ni 6.976085626992328 0.9638434871876453 0.3284476942132736 1.0604563839683736 -0.3077314807195668 0.6484522718809607
Ni 7.240233238910419 3.6045192705659175 4.341267933718863 -0.5116379591316672 -0.5409467353981136 2.6070896066828326
Ni 3.168391453702201 1.345419679802763 0.818094978118053 -1.2104519712946313 -1.2740911454118318 -0.08433861144808057
Ni 4.6034855404485295 3.2794725435507397 12.735429012573892 -1.3046070546125015 0.4649804071741283 -0.15894585454101015
Ni 1.3413996022653871 8.954736513397508 12.960224941009988 0.5038835119972289 0.9970123565811152 -0.20825935606415746
Ni 6.057226531470054 9.147488652163258 8.615174270715912 -0.26624133189558025 0.13701614434745435 1.3461373126458043
Ni 6.663669486839431 2.0212526691868424 9.526084283858216 -0.3169368013679187 0.704665842958051 -0.1513482446994103
Ni 3.556204746020615 7.537801770035114 12.953076194432654 1.1892555397226743 -0.05493753257814409 -0.2347383761912925
Ni 1.1112800608524513 5.473754133562524 7.9393192031027935 -1.173407002726192 -0.5101217795974569 -0.8428248426606968
Ni 1.3677278903934633 6.25239807616791 3.9895056296412306 -0.3005115659323599 2.496351936415933 1.2009872263373056
Ni 3.1466076010511586 6.2418281240158615 7.5863186783466 0.25587850060401734 -0.14740160134683647 1.3178256101853045
Ni 6.309074729961437 8.628171908135952 6.369558958337848 0.4389071071258441 -0.14253064640778035 -0.7807018480777072
Ni 0.8043540403203915 4.4451754389824005 10.081193516861314 -0.8121657230139433 1.175540504129427 -1.4349750975158189
Ni 5.775223151817304 4.165131502156792 11.01936922293961 0.12588635298287998 -0.9062009929244973 -0.7955566537023525
Ni 2.3222893221229572 6.621527667162731 10.814944140496111 -0.41687660968836593 1.1315273317732706 -0.015076948937780485
Ni 6.320739394303296 7.850751467389768 12.74848920497621 -0.4748195047517372 0.3822083688822192 0.13440441775622014
P 9.169134515882812 6.610810526817096 9.425091104827722 0.9411613110497663 -0.08428667516422259 1.4623082381131334
Ni 5.8026829491835885 5.049953327911813 0.3226070827064548 0.7635536184331946 1.5645496979835636 0.11467454342746057
P 5.052906291045674 5.927121367600249 11.951889222679283 -1.8904488507510924 0.5826248318631901 1.3582844895312993
Ni 5.114835723497878 8.927285915293321 1.0673158673538878 -0.8107325901118425 -0.4372335760781631 1.560905416362757
P 2.054921968470126 3.281560776047271 0.5430250823095133 0.15723375694590985 -0.26015913025724224 0.2930471392345147
P 1.1786002608948205 8.811761581850842 1.7954172241335309 -1.0009978235914243 0.010388799433491785 -0.8892175709926234
P 2.4035832012940994 5.376646722842757 5.540388988578498 0.568756301411214 -0.20822953126748656 1.492663453366223
Ni 7.632903741617241 7.495043599797763 4.149458719318287 0.48465294590239105 1.2924477935421483 0.5752691628290673
Ni 6.562587994892786 4.718669501193337 6.6032413739618265 0.5968242632920238 3.19871021428673 -0.8483221183298423
Ni 8.348183166882938 8.118385599643476 8.176933383347993 -1.0730473332595067 -0.9931281910353605 -0.10299607864826776
Ni 8.734745359555856 5.49648551020979 0.25223824720439153 -0.7351544984652113 0.7206120818746622 1.3768342275090288
Ni 7.071491174223731 2.5115457412909894 2.4275141617191087 1.2130374726336206 -1.7032200901049894 -0.5721581280039114
Ni 7.940950232272991 3.5734441631946243 8.136217449296678 1.2738003536442901 -1.4098631329395397 -0.4142139752545383
Ni 0.3145457693288751 4.309651909736134 3.7852562531038276 -0.5496085248381695 -1.2081513481859127 0.617822977030878
Ni 7.2775270474608105 5.809398410516047 11.799745386598287 2.6864063394362896 -1.7328391985230025 1.7803346730008047
Ni 3.171031641924688 8.386921259582914 2.4818284450055472 -0.3420415668553464 0.33542380442851266 0.7023096840210485
Ni 5.644786814511926 6.9483866488114625 8.119172136552963 0.20362725660878475 -1.9393697448215117 -0.4272625809083803
Ni 9.139043729556139 6.7210176867662055 2.328889792679175 -0.7434182811359002 0.6055410743397314 -0.29025337853946137
Ni 9.052809846637695 3.249050583788494 5.910179086592047 -0.8290329310829271 -0.24161222049299036 -0.1280620204779601
Ni 3.3809680022918522 5.25513366977366 0.419986791584359 0.026015450227155196 -0.4074555734847822 -0.19761421764548548
Ni 5.471261133533625 4.1455922694579685 8.637565274665503 -1.1259783769305836 -0.6778551505231101 -0.36674215492582
Ni 3.839210845242185 4.033379670371221 6.7414906445681035 -1.0037841280873099 -0.3476434864231562 2.094299536224593
Ni 0.4748695892685315 8.789269386018155 3.9405508364538195 0.5504886134502777 0.11957583738381988 -1.0898345800201745
Ni 3.949188023638813 8.280743376433279 7.04622172116328 0.2805106973304008 1.5600345837220293 -0.5854823559166432
Ni 6.282856832978552 5.794090838382882 4.341994675424704 -0.8859211596295387 -0.37874843535807673 -0.02397682253057161
Ni 4.470510206803757 6.249334721888856 5.779604760355181 0.9006664362595134 0.8835274625863816 -0.4014260794612506
Ni 0.39901983340773045 6.688443099672733 11.88747690938649 -1.4450049709479953 0.17177334532298158 0.34946819833672077
Ni 4.141342210368111 5.862137780131093 9.891418259310884 1.3361393208928278 -1.919025891057837 -0.903150893244264
Ni 5.173573012001639 2.2217321881159693 3.6218828777782672 -0.2676371838018423 -2.164828238372775 0.5955058015909163
Ni 2.889699808405183 4.236159004825162 11.139293563444165 1.2699961494068515 -0.2760788868112923 -0.4546633415188363
Ni 6.100619450792253 7.069982495239454 10.54768257835742 -0.8050674214062652 3.3624722592694614 -2.758760267718668
Ni 1.6084265832205458 6.983113863236161 0.6639576619401475 -0.567018749894817 -1.139164022382922 0.4682868458395419
P 7.423850510411606 6.7354513289999405 6.804556185889566 -0.2324161558160191 -0.113917610656778 -1.1160048106576392
Ni 3.609210894236539 5.9711306374831 3.5271635954994682 0.4935607899149822 -0.4544041743201787 0.47016555091949347
P 3.068395474683268 8.953991373167467 11.371844469829934 -0.8374111278442933 0.573373231357935 -0.19091083748338092
Ni 7.292429852061608 5.33496486627102 9.416662740892384 1.0573592331002886 1.0491941807909932 0.00770842438785124
P 6.068753206880424 0.3619026506896447 2.9936505502005875 0.20595461919038077 -0.7965748105542216 0.3401600335619174
P 8.077099311342009 3.783187339057704 10.929051787575306 0.2671399324504496 0.00986095195447979 -0.0698841265856474
P 3.0089682415220618 3.7311563126243015 8.92533199202344 0.42681957983369073 0.14509943557622107 0.3663660025333239
Ni 0.8059041159841164 1.0769484146980208 5.893214727354805 0.5954487231007358 -0.2482135278595919 0.4880953959250368
Ni 4.510315413907246 1.838205751935809 8.265445923488423 -1.406504500879952 -0.18363307287504504 -0.2931042177246952
Ni 7.543017751645393 0.8815045718420277 4.809681480846136 -0.6428346685838671 0.05677278601466997 0.3682115403824949
Ni 0.6881425219990964 8.685253329461847 10.668603198947327 4.227719692599732 -1.3175073076139372 -2.3233609166357665
Ni 5.210186075156686 2.300983831101076 1.1013752153501803 0.17483372941586017 -0.3248090050271438 1.0130552689765908
Ni 0.16142313176051776 7.802344950223473 6.022214139920279 -0.9405987536780769 0.05388903670897171 0.5330380220739981
Ni 8.176681323566473 0.07894806733583112 11.452426326114596 -3.578275746229463 0.6843371587030279 2.293546147267179
Ni 3.849606011414346 8.071450964413064 9.384281338302994 0.08626822437062562 1.2777241141787286 0.9169569458894208
Ni 2.3655718502999656 3.219244974586898 4.945964869141801 -1.1836533630445485 0.43656226104275137 0.25281554540797746
Ni 4.037408947170696 1.48540485116717 5.719783798776126 -0.691021769812055 0.4843804089672948 1.2196701474587899
Ni 2.4998994754733292 1.9521846093456143 12.086192929771189 -0.7407787866305242 -0.479943970462496 0.8113028607930156
Ni 4.554987030661242 8.741230839335831 4.660486928194161 0.9615717563853182 -0.7448038486295173 -1.409005670035251
Ni 8.382165241077598 8.178797153849303 0.326967532941503 1.2975200658587331 -0.8693794532207737 -1.0646763355869922
Ni 3.1025707333820107 2.8521944168265088 2.5986425149943435 -0.1665504063611454 0.3460622579789653 0.432206555177217
Ni 1.2672719482695671 2.8893226386591135 7.727731575188812 0.8828674604048795 -0.4797997315751479 0.9132864390163691
Ni 8.143343197718764 9.315816750055479 2.293843363859632 -0.18159907316415178 0.5782069053011525 0.37200905975171417
Ni 0.8461628467090987 2.1953395051531985 10.541449158358965 -1.9277434734364929 0.39713465117474833 0.8844417468705349
Ni 7.4784941272811984 3.4648284755886865 0.4162693697700489 -1.039404448394081 0.044147641051491715 -1.6650263526440874
Ni 0.09684523174993735 3.2581302554804616 1.723330886397536 0.9198468658427061 0.8883634505224443 0.1423856361894838
Ni 8.841015235326482 5.557044252609205 5.570683078597565 -0.7695394037029843 0.15324597594275544 0.6394950626876729
Ni 1.733186975810681 4.901017274524827 2.199716514060025 0.9532807200211195 0.14282735171259273 -1.7180345294100023
Ni 2.237398531471005 8.250569796747714 5.254911047630857 1.8816374231070496 0.09689587928780087 0.3848509487113888
Ni 1.5561563759725625 8.092259695281586 8.501645257222759 0.039043487055706955 -0.6945236123177265 -0.9244236865801111
Ni 5.316676733217695 4.265642639853284 2.4395780740360755 -0.9819382358568121 0.8252456961263529 0.4033695763408666
Ni 4.988971419455832 0.876119323809122 12.539823262704953 -2.2350646060915187 0.03552596082075172 0.41427336773756396
P 2.4853554420944026 1.1774595523945124 4.213561017478336 -0.4924683281817518 -0.8927309834625207 -0.8469092971427157
Ni 5.87406002381173 2.7442686738780155 6.575317013859529 1.1478697776870361 -3.1079320178608922 -0.3553938197925363
P 5.942686519072194 0.2233314059098935 10.897304214144556 1.598589304066776 -0.746285061160734 -2.224726971610936
Ni 4.6486907144042835 4.003463670024434 4.719458797881454 0.39790289679934054 1.0165841080654554 -0.2915769824468914
P 4.482892413589358 6.7314496499867635 1.8347330304933391 1.0987395958192885 -0.075891766232308 -1.7823563314165238
P 2.510929390730339 0.6871103647915597 7.436140724576215 -0.057543859852739604 0.0723169043968561 -2.6462346523134106
P 7.567552183664113 1.3317679748474642 7.539437398836362 -1.8090477246647811 0.5824412550974744 -2.3229469690267996
Ni 7.052467100202467 2.086236256656 11.785554604883972 -0.05119452059594409 1.121058571031463 0.8448632132469642
