# total energy = -381177.72415929404 ev
CRYSTAL
PRIMVEC
9.13376857361610 0.00000000000000 0.00000000000000

0.00000000000000 9.13376857361610 0.00000000000000

0.00000000000000 0.00000000000000 13.36819356297324

PRIMCOORD
 96 1
Ni 4.848076437521886 6.355531855339024 7.708795560526164 -0.10182211294482464 1.030771198199115 0.916185357830719
Ni 0.16349628258267793 1.956845960903267 6.162389187017256 -0.8480295267900879 0.04454847603433618 -0.47052601958270573
Ni 1.66666613622803 1.2926200493504632 3.012762573287293 0.18740025322696113 -0.3638797457763604 -0.113371765455637
Ni 1.0826438457162477 -0.09802086321898774 6.75866442794773 -0.22059987990738134 -0.46379692838898834 0.6400527349633558
Ni 7.831037351005895 8.296877811128224 6.173431913112074 2.2399072788958003 -0.6487145244034118 -0.26383580777788107
Ni 3.0965027894845707 0.6719558198191765 7.5460244991609615 1.6128054476661577 0.7328096523821186 0.7675198021697943
Ni 2.1132526123901654 6.428044843318146 12.304793688595751 0.25503260766395436 -0.6923561723527625 0.9077431406006367
Ni 9.140801483797196 4.857813034723769 12.402101204496292 -0.6990726651409896 1.165206983413903 0.07723825295787343
Ni 9.053875409153374 1.6895188249701591 11.19222579057856 -2.701979511284198 -0.8383668068893433 0.8662537631075984
Ni 4.627011838950443 3.6000839809747975 10.217483718825198 -0.035477109860687285 -0.337475801861535 0.7127691887914758
Ni 5.77128122061519 7.061334681022192 10.254072681987507 0.2573067484101117 -0.8860036920410161 -0.6220167033972513
Ni 3.7869974191917968 0.47005295414625925 12.795673461634818 0.9839084722093057 0.3943311202876822 1.4133099538375595
Ni 2.0479279002064295 3.1642844853899827 6.755041975367742 0.5730019640614454 -0.30015341126199274 0.3441817531268008
Ni 7.964180294168971 4.703698959125869 1.0532742131621644 -1.0527088788124708 0.28381482200296926 -1.326937856899218
Ni 5.2367822228131695 4.664880443077088 6.009524610947703 0.479738025099277 -0.6805062149927119 0.7852059065956478
Ni 6.799085920365113 3.9062935693360608 11.658562214329466 -0.05918370944900775 0.7860176038636657 0.026007994027987463
Ni 9.158886345391686 3.610231597758373 7.988217632683224 -0.5198629181446208 -0.25814184271689733 -0.20949374269189083
Ni 0.13709512478526611 8.281715755447996 9.207891753428516 -0.8010282183398849 0.19251469163539103 -2.2295501040311927
Ni 6.920501104797217 8.293032494597275 4.034587394812008 1.9044791035919135 0.8327350625248626 -2.3705347461080915
Ni 7.85559805445417 0.9531818112514442 8.119278990009237 -0.4451641437791495 0.12862792028375913 -1.6450846194148376
Ni 4.9699026415356835 4.428224501706758 3.3693996974380425 0.43219138566856535 1.1853227803271715 -1.0401768077837312
Ni 2.2957909755042545 5.6637402305073445 3.925556687064738 -0.6868514404844493 -1.0930327752424982 -1.250158288745318
Ni 5.95148133899787 6.887016709541963 5.4806785024592335 -0.27850755085744294 -0.23091283179761524 0.5759016542067437
Ni 0.3155488666341753 3.8063153395313662 10.41921030276641 1.7474281520807715 0.8597079915692806 -0.0840017969339521
P 0.44791178596888304 6.501991832948953 7.62073963872111 -1.6100916482794208 -0.5642453009147379 -0.682945934782456
Ni 6.623206074474449 8.127957896820897 1.2940640981474778 -0.4446604646698536 -0.09772737405016073 -0.07433804859194294
P 0.30584058411458737 1.7992153844397718 9.144178238005015 0.37839413734245153 -0.548915612536203 -0.4547744131754039
Ni 3.606587224134029 7.926658773244643 6.125948190904357 -0.3959167196072471 -0.23518780502388528 -0.3874634466335714
P 4.171483403444365 6.021007584683357 4.705469996834542 0.5566358639985961 0.775999043285399 0.6389265917787126
P 0.7095266630933068 1.267693995162905 -0.01769210954976185 -0.33203071958656366 -0.022364483738129225 0.3730976648302026
P 8.072762533883772 7.387757299034267 10.731023458091423 -0.8611938320861878 2.50468025377597 1.832963354940114
Ni 1.7889033598235196 8.730877954322073 0.9327139494599824 -0.04874451639355476 -0.3911378101613651 -0.12044101359759259
Ni 0.8286693659270721 8.381008952616535 11.39183973386987 0.47728544979372634 0.8714193664689378 1.5898951187268877
Ni 3.906649786306861 4.123494583839591 1.0816656191118184 -1.4382576249218326 0.6057390492831504 1.5894860562139272
Ni 7.946561254767065 2.547700310239635 13.228134564839438 1.083660847109295 -0.8192794512405891 0.3277439192857517
Ni 7.456571110778153 2.986011592157018 9.555410636503618 -1.8242917953080453 -0.5998825905023734 0.15405793032108953
Ni 2.8191741770636005 1.1868784116335849 5.37815834488598 -1.0026998938841956 0.9299533581490887 -1.0474833687474734
Ni 2.8013176596811618 5.577946743155299 6.3760399057118065 -0.3310593568122298 0.16609866353570749 0.9277476087470216
Ni 6.150433084074232 1.6327798551595654 11.795050856887523 -0.6659511999966724 0.36226997808707934 0.577718138590192
Ni 4.860863713396779 2.035880459578584 6.2917799780879 -0.9816106773140642 0.03656622915980799 0.25853573572120636
Ni 5.667421139205618 8.122514170805585 12.264715625873293 -0.6693306579918668 1.443884998410939 0.46231365897524246
Ni 2.2477930221309976 7.292546896377211 8.16026586269566 1.642723061161197 -0.5606488418127311 -0.2605216558029836
Ni 3.6036370169143215 5.983175515630639 10.032695708533977 -0.8101024127270113 -1.8036882601250805 -1.2762069062032537
Ni 2.2501221330939245 -0.042050956714583684 9.501857525139568 0.05526354845899515 1.2216216147582055 1.6241501832550158
Ni 4.172378512755607 1.1037976535207126 10.498630246471672 0.4915144489089148 0.12153527510303584 0.10179640191321179
Ni 7.675206126933367 5.528989744091424 10.087532114369758 -0.5196675143043631 -2.258755264840239 -0.9593472379301736
Ni 1.823154991631267 4.8715776238262425 8.572019799374589 0.7695612580798552 0.7603798486909035 0.12995435240466652
Ni 7.334105542970611 4.503249276018448 5.136675206872878 0.8020893126145477 0.599458101370445 -1.9923270137448332
Ni 7.754204090534756 9.113281439360732 12.54141035476161 0.9439219045140388 -0.11972419003622606 0.2673250518780622
Ni 5.767993063961646 8.955952277257143 6.967970212975361 -2.112020350543124 0.7422276032619088 -0.17776838656415192
Ni 8.674193787122372 0.3313073573962838 2.067952774226511 0.267248690114172 -0.0039409869256190186 -0.4446630357730148
Ni 8.97990101821712 5.291986719518776 2.91319627644114 1.350549582780887 -2.0533269504669733 1.474938268172318
Ni 1.7985668868775453 3.7419040041958365 13.33632405250951 -0.6166220147442413 0.4690558627950825 -0.8300534019276413
Ni 2.302659569402768 6.0354206713480565 1.2772826253153777 -0.8170937564431798 -0.5089303303925171 1.0168777280464747
Ni 0.8475159838129672 6.251836181762128 10.425105236944736 0.38908581272834286 -0.7792612589764385 -1.1987915042375676
Ni 7.294930809951031 5.710103239322312 7.284194978477211 0.7822180276119174 -1.4849722553695521 0.13465998541045196
P 5.407419285595127 5.701152146209886 0.9979957329318527 -0.11175428445687205 1.5666379479711598 -0.11599171957698733
Ni 4.077716136207475 0.20274591250381194 2.0917882564573103 0.2042702895094224 -0.3373485322550513 -1.0635717896689036
P 5.888869356053307 1.0158759981123453 0.5761033132378313 -0.29989887204902543 -0.515400511497893 -1.298037886035416
Ni 2.077219895728415 1.4249318195816714 11.518650235344332 0.9661573188734716 0.5183315691017589 0.7249934987718094
P 4.481255161513634 8.421754693815032 9.139794029133624 -0.10662904741516474 0.5456387415571441 -0.9076860621104561
P 7.159632297426187 1.1573215368256191 5.818546645756185 -0.2900232648065263 1.0857969196156914 -0.15076923226748873
P 7.089037400828299 3.5757607555070563 2.8361027035682618 0.49481368848547685 0.5746225303840039 -0.5632613397349138
Ni 3.3972960531359684 3.7910162773239056 5.0374824811576415 -0.33502811165199076 -1.9136779964823625 -1.1969919891349836
Ni 4.110625104048359 3.765012438455464 7.9602107583866655 -0.29624533445683815 0.3049775721235135 -0.7574806727662374
Ni 3.5834331210319914 7.8923797401314495 11.161238567626302 -0.3942719849149726 1.0453730072726901 0.5374040123521777
Ni 0.2342373194762791 2.9161108619637672 1.932184786001689 -0.03072545410831482 -0.25909726465163113 -0.7076141269530974
Ni 2.260041405665448 2.530510557956387 9.222837338795719 1.1603604539548789 -0.006715978567594885 0.11904953256670463
Ni 8.208581671212093 2.044895489070383 3.9752864029421944 0.008384367408953302 -0.5829621605979508 -0.17498773849522123
Ni 4.264182019768853 7.098481717438755 2.8141917063566337 0.7144375776328341 -0.7647910903847216 0.2339811863102938
Ni 5.949143094266462 2.5696487559020396 4.448212840652912 0.7869732829087156 0.21360133710236118 0.9790688847288169
Ni 4.933449771523757 0.012403657598645635 4.494239726787739 -0.8974818678839447 1.0464271595688173 0.11576057740278774
Ni 2.746478513714837 1.9618878011053675 1.0184371067947164 -0.10024319849347899 -0.5376706357500031 0.337183981652729
Ni 0.33319804747207143 4.850058465282495 5.97252097469631 0.648805027234689 0.2992213863660266 0.06413256881385085
Ni 1.1292900013541587 7.105889203677711 5.305314714487807 -0.5639969323493577 -0.2326313571506187 1.5086240904605375
Ni 6.357175933665795 1.1077069064310368 2.6390288612918127 0.0426941964344168 0.053804961635597656 -0.35873548257125965
Ni 4.198720301057886 2.236805098647072 3.128959635785592 -1.9933413139419602 -0.31348149582946655 -0.25943716448955323
Ni 6.761582666977751 6.10586029388175 2.6818735424874878 -0.654769215237924 0.19374779271154374 0.5501507704948847
Ni 6.858957772765056 6.272524167374009 12.700345233364343 1.6074701514961736 -0.4814568075625966 0.26516918187732397
Ni 7.106921319516184 7.716983983970336 8.190184434735515 0.30423452330990186 -0.6095908189290727 2.4968396746856287
Ni 2.6413853735601855 8.536283016811657 3.9225087485222723 0.31418572098534275 -0.5634469733831586 -0.3344015338115854
Ni 0.29759096442158534 -0.026282418807144926 4.48843795704793 -0.14336625493519825 0.7656943189252813 -0.5041578487045382
Ni 1.0320701696310481 3.2412273510829066 4.155903934544505 1.5199515996582147 1.075850607036257 0.8951377931318003
Ni 6.705492194729383 0.2076818009915204 9.99152159359367 -0.06911022453410033 -0.3419281812059337 0.8410212137930547
Ni 0.9160439086033638 7.254038928456821 2.905991559862486 -0.5706995411805139 2.316797661595952 -0.9245658685849303
Ni 5.9389589424089575 3.624955232551464 0.49749353479693015 1.0052126330037203 -1.428114880060876 0.02403467235170054
Ni 3.863620602987848 7.384907563267863 0.44561555657249163 1.3996939057160216 0.276540142718427 -1.043789464835654
Ni 4.734406688762576 5.505433755176177 12.097786873095057 -0.6026521828277105 -0.26938604817214895 0.5611502069291819
P 9.350878158884715 6.618228170651725 0.8567383498493091 -0.1920755472154434 -0.23464093138147976 -0.4555637418459186
Ni 6.990301363537165 3.1959603944857875 7.104058796473905 -0.8103600372637721 -0.5679129795743123 -0.08605713680108405
P 8.27068216312166 6.617506602941641 4.393724431396299 -0.14911935536889157 0.3174240254169824 1.0061706260416154
Ni 4.013505743778552 3.0587255230427455 12.419680055316874 -0.22535307832165058 -1.046674499692933 -0.8319925279318832
P 5.840725262384337 4.803476246023958 8.916063283542266 0.948015357857122 0.11337433655879829 -0.19960965080895945
P 2.498907719008438 4.408111943509249 11.230098048212596 -0.13058247290696864 0.013866730679763213 -0.18248224710005345
P 2.1322599846013444 4.092732051591992 2.3330174757066104 -0.5592694449667014 -1.180726933426373 0.37280815861424177
Ni 5.251999081104291 1.6275096707454133 8.527650692219256 0.6696175931046662 0.2579582659511816 0.5027609683570115
