# total energy = -381168.4560525634 ev
CRYSTAL
PRIMVEC
9.28923323410194 0.00000000000000 0.00000000000000

0.00000000000000 9.28923323410194 0.00000000000000

0.00000000000000 0.00000000000000 13.59573180819238

PRIMCOORD
 96 1
Ni 8.011480713373402 6.068358883856203 3.0329226086575516 0.1599943504101825 -0.6268143818962107 0.04844164044115528
Ni 0.9912540894338855 5.309010504690493 12.065083844831053 -0.5569379686200473 -0.40358220657230487 -0.01790696218740787
Ni 3.2734050680661473 8.682581375833818 8.992910509629652 2.339540611719422 2.2328889385964383 2.155067302331269
Ni 4.922058200787785 3.5521563820548274 7.542586224354826 -0.8692938354855028 1.7543202512149143 0.1650691938299286
Ni 5.294026971317268 4.670282820410913 10.092859776191116 0.032798020366627385 -0.6221313745982446 -0.10264358040485548
Ni 4.555152062427186 7.346222978682208 1.9615377346085918 1.1881535649077473 -0.003121576348117205 -0.336634279796846
Ni 2.189416562225004 5.1279354792445675 4.335746873461149 0.7532643206920447 -0.049432800709831 -1.4583353695083143
Ni 6.547739059466035 8.174200213744626 2.951429093511881 0.00941280867346766 0.422983236806736 0.2576057677077693
Ni 7.0482150839851 6.953297697743554 0.8361629074793333 -0.6948082334376808 0.7175933496529965 -0.05651541858822525
Ni 4.562982886130613 6.8936979766508 10.2439900290506 0.01237677639779804 0.1970040948653123 1.0101033854371184
Ni 3.989159075179443 3.0605237076729663 2.0696374718792416 0.03314717617593001 -0.2637486473807135 -0.802056145383767
Ni 6.423216886578197 1.32449604617975 12.235492972558976 -0.24676059746314924 -0.357482584000765 -0.26742815311482976
Ni 8.459063843269314 2.290548445569271 8.981612015121375 1.580794184866884 0.7574467342045084 0.9388306060340605
Ni 8.488984463849079 7.777206248604189 8.10399404602723 0.2854605851365084 -0.8896117211072485 -1.1427221720478256
Ni 6.305029970826464 6.146314130023659 11.885918685759295 -0.2687831244808274 -0.5454489941438412 0.35725735536383635
Ni 8.870391095449358 0.5978727071383637 10.93128089629477 0.47077078860366023 2.1751342482844733 -0.15779939964139278
Ni 4.1605547194877985 1.8413675675393253 9.190524086109484 -0.7301272204539491 -1.0685677002215983 -0.5388458870050268
Ni 4.508352904873368 2.7872623305866897 11.24653889729943 0.7694972376111393 -0.8206130824503479 1.6330819385270066
Ni 0.7833025251728623 7.528329109028586 12.730431685085618 -0.7652510607402756 0.703802209406175 0.7363804004525123
Ni 2.328206997519088 3.2416080223522292 12.189375644732122 0.41562833910356156 -0.6713237771624954 0.9278280842759697
Ni 5.612721988656765 1.3568690243605868 7.4875642374507425 -0.753830991828792 -2.1532153367241946 -0.43696695268033775
Ni 4.278639453672819 3.8241822911072303 4.478569764946998 1.6587538893718143 -1.918974468994611 -0.9596475427794118
Ni 5.766635295824135 1.9707665879292982 3.2212915401200033 0.16473854996338724 -0.28279460826857106 0.8598997958651127
Ni 0.8959493421621693 1.0561858304623069 8.22314704204605 1.4060676704528494 -1.2488956199828105 -0.3530970533385596
P 6.8553055752673275 4.556879859827942 8.629129269363753 -0.013023151732545313 -1.7320750666634683 -1.2286188720116453
Ni 4.093941627225308 1.4453211041993035 4.9559295323059445 -2.527013627165848 1.3267558227953988 -0.28113033319227065
P 3.1181634005315293 1.0525630294607211 7.332939375009728 -0.14687015432339864 0.418858158894769 0.40717969411557614
Ni 1.673334625699108 0.39082219851106825 12.418396119125703 -0.673230507266905 0.7131702808846363 -1.0898620908240004
P 0.801648761014226 4.086519529788725 2.41987686778588 -0.38492293959990476 -0.022197619142961773 0.3781555389690842
P 4.699163046856888 3.4592733379141714 13.326332287986451 -0.18031634979698621 -1.431593839748412 -0.15327682918069085
P 0.011996115931917531 2.6087604227752235 6.763060701456951 0.7270750638911865 0.3348044256769589 -1.3666310617237818
Ni 1.9813470247005962 2.6496051817597683 3.6728328123409826 0.49493812987848307 -0.16368645454978908 0.9366539100977158
Ni 7.858078314039588 0.8358582206258666 6.925598132854763 1.6137654975865818 -2.481710018133042 -1.0668075229973821
Ni 2.04926989886366 1.92836123774407 1.4457019627661367 -0.6528429447494886 -1.1967233088546292 -0.4329128372156221
Ni 7.224078849528745 2.9167914002433863 7.181374386030053 -0.46784127366169104 3.5993369377751363 -1.0208390266870677
Ni 3.906847178576747 5.284756316446543 2.7801774323202553 -1.2553665724191347 1.4488063469719563 -0.08047347206571946
Ni 0.02212602488635153 7.155134159698567 10.297162529597207 1.6279726423248992 -0.29654589641639256 -0.16186045708464383
Ni 2.7107840725198806 3.508236886835603 6.158404067212284 -0.92096632415913 -0.8806735380773542 0.38761874126451307
Ni 2.1983620939289197 6.73535370518149 5.8080968599022835 -0.8776848877626755 1.3907989172192368 1.7594187487837443
Ni 1.7505281547328968 7.959888311417486 7.860004901033765 -2.9739883417911748 -1.4661592364281073 -2.0287708583941644
Ni 4.769724063287773 0.04780332367759083 11.098685885961379 -0.30801558761888886 -0.18996904239540185 0.12312395974639442
Ni 6.03447176064137 0.45300432647161953 5.2247172146169305 1.8964189522915984 -2.569532217254349 -1.435579049648405
Ni 1.1682232737446807 3.524158632775906 8.296251450564716 0.7269845610599093 0.4215878991211062 0.7167865374809849
Ni 2.2018920025971314 5.039641316372586 1.055177948645199 1.5125992730582014 -1.0027112067381054 -0.6460140947531133
Ni 8.306506764169205 1.9997118390086344 4.555318339703925 -0.1648169686098065 -0.6405415016743162 1.044047089372415
Ni 5.669841484448433 8.498273697186477 8.867802186118224 -0.012247449908785358 0.15470456276615294 -0.214468827308979
Ni 0.13956980197109162 5.912262606854545 0.9994044627641196 -0.12450387081305654 0.6115697970323145 0.20891653003218216
Ni 1.231659448205781 0.9009358026176854 5.866802956747979 0.043136426178157966 0.24953404644322832 -0.1644798969853619
Ni 5.875542267471806 6.233149883261668 4.035444538129703 -0.821670834290901 0.03803072952047644 1.1186180799107703
Ni 0.6921064058062777 7.361271536688796 4.00186303069167 2.3770329522379257 -1.4384615134025225 -0.9711776549061986
Ni 2.1084051582895444 7.172412133706129 2.008661086405885 -0.8309394040770205 0.62518533093322 1.8662025766092183
Ni 6.448864459822756 5.587956892579258 6.652296812065135 0.1095001983153727 -0.7521829147024078 0.35804591270340275
Ni 4.223795820048813 6.840015497193969 7.898888702860785 -0.37990491756002315 -1.1262146613111055 -1.006481215303499
Ni 3.396552434420051 5.270330137073562 11.958574424307765 1.080112210526088 0.6044522121509268 -0.23811526308332542
Ni 5.585420931878148 9.051679773262045 0.2575997296794216 -0.36793668945455343 -0.37764337521935604 0.3916823698109254
Ni 7.718628343178549 0.7715572185410545 2.2386327782932134 -1.3910894518764623 0.40813820137410356 -0.7215307370341897
P 1.2787744396930705 8.976929312595992 9.979988159755043 0.4697963405055329 -1.537535888398881 0.22704255020893158
Ni 7.24113388193621 4.272638608936859 4.671615825394831 -1.6746962716336835 -0.08204261632505226 -0.018068170355620496
P 1.1925146189219797 8.919930576837709 0.6962076023247395 0.2946705337705506 0.35155284877989135 2.3524362367351674
Ni 7.861515330374425 3.046654882300229 2.4767204733474277 1.520112550716111 1.693807795652154 -0.4030911258684994
P 9.209624607697846 7.012395800236088 5.985507282796605 0.359899935193006 -1.4202082236192894 2.230830770515829
P 8.376380377333122 2.1433977002715277 13.204582951249828 -2.777376854378591 -1.4490166632105497 -1.3388225241519458
P 6.140266839121011 2.44503768520356 5.346263117143466 -0.411430241861814 2.5731320187904654 -0.00668409688839494
Ni 6.967473067816425 3.5070107080350668 11.984284235415686 0.051259055285292364 0.7539970850930111 -0.5156473374013764
Ni 6.544246307731172 7.823383027524402 6.289439850516308 -0.4351869779617795 -0.20253248088270925 0.8096540123356831
Ni 8.373918730498712 8.481664547979207 4.842391877839582 -2.6282865524754215 2.7252400244740356 -0.13032407703925944
Ni 3.0130464360855185 3.7543365456433246 9.78779856662092 -0.11482700984492482 0.9154147982132814 -0.2009134572220475
Ni 2.5013954638615616 7.512147264554836 11.283968005185812 0.7041678202757098 1.1598891707454153 -0.3650452268393713
Ni 6.476927233735039 2.195333803860928 9.775154991125385 -2.091038091864502 -0.16051756990350421 0.9021908433238398
Ni 8.60992099266868 4.945634274998105 9.94979164894516 0.7729875101525848 -1.1228524297070919 0.2013903968584661
Ni 0.4921073542054021 0.594046471926689 3.1869891881749886 1.1447253185207835 0.41180356604083274 0.542855265274736
Ni 0.20296417488217353 4.196011723136652 4.587185983591207 -0.48802109104367575 -0.238588346065002 0.39646667857344625
Ni 1.9967485735740043 5.862825307032905 9.81053024952087 0.09777673923085742 -0.3814288104037173 -1.4311791208084965
Ni 4.028944861563524 8.7869459123795 6.162116044853909 -0.20782535385053238 -1.5975608628022615 1.259077959832451
Ni 7.571459019414131 4.760026103683528 0.3550493609287433 -0.7235071440342701 -1.5727278629189818 -0.2738476834879284
Ni 7.539652684466875 8.167372627241637 10.996976212303526 -3.2993966709652143 -0.15227924115411193 0.7697561476994808
Ni 6.1381860508534345 2.267826980825992 1.028113767316686 -0.12080662446712741 0.2533971289430603 -2.1715010224072606
Ni 0.3674997203708596 3.2472280085213563 11.084151951481685 -1.06697104515844 -1.2005971899877388 -0.011003550199355243
Ni 3.6408964281270038 7.665010888355081 4.067244370613621 -0.455366538233448 0.15759731093291568 -0.20340665595754645
Ni 5.958773798174904 4.599015822246385 2.3160325283070926 1.5995948625131549 -0.6395071468725309 0.08903370293090472
Ni 4.77627297279064 5.39235350619364 0.4304500679284139 0.11845869306024114 1.1609386950558522 -0.18674642169304614
Ni 3.488525133693642 1.3488338375237363 13.230523135344514 2.3361583255107505 0.6703138478407423 0.24575349635487356
Ni 8.868700454981951 5.045605004175196 7.522736061636137 -0.6296230549895995 1.0789089342466065 -1.2940886715796809
Ni 4.113411860300497 5.5226257145173285 5.810924502530187 0.8091431341375355 1.0229126213866448 0.9909898045361191
Ni 1.968695088895058 1.6550627037244434 10.28778133284977 0.5921006325641093 0.614832012723354 0.48142878253813864
Ni 0.5640311011668842 3.2158396890742837 0.35791880510666596 0.40144279163179897 2.1444476178338943 0.14147340878785958
Ni 6.903869687155251 6.378284864925196 9.490609053380837 -0.6600042383846182 2.3883206093366027 -0.21440480684026303
Ni 7.946883384745126 9.148445716937733 13.221903655730742 1.2957503755528201 0.06645710318196942 0.8095866494328573
P 2.8234438944358597 4.948876217432857 7.7789071072282665 0.790057064040362 0.5544658529304709 0.514852609414223
Ni 3.8294678648762104 0.3855254776620831 1.880058153312927 0.03370664822382582 0.08098666425671214 1.036197254310693
P 8.340245259650638 6.413147357640455 12.560457293477883 -0.939081545702602 -0.5709934182718489 0.09231931566071197
Ni 3.1109921123950572 7.522272528892601 0.1115079569821419 -1.1875704387107675 0.4649732080852766 -0.6533661642428102
P 7.524585547993614 0.1690779805906744 8.926984820634129 0.04813876448875581 1.2724129863784601 1.6978801659493146
P 2.380709744342069 0.32377529905172087 4.139859236535406 1.303804099095232 -0.8222727295409581 -1.2034840246172307
P 4.709288311194653 7.515816511723108 12.52952786215768 1.7063825469933709 -0.0415611112712381 -1.89072730122346
Ni 8.872183917483476 8.122161928588515 2.038421932172245 0.33193327477675094 -0.936106265124362 -1.1252497262946748
