# total energy = -340891.42404656194 ev
CRYSTAL
PRIMVEC
9.07745363998211 0.00000000000000 0.00000000000000

0.00000000000000 9.07745363998211 0.00000000000000

0.00000000000000 0.00000000000000 13.28577096518867

PRIMCOORD
 96 1
Ni 6.610210675048754 1.9154425285775667 11.598212338833756 -0.4550855166579194 0.07384362545402766 -0.9278270558347053
Ni 4.577859623571667 0.5128398097469715 6.178667630596899 -0.09945335560233196 -0.22316455531076404 -1.7045637486170773
Ni 2.452791462622131 1.6598305170605572 4.382404803770429 0.8500398723518973 -1.233984764309249 1.500481663859061
Ni 3.412096742536815 4.237346189997107 4.929313204036399 -0.4806463958461593 0.5807314714952192 -0.43086546776829016
Ni 5.204385460245698 4.670277177080481 2.308282942527489 -1.8164404175844266 -0.7215479634253702 0.7773720123735257
Ni 7.387894266464828 5.955090860027533 2.6481201058205053 -0.037308506642471234 0.2606178150612157 0.2516379801601085
Ni 5.251479288710851 4.565868307572735 11.57594534553672 0.3320140074160153 -0.6101109530986009 -0.594963298823885
Ni 5.5651234600924955 7.929355286919323 12.463766587328768 0.5617053081017036 0.5222216481847846 -0.061889024195312774
Ni 1.9646967909622854 6.285964038045041 0.30805699878713716 -0.31804803215422645 0.37463158497622573 0.018446893851277908
Ni 2.7944395778771365 1.5353695528960019 0.5928630083239576 -0.3040640591703086 -0.44905859373754925 -0.8935732768581579
Ni 0.5001259284539312 0.10252529791820962 4.801637005862137 -0.5843076188822518 0.11525612696254343 -0.2037095319099459
Ni 8.893226525916115 2.128917001209603 1.38227830057048 -0.11501238638285352 1.4262158632659503 -0.2940840651394613
Ni 6.898864617100297 0.7243617221432997 5.108432238620621 -1.2259719213071016 -1.6072323244537547 -0.9957268050004724
Ni 0.5865006212053712 7.258885498125053 2.3993434167464915 0.9400837617148714 -0.19906817648319264 -0.5629108983740305
Ni 7.6347465354088095 3.7187694296738103 3.7682960156618357 0.31652388220021616 1.1556805319807064 0.728597414072984
Ni 7.7521906280614985 3.7929140694007515 12.606031160932165 0.4328611580420803 0.2010867495751182 0.5149099450147196
Ni 7.980806293037381 8.837427419598594 7.3485725536380455 -0.9913307328153056 -0.10633439899288138 -0.9198067566333901
Ni 7.1055128447427816 0.507971571465194 0.45299669792034825 -0.4741109087204868 -0.0002938770913349778 0.27897112075742275
Ni 2.126947193812352 6.763256540107058 9.100195187665156 -1.2633904711648758 -0.8372347501674291 0.0056697966912676555
Ni 0.11710731912993318 4.995649418311197 1.3680221599373799 -0.6314122856795384 -1.669874424765008 -0.9390800030407053
Ni 6.438837431487917 2.151383698482397 7.190790073372895 -0.4039442178974141 -1.12421202905878 0.7845150511762102
Ni 3.606317936415075 4.140698543183598 0.44275369945464305 -0.6778867750919938 0.5986818853260528 0.2892460203208696
Ni 5.982595543961498 5.490742806576021 5.06425681143757 -0.3846362615974214 1.5006762963683702 -0.9476739153573035
Ni 5.229411999389574 2.794875295642427 9.499458807671736 0.10003545335804707 0.5920553811484707 -0.17662887364307
P 0.21830730884538405 5.482418781768284 12.272810553454155 0.6005508202139915 1.0073327646705168 2.801920862266542
P 4.006315922405239 6.032812016411233 12.700691753186879 -0.40309138297881547 0.8183471692343067 -0.32757834024216487
P 2.3827135220379025 8.307603694458734 1.1573272035497595 0.32877647431532403 0.34281983978226765 0.44814662344624107
P 6.205338096559402 7.721763004118709 6.075994370187559 0.6926644476218007 0.3244217968910542 -1.8873270172926593
P 4.7790159918808035 1.1390207031901463 12.70789289700365 -0.21312568301752324 -1.9740122745960453 -0.9119204119067779
P 3.9782030490905553 6.175818217960968 8.046911939994713 0.5285378202107995 0.3977128922757215 0.20211519083963253
P 4.9846475447376095 0.8959582710588486 3.7329429654805737 -0.6491066176355079 -0.023725882862030107 0.3070113147240906
P 0.2018889188020297 5.678773177205779 3.853524226043355 -0.9493795851945004 -1.3860750293810065 -0.8078267293189572
Ni 1.2544223688180358 0.5294225016976543 2.3947738266830063 0.4912606810268959 0.8318392901834706 1.447200178827101
Ni 1.7620971075556258 6.676712098976224 4.835023879627525 0.19482534204643867 -0.5099777978204248 -1.2703378490169863
Ni 5.998308615872289 5.790507551642473 9.256116789974378 -0.7829119683551484 -0.14228150651145172 0.17876391770820182
Ni 8.791386575732892 2.2837692795031743 10.071796786014476 -0.169628788176153 0.5347804586864016 0.8401238987897661
Ni 2.1837720523689943 5.368033790926071 6.93177129357852 -0.019751985815946626 -0.37758835361170456 0.7632168039190662
Ni 0.3824594381918751 0.1565080058016751 9.309698274415638 0.7794029267606254 -0.5361775961442443 -0.3517024869838782
Ni 1.5531704390988093 1.1132770452242298 11.541123326381907 0.202395955304845 0.6474564836265947 -0.8118811018939889
Ni 3.998354995735243 6.945077932581425 1.6006028565774066 0.8399858305500049 -0.5158255148504536 -0.1322637172641335
Ni 5.3297087824873906 8.147758816771209 7.938500821263702 0.23842045302857 -1.176439876015245 1.9159030291581391
Ni 5.275352991267395 2.7747505813580697 5.013850620210865 -0.28638155428888096 -0.5774157768584248 -0.8878831684519161
Ni 0.642934241518596 7.510730366462988 6.711798272026245 0.4927516637501255 -0.46883346237163126 1.1665102756063586
Ni 5.0667894209483215 4.41432929978606 7.177810222693959 0.5796143271716404 0.8480048441997395 0.48561890936008617
Ni 8.412166880675022 7.153986446131355 9.685885192278018 -0.16236747862804937 -0.11157122191178849 -0.7563560722434909
Ni 4.565741223224524 0.5089001949524695 10.46667599600782 0.23226574628108387 -0.7404715398027506 0.3340786032545279
Ni 8.054088574687185 7.304445236958245 4.747590755804567 -0.607905717917166 -0.5879400734285164 1.3055462785973193
Ni 7.2397865360798175 6.425883905423967 7.446514645312606 1.0431662294293582 -0.5930869077367785 -1.1430463881564639
Ni 2.059665108888737 5.250081360880544 2.6475355178187403 2.245513826449301 0.4608722985430256 0.1644690983520845
Ni 2.2835332657136416 5.317980712638319 11.37234078803386 -0.46386866216718825 -0.5661700287412765 0.3206507598843961
Ni 1.0863351634037643 3.4212014283406984 3.756379134781139 -0.8781057773501779 0.0073065609637422545 0.4802766712115665
Ni 3.708502829829152 2.642555626859607 2.6941155624189888 0.6358613225898275 0.2789412959607519 -0.40161634109518574
Ni 1.150866779933983 3.501128405911183 8.2108716273282 -0.49391663059250424 0.05875999164802783 0.7578691664539077
Ni 3.650788380835041 2.673800221612317 6.9488296440896455 -0.7915701582507787 -0.4923734544751004 0.4872996394966188
Ni 3.780995373029366 6.865849918926094 5.941582701558182 2.261436668327144 0.4315118431030375 -0.08972250146781321
Ni 0.9679197832326152 7.554057051749067 11.481842108923441 -0.15331256751463276 -0.5007688776276472 0.050818111093131835
P 0.1906092751530707 5.79162407841603 8.277712548014458 0.7128134117658499 -0.5142815674021014 -1.1867499996920015
P 8.544370912626928 1.7165646010827635 7.940227352908666 0.13857988929014844 0.4787476361615497 0.3569171984155982
P 2.0402575134264205 3.198522417916899 10.354145528904127 -1.3096394748300866 0.7144841146000533 0.6243044709901635
P 4.183362574368298 5.923183611173443 3.6301371742509585 -1.1651663599839546 1.420766667225921 1.4000080945223308
P 6.9654658930156454 3.9703056645946644 10.250954853648505 -0.9644146251507522 -0.41259829402798615 2.0705602836261243
P 6.313895362290853 7.802588649580105 10.227266331142209 -0.5299902363866099 -0.25980920311699124 0.3733452620646345
P 2.435680462881034 8.605752652812233 5.571653780099786 -0.1308097584264263 1.282882004230584 0.6323587087532078
P 6.9944229695005795 4.039884345239498 1.6433567545511973 2.477116228114773 -0.5488873304014289 -2.034703164718199
Ni 5.51508853671163 2.7957194988126775 0.3774713775246427 0.7496768604511024 1.1168345056477864 0.4967466438421316
Ni 1.4145940348295287 1.3720843203533701 6.720115942616573 -0.31357148444011157 -1.4352543193191345 1.252697253117088
Ni 6.801427231837199 0.6273881947511671 9.295601896963143 -0.01742205213118935 0.6155352094379657 0.07658544986522293
Ni 2.560840390960743 1.533799153450267 9.130845209217313 0.04228693369366911 0.02929900607443341 -0.061203310982197806
Ni 6.398488150931323 2.105143150640938 2.5441723709476913 0.17334840311958533 -0.9685343037460804 0.044991219998709614
Ni 4.133137024465118 6.688648950254496 10.59784701375785 0.6875497521030546 1.289773846254411 -0.16329667531053813
Ni 8.351375174963547 7.037205007580045 0.25412603238829995 -0.07452393935050391 0.21482338243492033 -0.2972020419431527
Ni 7.758444993484106 4.043524404070363 8.341869265717458 0.138405054275181 -0.057150223958746735 -1.8289087252547667
Ni 3.24785837738261 8.371345572539363 12.152082238145587 -0.6637199966733085 0.32200573125039383 1.639968124123879
Ni 9.00422562662388 4.702756305501515 10.450082411113005 0.8055466750355288 -0.5775412466926957 -2.339719046278816
Ni 8.42945942948499 2.320968683714854 5.630642703557371 1.6130144783531706 0.9448631853813855 0.9228853955587139
Ni 3.783600602167666 2.747454678853306 11.54209279840968 -0.6129275966117895 -0.3641733657573793 0.34889664210396687
Ni 1.4405283193177598 3.363868232391218 12.774906289305337 -1.2777858206545993 0.13230048403933986 -0.7203256609824948
Ni 2.8828085871501252 8.636134889487805 7.751131289244636 -0.11898551209798863 -0.5044296143086862 -0.042402633335926976
Ni 5.879675376818494 7.692969321795759 3.3376116983057402 -1.4138719969886164 0.5097242870487222 1.3732128287063579
Ni 3.3120995154026347 8.38357290232783 3.574935364370024 0.4779739912203187 -0.05913897225400138 -0.13552490451390853
Ni 3.528950800715673 4.660355520466679 9.547394116071105 0.48795707057495963 -1.2675597720512168 -1.256692747429726
Ni 7.190958914006947 6.108663217385563 11.48205452133402 0.09179146818169998 0.08746841532631389 -0.05894253997247913
Ni 0.5591166674022049 9.06720499861525 0.17119804870937694 0.4009964481229997 -1.1253471711044878 0.3491210994099471
Ni 4.675396860822645 0.3583279359575338 1.5008806762825664 0.5797423681090725 -0.7278944744686884 0.42540778708782867
Ni 5.956497865311284 5.748006914619757 0.27660089936919285 0.8427898756577034 -0.27222840271695053 0.9725727354815122
Ni 7.967389816847811 8.863034915762857 11.403961189359133 -0.16881863357003182 -0.5844927383098644 0.16256699623336518
Ni 9.021018915494453 4.944379961262008 5.96978816489799 -0.6242386507492346 -0.36372496536605103 0.020325598931229507
Ni 8.04336810217035 8.719520376820283 2.9289674379105923 -1.13670887597421 1.5373633673767588 -1.1372390374460672
P 8.536673232106795 1.7217841368128066 3.5195737913084826 -0.07562000062816009 -1.0531565078728506 0.19093654851499373
P 1.836296212003228 3.234705147342902 1.6284370520713733 0.1900826851551307 0.3393210826003898 0.34695571632751215
P 4.565795687945187 1.0995519356175776 8.332622971639854 0.6832069017533265 0.4862858535201238 -0.9748887852091985
P 8.650695124811264 1.5450461182668291 12.469958318322616 -0.49234722922285534 2.0146891834901175 -0.648938724599076
P 6.558469190420501 7.626939925447354 1.324518464309152 -0.3831427077710305 0.5891014407264693 -0.2875295518503951
P 1.6968029849361488 3.314069322799886 6.102779212063452 0.2693333405573426 1.2230403494826034 -1.9592821674747227
P 6.870860673226936 3.8377839217722336 6.002165625840454 1.083729238453385 0.9009490004969386 0.35114147227408554
P 2.40107721035421 8.590566073201169 10.114563392423086 0.19454354913996175 0.5169886819206193 0.5264215451987451
