# total energy = -381165.6688571819 ev
CRYSTAL
PRIMVEC
9.29700173019918 0.00000000000000 0.00000000000000

0.00000000000000 9.29700173019918 0.00000000000000

0.00000000000000 0.00000000000000 13.60710178749125

PRIMCOORD
 96 1
Ni 1.7984863768950223 7.974094104778142 10.07528341808295 0.31652876729622265 -0.4626371037529323 -1.8203796047378327
Ni 2.7556219946719933 5.153188564457929 9.452785937413806 -0.6951617601223576 -0.5665430958099791 1.996971197385064
Ni 0.6318558425389104 7.614839366678097 12.760209152740961 -1.0872156543400888 0.1047122900084261 0.4510704819612554
Ni 5.81733847195891 8.283479725980287 0.6154122357049591 0.633452970258651 0.09550542669817745 -1.0984380054184697
Ni 4.432224679819911 9.199392438402057 2.1244355362525176 -0.8238778692445489 0.061834002587661245 0.2611765157781631
Ni 6.090949230777922 2.6731204019516417 3.4731850361032146 -3.488618036561314 -2.5522703448501076 2.5336349891371075
Ni 6.291792357613367 8.71203431444516 3.6517646330662883 -0.995592593415453 -0.9061711681278264 -0.3683079567510431
Ni 1.229221668323938 3.4081320560961337 3.2892587334861547 0.6091347052282605 1.0896779998376525 0.6638079284014244
Ni 2.7855211520067518 0.36157898851474923 6.588055260974091 -1.6603687992674179 -0.6883686484599242 0.06827744422015983
Ni 2.4310543697609983 8.56433284909152 12.04160484712395 2.9030253803190518 0.570951766400636 0.5091406466311102
Ni 0.9547555853523133 6.434166641016507 0.9374761780692342 1.4700063780883392 0.08942939570742664 1.3285219135568862
Ni 3.417540621774857 4.165000961140506 7.487756791603382 0.5178281471027791 0.02279745751048977 -0.3268990547869531
Ni 5.4054720014716136 5.4812983470009335 3.781441071603813 -0.9965076490305548 1.094005937789045 -1.9020334702648984
Ni 3.8936307797212675 2.6395489289616503 9.20890513049936 0.9159943248658353 0.29862514754292446 1.383660506402243
Ni 9.218925438887235 3.492771959198013 5.94867070649187 -0.11830159865708657 0.192378680278159 0.17544873729203977
Ni 9.176577596331319 2.270058192035247 9.076073289598833 0.47400497927024166 0.7544390577264362 -0.5861436436497259
Ni 4.819863163984327 5.358875429157617 5.859422279667715 -0.7558688481944273 0.5616292034481295 2.2633125451936182
Ni 3.3462326190517233 3.234501253116049 12.483413241153636 -0.2513237913537994 0.15344215111396153 1.1215787052009911
Ni 8.531421463219305 1.9341947101087884 13.487073844331828 0.3001354135398637 0.004460863984831026 -0.47541060136851676
Ni 6.555232196617634 5.451919821759068 10.459370447613697 0.44524873307315577 0.7738496010425641 0.6289620243668329
Ni 8.3977305793655 5.525738014930083 0.1515671586433779 -2.0537218719125465 -0.6626540173026394 -0.4576867017261924
Ni 0.5860894924730472 4.03432230582416 12.618205819704007 -0.5900391220493904 -0.11902356442477567 -0.24956952766685406
Ni 4.112342743744961 2.067699653929415 6.799959030683032 1.365697751276235 0.811483352234938 -0.07515411673533509
Ni 2.5909256102860323 0.8641377101838145 8.968250383160525 -0.9643598606534166 -1.5009748014453956 0.8359345432987668
P 0.22946673554261382 1.4130791731287224 5.311491400803121 0.5051958030507493 0.15820923348530172 -1.2584254138501165
Ni 2.216275037438985 8.80626872325894 3.587362443175324 -1.0478811184065244 -0.7919139147434425 -0.5011195760988466
P 6.155191512240355 0.9359384539948656 5.133333887715358 -0.5707633045389138 0.41018325682859036 0.5265218182220351
Ni 5.622761524241508 8.71148579134729 11.90960229877139 -2.145642409472943 -0.4037308163350272 0.16262793137828768
P 2.023092639970406 5.2687131070704005 11.752548979449143 1.5694461068439163 0.5311811713709175 -0.7580167477753655
P 0.8268446474297977 4.268141897543432 8.484694732882083 -0.13746068808404066 0.7142568290805956 -0.5530352911315315
P 7.0199428245336515 4.495797577162908 4.5324435686014715 1.990344950317798 -0.0698671573047829 0.9845044539220915
Ni 5.86798853699615 0.33494865696323095 7.384492205078393 0.5621994741293027 2.481606916896274 1.4070557453977315
Ni 3.8526310024058805 0.44877277797230547 13.458049534853165 1.093970199455103 0.841819541324634 0.3722391734846493
Ni 7.681805669626563 0.5579827970581086 9.221015404860138 -1.3155345001582828 -0.963836898270411 0.6600070665980956
Ni 5.569471110733162 4.384307933270363 13.29098148534404 0.2991411679473945 -0.12206055147888656 0.27590816556138287
Ni 7.267177989646598 1.5171777007025076 1.7575479597905832 -0.7837858863196695 -0.7744298990260663 0.13271983096494563
Ni 2.9181800686764254 6.034720964745392 2.4211521332941914 -0.3664958432429688 0.48894617396110623 1.9020830925559111
Ni 5.512610648587833 4.3595593148545895 8.583114651842664 0.5671079671745135 -0.10595901793133364 0.2691078548100978
Ni 1.8076811115355933 6.626958564415416 7.97406063557217 -0.5189064677686224 -0.6051880618756869 -0.6970942012583801
Ni 6.224928321683149 2.4460969184449657 10.671832037422169 -0.3815589082236784 1.57737487477269 -2.981510361199833
Ni 5.941035079029483 1.8180751593901519 12.688445596936544 -1.2484197087876565 0.16370008139654388 3.3490354170382646
Ni 7.770991806539604 4.200162221414156 7.898432316178184 1.5629021350778116 0.8886074482124503 -0.2410905436615654
Ni 8.450416687766023 7.209006650267374 8.463412966384885 1.5501430356399302 0.09784461635431536 -0.9155870621250876
Ni 8.460057678486217 0.21834752155866752 3.739149940758016 -0.33148924526079687 0.3211498110080018 -0.32314215884768216
Ni 0.36520853796235175 8.384147659941968 2.119128807705664 -0.303109151456207 -1.65802163919148 -0.3468528722010607
Ni 1.5885321884339354 1.372237444841535 13.173660762011085 0.06089297883063061 0.1848654026202494 -0.3595551502590776
Ni 7.334116401590088 7.261200017579978 12.316059773693585 0.4231714415581422 -0.9290547575942193 -0.1621689894639981
Ni 1.6073400227897243 3.3314131984075672 0.9591642235389248 0.8260460805404614 0.03725271370387133 0.6599304477238892
Ni 1.3059312290108454 6.530948428284802 4.0382744612293235 -0.854218172099303 -0.47673626215847575 0.12259611226738241
Ni 6.107535081737254 7.233745971681489 8.499608053242994 -0.9416181960815267 0.4867427385518843 -0.22987076368634607
Ni 8.72116397007412 4.616612113719249 10.17419328903095 0.8369843247195198 -0.27013372497145094 0.06476146064710138
Ni 8.809894553905878 5.610219869003762 2.494522210985251 1.4410369874391826 -1.4913411350103734 1.0795247134537345
Ni 4.94553073540657 8.20487357695498 5.972497062343089 0.6469548613998277 -1.4504227995294567 -2.2038007629812304
Ni 0.0571012544882942 6.819499468769535 10.793194167376212 -1.0671348244298136 -0.687852370945138 -0.3766123628516804
Ni 6.890816768494329 6.270260501771546 6.614561942403547 0.14763042952819092 -0.8718317714160082 -0.4210109435717136
Ni 2.2317917332075523 2.1264938924197794 5.172740158946423 -0.82772706778731 0.04001742093320205 -0.3515266235276462
P 4.141804942001754 7.454782186119886 4.000215325538621 -0.46528251179557933 -0.024912961191595806 -0.4179536448026286
Ni 7.428285731392255 8.600619046565885 6.054479882370877 -0.6406037223708194 -1.5868367915165382 -1.3804805660123645
P 1.1697952337207733 8.638188230269169 8.12403800693189 -0.45624534129397554 1.0936012461514586 -0.9984164360174934
Ni 2.0389533248003495 4.879252410580857 5.972769464491693 -0.6954029295988863 0.24510660679949403 -1.7177373098845579
P 3.895387913034784 1.459694339446036 11.509321751751314 0.3414381289433926 -0.8285714180654762 -1.8617759082964322
P 2.194018015467775 9.389413855306639 1.2963237074966225 1.6093411432666411 -1.476608199675573 -0.1896772221865959
P 5.151496510156024 2.305926024434967 1.0937429710511446 0.16226360606033347 -0.06921358288118402 0.5841045017325102
Ni 8.602961890983908 2.44330781794732 11.270258651096468 0.6919424818541116 0.3938842625582507 -0.8428886060190967
Ni 3.9794142140271815 0.48978836019051275 4.375336326669604 2.726471068667659 0.6056868558889763 2.5860911500542945
Ni 9.276055514080673 5.991201699980464 6.354135261636904 -0.020969917383447757 0.3069076992666908 0.09393962487295435
Ni 4.351312874383218 6.565979530535228 12.437530678567036 1.2916227265376916 -0.8955098317592384 -1.0289511142712406
Ni 8.355457112822856 2.6391119698836856 3.7827194093319005 0.49157049895783084 0.565405125550794 -0.19514904393444457
Ni 8.684543080540037 0.7893265972356378 7.085408591414383 1.1188659342555183 0.31500847399695425 1.808357640576292
Ni 2.619588266400168 7.48912531024756 5.892677654601306 0.03591908249411233 -1.224359325404343 -0.9886554999759876
Ni 4.508962131511795 4.556321057961814 10.951525824426545 -0.5038657713854161 0.033757041845787025 0.012270332726920803
Ni 4.01128433571361 8.216029978945562 7.93877758457679 -1.7199044927392058 -0.40987652422144893 1.6799534062675647
Ni 8.24302847176277 8.883368758015518 0.16188776018483172 -0.370725050832968 0.1575173496245997 0.7916974278572623
Ni 1.7393853373499164 2.5528636854948314 7.553220699083783 -0.16484036564857418 -0.3012443303333263 -0.534701268709034
Ni 7.4687462826114315 0.5910605992600172 11.633500873207979 1.441569205793569 -2.179403822194105 -0.20533112667376896
Ni 7.8624092238507615 6.676511583256915 4.439398246299856 0.20286929539683773 -0.07907402061503156 -0.2689353337879755
Ni 4.084302986741966 3.918323616127088 2.134804482202597 0.7291064924989186 0.45315616084569055 -0.54281515606542
Ni 1.6633172697774676 2.8782773375567783 10.781314458656576 0.5471834603364447 -0.2881599863455424 -0.8113825649910155
Ni 0.6105787245425397 0.4033522763681502 11.260502377555703 -0.9142788848366253 0.3571894782403784 -0.8480629511311845
Ni 2.800526512684084 5.1550572617913515 0.36408638986213243 0.8133044646040768 -0.8258509338105197 -2.0354588119373007
Ni 4.128091864554999 7.302580971963377 10.214116473554245 0.35878741885511756 -0.6062229308981043 -0.12461802779341763
Ni 3.2067125151578417 1.945555646135864 2.928724727957857 -1.105980850762734 0.23373975972344907 -1.4333799851145572
Ni 0.36013609385730067 8.399376148659112 5.332582578766314 1.1451235824004666 -0.33463601841989465 0.6919941610276534
Ni 6.91542593188522 4.188513078335657 2.2494439502571497 0.6584217243888467 2.039156315393546 -2.4617168628405666
Ni 5.083377379001865 6.342377343638996 1.6604881921726893 0.28198676765529496 -0.5298043456280489 -1.143504815850121
Ni 7.302441516938495 7.131860130502502 1.980186977314961 0.19078613898005853 0.8213892984947403 -0.2907868824454282
Ni 3.937168638489512 3.5160516513516926 4.71966379890625 0.5726702917536396 0.4613731494388441 -0.4777158524629257
Ni 3.247898232506406 7.375171960915428 0.4401832781397235 -1.225689357069676 2.5606058612989964 1.8015814981947231
P 7.2326396284840895 7.656731656152731 10.15722533130344 0.6192977618041915 0.9246769402414979 2.2696978798946716
Ni 5.0765068947759975 0.20461677980875925 9.783547224829906 -0.2859220981539592 0.9407921006358055 -0.14016163195497153
P 6.643088862293464 2.461743772236756 8.386219961611719 -0.047460764585124715 -1.5988883233644333 0.13851638304206468
Ni 0.7432357818118818 1.3606905687812831 1.944155517686046 -1.5568420449266607 1.0447939948407683 1.2343303205741256
P 7.558434457614048 4.027842295667964 12.164735266793501 -1.2897309088316176 1.151542855663249 0.20734455755937192
P 4.338668952127226 6.047941301104231 8.073855581078087 -0.9915266508761957 0.9367657530852318 -0.1935729576965763
P 8.828005113137257 3.2843517760106304 1.5040335997572707 -0.16674015377444834 1.0040723487516903 1.101128407766439
Ni 6.418008452133481 3.0272338981343605 6.086674469415198 -0.12005226279960615 -0.35891160313780773 -0.016857437876970967
