# total energy = -340865.2316909262 ev
CRYSTAL
PRIMVEC
9.28448889724900 0.00000000000000 0.00000000000000
0.00000000000000 9.28448889724900 0.00000000000000
0.00000000000000 0.00000000000000 13.58878799164236
PRIMCOORD
 96 1
Ni 0.16696946005551352 8.848257031356463 3.070577255676613 1.423941979630109 1.8400932811166764 2.5583031813077493
Ni 6.304028583427929 4.555712932268631 3.7001723634995 0.7813641642520543 1.037162960658072 -2.0730964197844166
Ni 8.65838923673493 4.203255170927672 0.2702705386138555 2.1711714069819834 -1.9005980233699524 -1.0942993006597475
Ni 6.5375149061243745 1.4328287239593145 8.532644763558563 -1.1701185617829073 0.3848391216368469 -1.8056669811180064
Ni 1.6869916030676007 4.473842310607376 11.433687254942306 -0.20101347313502152 -1.2251579100462384 -0.8586427835295598
Ni 6.53656788827345 5.047865111109617 6.16294984865758 1.0263715264695226 -1.3534202194604628 -0.6423423023284809
Ni 5.47998378579301 6.5635950349797225 0.15225168851350604 -0.8562128339318286 -0.2635735552554299 -0.8705271936719717
Ni 0.1541187991980239 7.322889808179895 7.849739978319641 -1.3432728466138155 -1.856209212841932 -0.2479142514516182
Ni 1.251679064259524 2.647629798965209 6.813948488360224 -1.4036742305200085 0.6591460041493808 -0.2808876210538453
Ni 3.903375469290465 3.952908216689286 1.9312247214742861 -0.10161796735381853 0.21774852650151533 -0.33036593028963107
Ni 2.481251760842086 1.325342197879438 0.5765927469839658 -0.2718118840048222 1.5029501800042115 -1.389275281485859
Ni 0.739396256944287 6.427289455867806 1.8178536864344519 -0.7006441233931675 -0.10704736589950596 0.4964990466076998
Ni 9.205338468087227 4.65191880453603 8.631923801597098 -1.0641911684204577 0.9705575048236962 0.6426112397191514
Ni 5.330215698015996 7.827836012497092 8.957348845538544 1.4107247096088866 -1.0391727919992488 0.7590976395443702
Ni 5.060102067261754 5.245039798365241 8.03782236575752 -0.7673830194816138 -1.3690301580835775 1.9963333066907492
Ni 2.1680023954271284 5.452371716296461 3.691584211420042 -1.0362823578253315 -1.5723596809462856 -0.45340427230075464
Ni 3.290970592359596 6.572879523714272 11.034095858091533 -0.4561131865914854 0.9242149130034147 -1.2948389194821441
Ni 7.262410648563042 2.836244187607577 4.853969705275039 0.9161246797961127 -0.9639073464970301 1.3070084649651426
Ni 6.611688686624689 7.051383504115472 11.355049492258422 -0.38904827462218805 -1.7950668370046567 -0.7520204209826146
Ni 8.53040255952917 1.3121396548989088 7.236165255808219 0.5961858583770765 2.541007370341778 0.2660816663892643
Ni 6.8368932453699145 3.6872418560388933 8.700982757253549 -0.2665776321890764 1.1881666775338697 0.6293559173711419
Ni 8.70569370683746 8.891717723122888 5.91461484312797 -0.708905077850379 -1.8069772152889976 -1.7810838924620036
Ni 2.4253034317276922 6.514656494859914 7.603035329011819 0.690229870038379 -0.23359783482894608 1.175944167325749
Ni 0.7545401865192104 1.2248097538617384 11.27372015629039 -0.5431807669349548 0.5352347726150009 -1.9758657828650166
P 5.155490904520513 5.70739805285706 10.104514277010994 0.4729145744195404 0.26580501568910997 0.942832270994286
P 2.5946803597120742 6.612431445723452 5.47937936557639 0.08216320106331655 -0.9914333198314408 -0.4796328669799804
P 8.727762936559483 1.383853045884567 4.318055088783753 0.30758621339095416 -1.3302648643899218 -0.3239980790900743
P 4.822632698898188 9.421156408721826 7.469905973495989 0.5113674790791 -0.31096798537899345 0.025585818888904325
P 3.730006211150227 8.90690714669261 10.733810424296628 -1.497396340065518 -1.350927534945596 1.653648706934765
P 5.196714034501912 5.9340509918448765 2.178621993641706 -0.01778097813250486 -1.059417658291214 1.2317743869214914
P 6.9531164753490025 2.188075460071224 10.48932105400087 -0.9398032543599749 0.23915347453985264 1.0007761944989217
P 8.871115442620924 8.336245331112275 1.1761023975114195 -0.6625282903580525 -2.375136763656477 -1.1209922365699017
Ni 6.9953701835799365 0.36985132253626357 2.895145912588431 -1.1958720165979275 0.7720063771862382 2.208158525729294
Ni 8.786236646609675 4.606898318662201 4.4966654408146445 0.745988870076554 0.04073681559772984 -0.3647595772781525
Ni 7.948812900708269 6.342568496165043 0.31532352019825577 -0.3266745974809729 1.7122588032684898 0.14049510403499033
Ni 7.883960746897442 1.1587041940717475 12.686016233413248 -1.069064951572991 0.7223038677547883 -2.721660791763209
Ni 0.9041485810899903 4.991044040054177 6.614587304007615 -0.10693757979451905 0.3481919027274584 -1.89406253624428
Ni 7.759316485636119 7.3220820576599905 2.9555610092330165 0.2499387380808147 -2.1450991353749638 -2.1135846097064506
Ni 0.4037211374398993 6.84235252474583 4.525038838387427 -0.23204771673300684 0.6852666124958328 1.1013266398201742
Ni 5.113125782424765 3.611239031257873 10.958378995563539 1.5408371848579723 -2.2196822100981772 -2.5830814166936933
Ni 1.6678655562744291 8.662381566890787 1.1702271730401967 1.0159953254415213 -1.2791053107969714 0.8728710113137998
Ni 4.981267473416696 6.705378462445025 6.428896600867756 -1.0951865883607073 2.2847192930041684 -0.6180196664227163
Ni 3.1605978015490557 2.076123094910029 5.724929024485636 2.030840596438999 0.14955387180314889 -1.0922370188140804
Ni 4.396474665982376 5.646296832494991 4.283294891410474 -0.21724150495810973 0.6079327145003595 0.3017503234354674
Ni 6.502196710978149 7.705596433818016 4.637227958011353 -1.761972111333217 0.4769632905676172 0.9782204206855927
Ni 2.6360984639568987 1.1733458328061317 3.188255365040404 0.5741072813104823 -0.041999227249921216 -0.18900719270276484
Ni 6.6730591571600595 8.552546065161069 0.8299952264648922 0.8180370941930557 0.21030518284959265 -0.8275494045588652
Ni 7.380137965717126 8.77059228309196 7.993903020247608 0.22062481960804586 -2.4667587961398483 -0.39416117036872117
Ni 4.60301740237116 1.3547090357468172 9.788506489993003 0.05562967354916226 0.9641834829765524 -1.8977911500487767
Ni 4.4606583366043155 1.2372509687660342 11.95655716476155 0.10891244413270276 0.22366309221373737 1.6380601084678885
Ni 3.1780897783249467 8.469069226948736 8.81787354197265 0.6350421691226418 0.060741540854430884 -0.9416536773051524
Ni 8.427678976170116 1.0639931244906107 1.204704193507072 1.8574739384869687 1.5900301016428553 0.4688339765922635
Ni 6.6556414562940445 4.548090367017566 12.473460862119971 -1.2055792165833623 0.12054694304783753 -2.5096229424932264
Ni 6.088628444786386 0.7429633575161009 5.525731247134755 -0.21330720290071004 -0.0009572217069467386 0.6566319794782756
Ni 3.3867215246790026 4.472468206274662 6.519982077598051 0.06028079916792844 -0.5565049948476868 -0.9896155498964118
Ni 4.657805170393734 1.3506145762148807 1.2489252849008567 0.699725211123324 -0.32075231845926694 1.8125166570499882
P 4.645763188505025 2.9605820607406605 7.969702071912131 0.06434725592781822 0.6242309374397508 -0.16253125789942333
P 0.5657382512044042 2.313026109460788 12.984155093412728 0.13645153009323596 1.169579915670618 2.517233407850633
P 8.191379453387103 3.5037896431329347 7.044794302460563 0.7197471627712057 0.06600921701127342 -1.2467870582802398
P 1.6225758202272977 3.4314263379358576 4.65273305419805 0.1268209489820074 0.08769930039019735 0.05299943501516679
P 2.620584083281467 2.607047298706494 10.33699044733312 0.8164047007959552 -0.4704501720394479 0.7610596483667473
P 4.337239627855952 2.7901188475743366 -0.16503828639872728 -0.8190058858642283 2.0676086571969683 -0.3012201619636103
P 3.149029328585807 6.7020174775231185 13.194291855390654 0.8092174390188968 0.22094775016510335 1.0334716278494138
P 6.201518543309771 8.802103837857018 12.325804995530067 -0.20190821703514905 1.6134559367659633 0.8270580667447434
Ni 1.245514163739783 8.403037943068624 10.023416124812453 0.17425497409425475 -1.3748470218756708 1.7316657470401917
Ni 6.346198731260252 4.2561581877371335 0.9338598734894213 -1.3567392565313665 0.10892581386914142 3.084558633242275
Ni 8.465513267763404 3.0622936348276477 2.4390649009300414 -0.9185880537349406 -0.06364894430921296 1.5599124563218683
Ni 0.7838113941526238 2.6835422013904453 9.321133683135653 -1.5201117793851626 -2.050478425274585 -0.3942750702387661
Ni 2.6289772610974995 8.005866083982074 3.717552926410576 0.01694665515666759 0.92402927935517 0.6910590508078936
Ni 1.3582371414659458 -0.16848654551473888 7.822046205322228 -1.2703159946401157 2.4549474053272173 -2.227596579849248
Ni 5.048255059636469 2.3151429728922652 3.349839821629879 0.5333583815278944 -0.7430660400028041 0.6710453266901282
Ni 2.3549270071198087 4.345818495446676 8.989091584073094 2.1209456780572116 -0.34736837838489854 -1.3791924433285603
Ni 1.384725787825615 0.6525082975708814 5.286201650720992 -0.599216160562968 0.11723896172052711 -0.42260271353886575
Ni 7.317653356533611 6.190952795129854 8.199759632918907 -0.7302843148571035 0.42415437429670183 0.2891264640238698
Ni 3.051700033181527 8.476264705718012 6.383359897420286 1.3268501822814183 1.4477773914868097 -1.1212377769218045
Ni 7.169259373089309 9.237862032124355 10.349084422358743 0.3228400542262311 0.0823604046757872 0.7130985471064364
Ni 8.397894336309681 3.7337849980651883 10.766260640872751 0.5694633547805676 -0.2067714586647213 0.6966571137209615
Ni 1.8811674004619636 4.754698094827491 0.4424383839118432 1.1952973750413802 -0.6841484397309895 0.21482029711112682
Ni 1.7755006341740585 9.005072046083 12.457276141357905 2.9253618390327234 -1.4712914154483498 -0.09416433928925073
Ni 4.777147988587632 8.117400647150214 2.1463491108004127 1.905627101153428 1.7254207945717446 2.820877348764387
Ni 8.746861129886451 6.732219919376607 10.2141752303525 -0.17512683517624678 1.1165308583644384 -0.9957936536826657
Ni 3.1938269867300075 6.746220928388308 1.8389573293280825 -1.8472766862389927 -2.420800070021547 -1.6109820213041737
Ni 2.788837588128968 1.6770757690991018 8.205575436662228 1.4124923430322707 0.2091103912105431 0.0839953691760489
Ni 1.169984847884225 6.379446485418674 12.613384606491744 -2.0130459914597396 1.4615893576692378 -0.8254092182874108
Ni 4.368212682274408 8.829093846608354 13.599387097163266 -1.4764608754644313 -1.9127205176650994 -1.5494997456289767
Ni 1.4572562138199139 2.9265822629947413 1.884818989881262 -0.09564529471015142 0.48860318879939074 0.7080861814935095
Ni 8.897186286987539 8.299692298964356 12.611685545053321 -1.1892491119647712 -0.3398702702356405 -0.6502695275953575
Ni 3.9323337896535246 4.626015080966638 12.33743660301671 -1.2178783456656896 1.859018400155953 2.8584799896085094
P 8.03394237791535 5.163549840742101 2.1837182495081002 0.9756009807848747 0.6316951070272797 1.4177348223781325
P 8.252229992553339 5.650261309184644 11.835820744808597 1.3815748275178077 -0.2979551180590933 1.4372451244969182
P 1.371439684446475 6.032401581009956 9.621745002485142 0.38969516417756755 1.5146553842562818 0.3687028781966167
P 7.785210924716776 6.880112540429242 6.108961475115049 1.061826524843023 -0.04570547245691483 0.6640460125541596
P 9.099699555265525 0.43360604977866646 9.243473577115514 -0.6321815597453951 0.9084085420987774 -0.2437902019809156
P 6.602413482378873 2.20216931397027 1.5085455864873105 0.1907776543396263 -0.6341001169243466 0.49304399817956374
P 5.2049122380545185 3.3116471487714376 5.2411950915802645 -1.5017885555959427 0.5966630551238111 0.657184509547636
P 4.643832014848238 0.09267312430390345 4.0712139574915325 -0.7932192638184274 -0.19779650885962063 -1.0808668293039256
