# total energy = -340870.85608954594 ev
CRYSTAL
PRIMVEC
9.21449809937632 0.00000000000000 0.00000000000000
0.00000000000000 9.21449809937632 0.00000000000000
0.00000000000000 0.00000000000000 13.48634938417983
PRIMCOORD
 96 1
Ni 8.310786261472888 5.783166483111753 0.8091241628087792 0.7788090019303685 0.7135042671852873 0.4977378041108073
Ni 7.816492936169576 3.0190105367410736 1.8479666864315345 0.38765165138497754 0.40516960566408283 -0.6348413659657454
Ni 7.601085612462558 6.538847477987593 6.565437755355148 -0.5919440523815869 -0.7999583823144739 1.462773607785326
Ni 0.6444933312644653 4.312661578243375 2.2358887663166396 0.511799424410196 0.9414821847242946 0.8095686517107283
Ni 8.680812864463123 3.4244208127019604 5.209642295298504 -0.6922808390301367 1.5823964963569974 -0.7815611107542089
Ni 1.4645799825454282 3.1754082141709925 6.672425450700892 1.0423355059979467 0.412346068807864 -0.10012029976236951
Ni 2.2655778794185775 5.502188790430996 9.731304356671684 0.879617328898698 0.4338170941974464 -1.9771680466162078
Ni 4.140092456526087 7.728899916570872 13.15708062205437 0.05047255482825501 0.8802778453008324 0.5610234515433307
Ni 8.655684927955058 6.076952328248034 4.4707925027789654 -0.7797024602789152 -1.6043575740091207 -0.20614308105210302
Ni 2.468610132084036 1.2392670733062618 2.8861328658886527 -0.424942674525952 -0.30701440004788416 0.17268377295239293
Ni 7.3073734833116335 3.7217358106371368 10.673595525575404 -0.5495938695501502 1.4375480004493177 0.16025120361599499
Ni 5.455775363151522 3.487779702115035 13.07844133032691 0.711632246973555 -0.8396487589255605 1.0146742926372525
Ni 8.779122345432887 2.080182176249429 7.668958684528843 -0.33500625727511985 -0.08316387441368904 0.43377107145085936
Ni 3.721901671604187 4.3690450925421835 11.044066267377408 0.47122304564973033 -1.213143916304498 1.2130166466980141
Ni 6.394631367137675 7.974235930332233 5.01158126439546 0.833391979382571 -1.0399407805135252 -0.19075477152149084
Ni 5.212586327463641 2.340878758459248 11.21953703456825 -0.23897066910508527 -1.2237286337988795 -1.7673272049975433
Ni 8.157493869926071 6.26043141579794 11.590762443770329 0.07574084247674052 0.28711611846206037 0.2926144225724703
Ni 5.937067031537754 0.8883135600769534 12.975082304360294 -0.9583010560538465 -1.0680102850562316 -1.3063803444628406
Ni 0.9209817204370719 1.1405337254207037 13.03995145002334 -0.3663788580491303 -0.6370442871543351 -0.1972007842571507
Ni 0.36387408256249837 7.216113093441492 8.155100864751468 0.17768174038761658 -3.7897824055863243 1.0412255607632197
Ni 4.897413632076088 0.4012407155392147 4.043166993181374 -0.48512911420786126 0.22712559684104108 -0.32710859969459793
Ni 8.360627482071394 1.224827954674748 3.7499469182326965 -0.02399430603206835 0.6397454881355822 -1.5153372408146548
Ni 7.615653734068445 5.759448364823613 9.017768633523234 0.7246667115600101 0.6466622698600734 -0.5189609751556417
Ni 1.9621905271897395 8.47752260584892 1.062426110237622 0.5295006983447009 0.48134187925128713 0.8784600753658033
P 5.087186221875721 2.175589090295819 5.21364783765276 0.23282984631467 0.5422957932268403 0.22027694935032383
P 7.777948690326806 8.902845412353967 12.499458473798086 0.7315400416410756 -0.28918457095531486 -0.09566869174891911
P 4.579937312146175 3.04295901748345 9.306120689088996 -1.156695603508782 0.08017008189268773 0.021323186957808438
P 7.798745812695233 4.34505053930896 12.961015451454827 -1.9775891933140262 -1.341198223472974 -1.9984354406354163
P 7.439288239105347 4.7101566002767115 3.2602571562148372 0.7581612437730298 -2.259615555958005 0.15406590074088952
P 6.731338344747212 8.772911773666683 3.171260768544927 0.8130144441674837 1.1557795194524159 -2.311197027579723
P 2.2625463095208316 3.5837302715534225 3.5921431083821216 -0.3243279516256672 -0.46817217463854854 -0.009584815474957686
P 0.5364745335735617 6.910615621131852 6.055613393387243 1.8234500161330403 -0.3072622543926321 0.6610221381261713
Ni 3.9643811909330213 8.726350914416498 9.326120757365768 -0.47523293814007184 0.6009706813602295 -1.3987976191539973
Ni 6.002250391588378 2.8685654251286135 3.3548504300728657 0.921736112445619 -0.32078574280036365 1.455153886456539
Ni 4.0050079133620855 4.291477446951831 4.921330783524689 -0.3631107288208198 -0.01940874354391496 -0.9844154937527111
Ni 0.3959571222888573 7.584904953677021 13.00205498340188 -1.3413532609935996 0.289928648210191 0.35511331243764
Ni 8.079603716899788 8.499840120415305 9.291595875624505 -1.3136293127157699 0.5076661189681128 -1.8671253455338037
Ni 0.5679162442273276 2.6593410296932913 10.950106950993435 1.0027574865950084 -1.2919965649373424 -0.29130958771811766
Ni 4.686742560428163 5.117981074757992 7.106739764519681 -0.5684734800634726 1.4634130411415378 0.7837923140775727
Ni 3.113413070486995 4.660343023172715 0.17315516380086363 0.9018134053797631 -0.3436366792566082 0.6615564133630865
Ni 4.373403550176329 6.9539145480300535 10.864657223668944 -0.5382995275832535 -1.0208963622875644 -0.3549202225902275
Ni 4.232652090638121 2.9434792952461675 7.034115697197233 -0.7077539949650714 -1.8927502451907596 0.8223017830066807
Ni 2.2036011647309186 2.6607047754223685 1.0284365908400057 -0.24235886885102775 -0.9361674573796005 2.0770749448161907
Ni 3.978276654172538 3.162904140155061 2.3703476450549363 0.015062293649761156 -0.05997432367110316 -0.3297946311671933
Ni 2.213718683720965 5.8603286907826515 7.212230103912889 -1.4915087709364894 -2.2295914987920895 -0.3363655995164917
Ni 5.39865468899916 5.725419223083868 12.800272216688198 0.5212906517300829 0.2674662054416168 -0.27203531286953797
Ni 2.5069977314579264 1.3222528438202459 10.219632215860102 0.9527729271467656 -0.24550667045139007 1.4931421927748543
Ni 8.824079882001588 8.306261942871693 2.205341783435126 0.022561173129967593 1.579424558212867 -0.7741259946324023
Ni 9.175207549246299 9.022375882607953 6.938376139766925 -0.9700643672373616 1.3571472906030626 -0.08838552782394456
Ni 0.282710018336613 -0.07844486581608337 10.868918929072311 -0.05310099359003758 0.7653107103336174 1.336921193364175
Ni 3.0732562874645715 6.790255846042616 5.122182885923257 0.005518872935700174 -0.03699843160122015 0.6023436504483561
Ni 2.2850020415597587 6.257344558911178 12.34498662648558 0.670794901242219 0.8334822251035324 -0.4345639996658
Ni 3.612728297292652 1.0403168433298657 13.135299391281446 -0.847090045694954 0.9810905431445361 0.3029538568252653
Ni 0.43428390597482935 3.487779702115035 13.438257347895588 -1.152068646259732 0.6244070580062988 -0.6099114354932851
Ni 6.192787784736074 1.0687067121899128 8.513244450902391 -0.30557226828471895 0.10444720927249755 0.16380575373647271
Ni 5.785820258584553 4.629179590363667 1.6931981322779728 0.328802185346937 1.0561978658023359 -0.16849930255740012
P 4.674524135855485 6.501261539954444 1.348958302414919 0.24854365750550098 0.09720595432905194 -0.1504560719024441
P 3.6403533628046354 6.57300562270171 8.42008126716026 2.1218905584689844 1.6339674264557538 1.6277443283641775
P 2.5108033192019055 1.26105014697882 7.4584774315432085 0.6593864022949611 0.06750611327177405 1.2181987051195857
P 8.129472580992802 4.118180379879157 7.270274992231648 -0.07175948923148932 1.1492648582623497 -1.101671938974735
P 2.355603526534014 2.829624955864557 12.453619109754568 0.5187537442408421 0.5050428224126527 -2.161788165994871
P 2.877558775341988 8.458153730696756 3.7466020553971897 -0.7462408381863599 0.4889312615627708 -1.016213097879282
P 1.1791885452415078 7.109409204639367 10.458988020309496 -1.195279634429567 1.2075507384874364 0.8013007552749812
P 0.44279994518302657 1.63888142991857 5.588676070249367 -0.039956228677963446 -2.6807658533210605 -0.7794715752150317
Ni 7.44501044246857 0.6997250332920935 1.1344558424281406 -2.9492083066330173 -1.632472329967466 0.2927771734025797
Ni 2.6087257912485526 0.7487793357469285 5.353864856297141 -0.9478775467276772 0.916673610321047 -0.9435982026260329
Ni 6.4388886018455 8.209823005030326 10.877387974339843 -0.4470991560183332 0.4268265218122262 1.5296603423055464
Ni 6.378063699429021 3.9121349863122923 5.66251368698073 0.6323607656357367 -0.26623824657178663 0.3763097440095971
Ni 6.256837761511858 3.9260488785481473 8.392852425069561 0.40662922092874487 -0.7731245499510815 -0.29583498639229694
Ni 7.304341913413888 6.704828233513731 2.7049841249257995 -2.3100960812060602 0.6069682937045612 0.19261496465868116
Ni 7.830508187885295 2.002172234746943 11.99273663336383 0.05547052226347866 -1.2983037381022933 0.8629092721153977
Ni 5.078874744526885 7.533082615972085 6.8558400367636105 -3.6204719199815387 -2.920872178692486 -2.8495621182935893
Ni 6.554843846809743 7.689913374815967 0.5385892609034484 0.16065358126073623 -0.12986436379402153 -0.10140713689459309
Ni 4.585208005099095 9.324058552675446 1.7078574774157362 0.35591652506522575 -0.3191505211897859 -0.18637489728624032
Ni 2.6352635459765423 8.158894473647827 6.963879106350487 -0.04085122968840707 0.4997185819862619 0.21946756607515108
Ni 1.5562550248331946 5.133249498224756 5.086565164699101 -0.3998764755859436 -1.6513992487789557 -1.1056319520637474
Ni 2.390323755636467 3.1911557915425663 8.87119913984084 0.20613408219103854 0.2826089746203262 -0.11863738472995054
Ni 4.664793625788555 0.4100405612910306 6.465976462114205 0.04200385523561153 2.098544684654192 0.9932096950055733
Ni 8.964720767561763 8.430464163697586 4.811430385307585 -0.24440212453330168 0.09288033037050455 -2.1536043446324973
Ni 4.523028571451708 7.109704068580789 3.474434344416234 2.6759766594625334 0.2836710973362534 -0.8823069599157192
Ni 7.261678786889376 1.194724189155185 5.907425833826297 -0.7281659829625201 0.2883487053175808 -0.29180709617982653
Ni 3.004138336695596 5.575904775786522 2.652549023092596 -0.2175685492802253 -1.1154170564749692 -0.5334026045022685
Ni 9.120408928632635 4.015954737187381 9.119388883685277 1.6741846221045875 -0.16661879770523563 -0.24790962346592788
Ni 2.274156577214327 8.642019827169777 12.083377808956985 0.5916272924721165 -0.26233274086979336 -1.8653589976620004
Ni 5.85145512904548 7.348175281205918 8.755742399227564 1.2709076054775272 -0.7910466816471409 2.9744958775552126
Ni 1.4349185129379982 9.008729210819013 8.742162071825442 0.790155023070807 2.236839181493438 1.8486074892352742
Ni 1.0729822393405335 6.925091597756043 3.113917103536863 1.6105585606135102 0.25141043753033476 0.44805663483559605
Ni 0.8177655191920808 4.893239464405331 11.219280871519139 -1.484851927741604 -0.20537329276561403 1.202153478731265
P 5.649371969691473 5.878582611656313 5.353811412207758 -1.0160883993759597 1.2757672475626738 -0.796691281527428
P 4.443378449275062 0.14179730508043967 11.297676900494926 -0.2558376200637529 -0.23568119972053606 0.3722764544804879
P 0.0011407548733767703 1.329283505923529 1.488461197451168 5.06433686378782 1.6124897161979521 1.7991068114019855
P 7.99635994043706 1.5583467159176576 9.601754962558065 0.658278513942763 0.18937588889609322 1.9060022251046596
P 1.4366139806011753 6.262329602420845 1.0723215598217843 -0.22187746106822437 -0.4782141322555828 -0.5814362108717277
P 5.689427393234032 2.0272633132623303 1.3140113966574978 -0.7012835567493794 0.9212560874854069 0.11931769862642676
P 6.78392548580021 8.610460170939442 7.037986707878216 2.18625658344988 1.9213100591063235 1.8348124923337112
P 6.319348917093344 5.873883217589899 10.672638139215602 -1.8933871074438104 0.2439241564556186 -0.25646599767637124
