# total energy = -340872.2125217925 ev
CRYSTAL
PRIMVEC
9.26732998101073 0.00000000000000 0.00000000000000
0.00000000000000 9.26732998101073 0.00000000000000
0.00000000000000 0.00000000000000 13.56367418327759
PRIMCOORD
 96 1
Ni 8.050353633818759 4.077412123376333 3.9001262438812367 0.015083119585367575 0.5142214035881273 -0.483733005191283
Ni 3.259987266298782 7.137521612707272 10.980459162149128 0.5659645975986898 -0.4570547245691483 -0.6422877949414616
Ni 1.2990109363575457 3.15739792138808 5.273244312624774 -0.2742040383860826 -0.5098507853242574 0.018690120210335552
Ni 7.42090730177903 0.2412628932792906 5.436565252296389 0.9127390511533312 -0.7379428598436258 -0.7811201665620483
Ni 5.686832283562603 3.6824663137955382 0.3850334732378416 0.9186258489514115 -0.237190694386527 -0.5366355096172694
Ni 5.838677488292671 4.332189564233155 10.13824975728213 1.6646088054906947 -1.6220038263359742 -0.10888004823287054
Ni 8.416413175279711 -0.01445147465706856 1.1454586894113483 -0.8018895378989157 -0.5697664878432832 0.21481541201512036
Ni 2.3530585345014883 2.836840971030249 11.263438015426704 0.4962635335581259 -1.676479074565719 -1.811908076931712
Ni 6.772935576742328 0.8453093268067114 7.510084039743999 -0.48921691112398974 0.1898181186398344 0.9614002638044604
Ni 7.318290154877837 1.7001102531669496 9.924716569318269 -0.6949244473005709 1.3392570405862032 0.07060326413985905
Ni 3.657314779731614 2.1100784049428882 13.162555843259138 0.904996431093435 0.36852495785785566 0.16267395412487468
Ni 2.3127456482899658 6.929581258497125 13.31952866176871 0.48079809093267517 -0.8007471967643564 -1.3286250147936538
Ni 8.871513224952228 6.573752849536752 1.6212526873391135 -0.08294764463782489 0.2590090758131991 0.9952892032424215
Ni 4.378053581212655 5.358880003734243 13.499897782009224 -2.673446951062144 0.6834447287957456 2.2337350886468172
Ni 0.2503430233735549 1.8764675461796563 9.257763498640546 1.8550745850168566 -1.4212420642004424 0.3255613098121361
Ni 2.915344524845837 2.0992170939911863 8.884220588072512 -0.2943357761389512 1.2564958009275715 0.2907598858622347
Ni 7.398841788659573 4.412648524713256 11.951034990776794 -0.4424143489481542 0.7749443767686396 0.16876489751396095
Ni 5.78886558866349 9.406803482530101 -0.1828156954036974 -0.08318290057708254 -0.5090072063770396 0.5756448010009312
Ni 1.9823282586380981 5.212808345696079 1.3373684159045554 -1.2954773243970916 -0.8723621899981815 1.3147667687543227
Ni 0.5506601246541524 5.918191181096087 10.547886138638212 -0.07113085450855491 -0.3490434520944763 -0.42639560492239464
Ni -0.059237701138545554 7.602074339146628 6.6373702909106 1.059446968867253 0.5564810835882867 -0.4617472449488112
Ni 8.528557137589052 7.684266290367316 9.437849038578056 -0.34478133438401265 0.47403583250817716 -0.15777883081610244
Ni 2.0404992900748167 7.169206614536511 3.039104158782195 -1.6069003950356326 -0.12474966827527545 0.2512116912559674
Ni 1.4390124931385735 3.015839453139573 2.784039430690302 -0.027314628654552957 0.9421869241008032 -0.2360676365256773
P 2.134803641819289 5.293156098214216 11.848833020266929 0.2614634508909626 -0.5472991599787027 0.10914795718227654
P 0.3418625424038746 8.75857227224882 2.98582627767184 -0.6996462782562725 -0.13539506380426358 -0.3936693183339672
P 1.8762636649160578 1.8336895501446244 0.9982035933112956 0.34157439741094076 -0.2069699478287726 0.07186130491667624
P 5.510271109286297 8.089980737598177 11.765619809262216 -0.08441394477070624 -0.8591770587664752 -0.4511702407639133
P 2.550072706448789 1.281681028951673 5.6648955863324195 -0.12374076739478689 -1.4752192897478464 -0.1283283867654693
P 7.477873580294485 5.1527560462361555 6.496932242878867 0.050054236343913795 -0.037772590763083334 0.34380611495493696
P 1.2362155071692065 3.6545253133523796 7.9862237090868655 -0.7879641860670752 -2.044644077980995 0.6190457936943854
P 5.32300616867107 2.0357266150405793 8.847082689175028 -0.08548429501674955 0.4712508135638723 -1.2997895786192002
Ni 2.665756788880613 4.976936258372936 4.127724458834346 -0.18571489510473824 -0.15276826497538853 0.2907128346743832
Ni 0.10833508961211458 5.7193791470970545 13.14659101358636 0.2914988209107883 -0.718330227819021 -1.4737259930317717
Ni 8.665166851530214 3.2892349602950044 0.3912926280303157 -0.9816497580821159 0.21848823288101726 0.8954380979810385
Ni 3.7432970689892016 3.4770930100406994 1.6861008301586833 -0.8808866825294248 -0.28627742461084893 0.4627576884911966
Ni 4.044142408089122 8.284863423607856 3.1025279129556242 1.9504434861371698 -0.2546726532213743 0.13959264682537895
Ni 5.750359831833864 6.504479556564078 9.0575910205735 -0.44989883025065747 1.0352163784546624 0.9846029271731689
Ni 6.85095722938941 6.2313713366437185 -0.10534081523626561 -0.39317926607142606 -0.9758830308016677 1.8376787581379126
Ni 1.6936323893826153 0.39309697721316245 7.684160642803452 -0.854135896798142 0.2525270676332812 -1.4590048847715131
Ni 6.460848966153998 0.3523503799499849 3.210548840075194 1.002128594761758 -0.9274699296056027 0.21316553511652322
Ni 8.691550940505893 3.877701158351434 9.854009620369292 -0.08608516182554206 0.41904430676364607 -0.18222590811487327
Ni 6.60794929784032 1.8991076337692538 1.3365269423257033 -0.46401367238548474 -0.8432722146107605 0.2546310013501615
Ni 0.535100277309521 0.9498642724451065 12.753583929475782 0.0758269744326436 1.5107899877636046 -0.7467272909044753
Ni 8.574903055737057 1.9288186942736543 2.4798059556825804 0.4617760413042176 -0.18296072939836877 1.695203647558416
Ni 1.0699781386951166 8.105095753094957 11.236744397623562 -1.2163359408792342 0.06380809559489656 0.9522077986719149
Ni 4.892659157865445 5.9066255530519545 2.921710253935192 -0.1246483668107208 -0.09514238693180388 -2.177860131856068
Ni 0.5365524679461522 5.656657856550024 7.960492966887719 -0.6697595179991691 -0.26456394419315726 1.1584699218003855
Ni 2.815396369031752 4.765511388021286 7.042490702277976 -0.8369519288196876 0.8523482087700998 -0.775093243641678
Ni 5.609283264753862 3.7502661012722047 3.203509376082947 0.8037268482179708 -1.1988668375601934 -0.27157302852113874
Ni 6.285186722903559 2.415103309946579 5.4293358080357885 -0.42470407615258465 0.6897459884234249 -0.21946525208230588
Ni 3.505265693737947 2.6098284513434775 4.20941875442525 0.6419926322985459 0.12156432856875837 -0.05387618119316528
Ni 4.687499002704367 4.147148782857185 8.339285819993412 -1.324898972092318 -0.3514446053368012 -1.0133350050005387
Ni 6.749201944193429 2.0336136637632856 12.486799735659043 -0.4044417263591228 0.1425041640452191 -0.6823242420380571
Ni 6.132192369233208 5.426994880436472 4.75505783959678 1.493471293979499 0.30641713278351745 1.5742952074061016
Ni 1.5844817747161066 3.5882639026828658 13.137829679649723 -0.24650323003670452 0.3125535846985585 1.6511904752022593
P 2.140901545066917 0.5983043957580738 11.01577881086852 0.8471504666192441 1.8195794774340404 -0.9794784614624099
P 4.9773532882302955 3.4070041920136314 11.848263079461868 -0.22421407962120096 0.03228688505816375 0.926586755669701
P 8.387397164537578 2.1712057147017854 4.848769082210785 0.41184804612552295 -0.568716192201898 -0.041589650516328375
P 7.610553946246293 5.737320698293722 9.69662996606554 0.8326944390949143 -1.3357482561019962 -0.40092317168290303
P 8.72821249863297 -0.10627959578183509 7.9777459554532335 0.3146539188710129 1.9392692146879051 -0.3276235916578035
P 4.9482353368563645 1.6648109925739176 2.832339828769804 -1.5518703027436822 0.3843796655019251 -0.5220498984936106
P 3.5182028866462884 6.275854521428846 8.7646562745012 0.06944909593075782 0.4615952927519792 0.02681326353810221
P 0.5776586376196762 5.280867618417325 3.4244749628379902 0.3875922589019518 -0.0907781964258372 -1.1521516928918416
Ni 4.572899197901681 1.5066640033326228 10.709565834137859 -0.10571604868259213 -0.08299006783998611 1.6050877673069261
Ni 6.883874786130405 3.3460158922071876 7.81285234985286 0.8734983604851537 0.33239015980851144 0.07247399880001067
Ni 1.664477368688029 8.80695700303281 0.7073919925794703 -1.0322912343880675 0.8967552741305653 2.433792625626473
Ni 3.959114653838382 2.380369356493524 6.723187621691276 1.3608447940593078 0.5295819452045977 0.3412067296588769
Ni 1.6763210166370694 7.5970699808583015 8.922618843872241 -0.44053178721346065 -1.0155605518969477 -0.37212013140828176
Ni 9.168966721212282 2.12576799490981 7.001514275226742 -0.8309095792803495 -0.41774538544656437 -0.769828652808629
Ni 3.326276478958787 9.090361226764895 12.655681073428797 0.8988926321885421 -0.7464398415710435 -1.3394041076870289
Ni 0.2453210571579172 5.386283499027915 5.639924765206684 -0.029426532791233192 -0.23272083154063145 -0.723908750348063
Ni 5.181994472902214 5.8254900774699125 11.638351564125932 1.2321759932352843 1.9565308299818303 -1.6584245310568537
Ni 6.7888383153030105 7.3651643108451665 6.571885482508793 1.7688508407309211 0.6523572633623217 -0.9800263635460797
Ni 3.3075472046982153 8.010578252756723 7.0158378607275536 -1.0646272275166115 -0.31334445603097005 0.25628627756539735
Ni 7.845740251137332 0.011570261709215145 11.448812420688563 0.191832835077018 -0.6596257719992769 0.967132024081915
Ni 4.099978072324622 6.771017239398469 4.897246486296411 -0.758307796653223 0.7730376466642299 0.6031936571534773
Ni 7.678566882316723 6.820551119122742 11.487536886510052 -0.12593906059768634 1.328181756608648 0.3533626482951205
Ni 4.994507116363061 6.15224687170717 6.947639578053853 -1.4645250432587937 -1.5702701454071086 0.08953789626083289
Ni 4.709963011020858 0.07897618765392989 5.520835865672765 0.37343447934433105 0.5373554185024294 -0.39576965250642165
Ni 3.859083092052825 0.33628082944635734 1.3276812756845773 1.0183483990547302 1.4254041659979322 -0.6101975992751363
Ni 2.5255606181661503 4.5428637808415555 9.712743999753954 -0.25958680269354006 0.729667250098395 -0.6275564022685579
Ni 6.094678216731084 -0.3184894089983387 9.820262637578656 -0.610914937057135 -0.766097725011287 -0.5552973476928308
Ni 8.308541452175774 7.094428527446678 3.9390536642333056 0.20584920396076806 0.48153754020186096 0.6125380744828548
Ni 6.474573882126243 7.593659603358109 1.704139688322069 -0.12198470393562862 0.6658545265178081 0.7071117333953822
Ni 0.7106828215205534 0.39438606283891486 5.033112960358454 -0.92938411590918 0.135819810046508 0.14194880576238134
Ni 2.2407755622396937 0.5409136735211275 3.004095892356299 -0.4696490162943911 0.849309421943776 0.9024296988075232
Ni 3.3397141076959613 9.094837347233899 9.326287991336002 1.4665037642517196 -0.03648883895465329 0.40954176658984953
P 7.03955666554819 4.665136935019676 1.7525763161549757 0.8790928238537957 0.5709363397816684 -0.1019504109925728
P 5.262082740175772 8.454650179534594 7.615596300588291 0.47525196430346534 0.4856705885336281 0.89312153403272
P 4.451330360815991 4.3461832327801435 5.632736097198804 0.16180517836667618 -1.123590079204065 -0.7603052866992261
P 3.5324560404378564 6.639828913602995 1.5218577911357931 0.09927723503578385 1.3649457036015589 -0.49591746307261686
P 2.0482653127518873 6.7261262920861435 5.754293813488299 -0.6415961681910757 -0.22348311499244736 -0.2597269278158301
P 9.176093298108066 7.913864395169723 13.155326398998538 -0.32869574167605975 -0.17850835005396998 -0.3864560884149796
P 6.112610500597589 7.59137984013787 3.963224714765925 -0.1510844495150624 0.11353580183732705 0.5773828667379605
P 8.644908467792654 2.749653928851398 11.827646050046978 1.5318748334583618 -1.4129823952948117 -0.9932184367563217
