# total energy = -381164.37938915775 ev
CRYSTAL
PRIMVEC
9.23468868773127 0.00000000000000 0.00000000000000

0.00000000000000 9.23468868773127 0.00000000000000

0.00000000000000 0.00000000000000 13.51590035114059

PRIMCOORD
 96 1
Ni 4.337727068362044 7.078979676088322 13.170095183384301 1.6810965187330726 -0.09991692550231179 -0.8804701638172965
Ni 5.034391961005194 8.64478573655882 1.337082221731153 1.7033041651783636 0.6432856400783566 0.28740356779549214
Ni 6.708779487643484 3.7773384723882346 11.757589567642365 -0.18539582120242265 1.7911520753312828 -1.9330790267167934
Ni 8.690515913499024 2.4812407212302467 2.4910479603074873 1.4328462240982742 -0.07844435745083264 0.7575485498896953
Ni 4.960736086353527 4.23268248785017 13.257543065156364 0.3033986576721678 0.477966535021151 -0.009621325139847946
Ni 8.48657705494744 0.0005282241762882838 11.596709290677834 2.073522708688558 1.6230919171938303 2.2641363266464944
Ni 5.244231785442234 5.459224566004603 8.322267014712397 -0.3715172077169601 -0.1938210691516404 -0.06496277802463006
Ni 0.9480238761115197 3.735865486798887 10.479485606825245 1.1134334503860372 0.28504843729975426 -0.07803786604103334
Ni 6.5468307572314615 1.058276820879104 3.5259065348815306 0.9243786922747887 -0.469210900315708 1.699897967710292
Ni 5.424197392916116 7.304001328249451 9.433206493111069 0.8564421763338154 2.848148525775514 0.870877635032855
Ni 7.232377085045046 5.20737614405121 3.1102384346469547 -0.49984508026179725 0.07364076541460221 -0.885121803656695
Ni 8.92314694889899 2.96254344577516 6.73413517157416 -1.7447207804519371 -0.2626813824584638 -0.7029169785877443
Ni 6.944430266149156 6.12511947691012 12.331069257887263 -0.8001368168738672 -0.6812816597061557 0.22986999235539768
Ni 2.4508955351588604 9.061611866718335 11.985602335375168 -0.9668386612112123 0.6512190359928204 -0.36167579614650613
Ni 9.166859610374935 7.222966937568861 4.751406940184821 0.8451882006865509 -0.41637215924812154 -0.7294325083797695
Ni 0.2544562979566064 5.029774616806869 3.6366286018196647 0.13688784629970618 -0.7555394898794665 0.25697944697768
Ni 6.214160342430604 3.1237903398690365 4.861439175899727 -0.03707556469605873 -0.1485226023251571 0.39909177490111913
Ni 5.131328485104811 5.562376035395165 10.90881827548034 0.21586287944302826 -0.4956246144225464 0.042052449085359836
Ni 4.730256733349978 2.5491710890759913 3.370459948569589 -2.80914206260533 -1.1711356901935122 -1.1928658827817522
Ni 3.5304860168574286 3.655726860892773 1.4227376504854248 -0.4959120637559781 -1.0785142699113488 1.0017136187115265
Ni 3.6753228696704605 9.116826068641895 9.991088794654026 1.1878218925999413 0.2899404752847329 -0.4013864844725668
Ni 0.3005881838420631 8.41102806917446 0.9803665252831011 0.4301776976726462 -1.190372426935937 -0.20445823715051237
Ni 6.595534503835385 3.083342404691717 2.0503215331086064 -0.7681713197108642 0.9451768599670626 -1.7537083286625281
Ni 8.378254160054757 2.3089122010603926 10.15423895802645 -1.3500209639709266 -1.7710249655641048 1.3178068411322272
P 5.730050272613108 8.56651251770883 11.932458550590136 -0.3522326484557354 -1.2076823789692943 0.8392648932235804
Ni 7.372605828348151 7.951186760463359 13.610376498602465 -0.09169608025441627 1.0997726650694932 -3.500394203260636
P 4.267192518388445 3.6351242710798504 11.203923824821315 0.07514948874964476 -0.708024989238271 0.9894507421837733
Ni 8.023762176572617 5.2027218610993 10.094444350658152 -0.4503659996950631 -1.0857439548905687 0.5603446803087512
P 8.83790154030953 3.7615009817879828 8.782929287221963 1.2132866125299493 0.8244350272995995 -1.3543540441286417
P 7.856466561578936 3.445157496072398 0.08971038042924008 0.6418113695256753 0.37331286616480225 1.4798403334596255
P 5.174288255526019 4.7226565847995365 3.0176948518176236 -1.2954870945891044 -0.7116895825740517 -0.6793281355242107
Ni 1.5557956582485322 3.742089666778228 5.245034279863901 -1.9249633395881944 -0.056937593727308396 -1.3011648617001719
Ni -0.17490499823251912 0.9144751766353361 5.386315777644225 0.6984049496500037 2.0536959037706177 1.0215422234016793
Ni 3.7579640961320666 6.500057060502439 5.017223751806985 -3.1355796043748323 -0.03939624240943538 0.8237179466279169
Ni 2.6883747819670685 4.670037330315434 12.231268133447005 -0.06705334200507161 -0.2325223423765802 0.0818613535521816
Ni 8.665822356726384 5.7946838567012495 1.2177109456407182 -0.06632109182473739 0.5652377467349943 -0.2698658160220449
Ni 4.846170542104708 1.8346370743853282 0.6444067144753559 0.5062859507911346 -0.5154606753118671 1.2379324361030875
Ni 2.1653866739996843 2.7698616723790934 3.296487324105917 -0.27584697330614427 -0.5949905525173946 -1.1289875960705524
Ni 2.66563897913452 5.243502245058898 3.6853803688032505 -0.7002165489374457 -1.1508324598597859 -1.93601934029204
Ni 6.813648609075822 9.1801852657313 6.254279522701001 0.41064528406667344 -1.0076726645084388 -1.5523274448857587
Ni 3.1511619562767024 6.6664292066564546 8.69600870615735 -0.4569477666776388 1.136100810076566 0.2577127255992787
Ni 6.9795036126796255 1.8283482515872105 12.545647400940624 0.3564472007577152 -3.1337885739126805 0.7400653055032674
Ni 3.809447483943381 5.8553280554020395 1.5742234789440437 -1.3174841676854858 -0.04960609306290166 -1.2223713484400367
Ni 3.751019610457787 3.7722132203280947 5.2628212131846865 1.4319447953299274 -0.6310019376149971 -0.34395009673196897
Ni 3.3377765393961716 7.1086969033487355 11.102393043244364 0.2531780709537188 -0.689630031670851 -0.3627237777950463
Ni 2.572377861016769 1.6188778146860365 5.41925406421739 -0.07038986257747232 -0.5421001322762664 0.25493284886129647
Ni 8.503947503821536 9.240229209686307 9.210044707193022 1.626782221561224 -1.456967285516194 -0.960877558531771
Ni 4.63852857350607 9.112014795987243 4.287959485654827 -0.9898618615792629 -0.7504119388449141 -0.6798922355577969
Ni 1.3903562156225775 8.21356272718893 10.007699228673077 -0.383627617827249 0.8638412970113639 -0.8219397716815716
Ni 2.766112388890054 7.845791261792411 2.6175299464633413 -0.10232322095095925 0.2942684132361255 0.7544904797896619
Ni 6.7220959083114495 0.24094964270766855 10.318416018748584 -3.9411810439076964 1.2818923866238054 0.4480247531563961
Ni 6.943312868853161 0.7406118512539588 1.3846768822586386 1.1004480938699628 1.9635417140820248 -2.0004822958621156
Ni 7.179877881510101 7.958445225543124 2.1729240266690284 1.5468149997079619 -1.0580799133163972 4.417931190023243
Ni 8.977289926968538 4.929661359898804 12.390295931919168 0.3741009092837363 -0.1842845904161149 0.4070462538615055
Ni 0.9816843153173027 1.318159421737581 8.193622264534048 0.5828564882580219 0.4602038117210913 -0.13605995108177213
Ni 1.2418162527624894 6.095780871873968 10.91637317405764 0.038460875079359566 -0.3372348894953225 0.5141023615117598
P 7.8934884273611 1.1195951518328489 7.5721480517540884 0.5957384864270128 1.210635033839715 -0.2763398537821628
Ni 7.707104711451547 7.333718555509865 10.592613310090707 0.20203831485511012 0.6187364899840828 -1.3872379393408558
P 3.0975545901341586 0.8954221675353712 2.3946525889479133 1.9676264256743599 0.16517075240479942 1.2143227671039474
Ni 0.7515900488198942 6.097461585162159 8.7776987597141 -0.4935823871815371 -0.3849489077418338 -2.0014629146078304
P 8.081903774717915 8.82401256896097 4.216244742504136 -1.822476853586494 0.3805926876556671 -2.0848880131027063
P 7.310567191699468 7.38685495254418 7.868794870588462 0.2919397651029489 -0.5615446141541232 0.85186869803052
P 1.3277819670468884 6.281638210544912 2.230920640206499 0.14933352826222668 0.0002468259034834459 -1.1550724660830622
Ni 0.59609636559713 5.607746059487898 6.227572803857894 -0.6525806922270374 -0.5287144549979799 0.7699021863590418
Ni 3.4023177766003463 8.987254155748523 7.702671137552315 -1.7572356250894963 0.3025715337851821 -0.8079629977865054
Ni 2.872403652335476 2.396623271451758 13.018000788960345 -0.36130324329843583 -0.17182271050367826 -0.48897265632366754
Ni 1.677084055650111 3.636287841817828 7.363218767592958 0.3861683819712317 -0.28850502838978703 3.63820996069125
Ni 7.478029031084289 5.798174568915183 5.219542846013794 0.07771622103555646 0.2172456187231678 0.7973407421859687
Ni 0.9044222948467446 0.26453503687270835 3.273009975795118 -1.1875223590816517 -0.03548148073606148 0.4190651326992525
Ni 1.2050806623206223 4.202632811807477 0.9692599655484522 0.3840081410951193 -0.3437068703729113 0.1906634973592652
Ni 3.3471497481187695 4.201847863293761 9.354449376589091 -0.12716727657783258 0.9802513350726925 -0.22468510572034853
Ni 7.648843062357092 5.022516151727104 7.520274036623596 0.13083752634056822 1.297496154599333 0.35756485930192616
Ni 0.5298984252945962 2.500079485559409 12.697255127286079 -0.8705048250744685 -0.4466805804236759 -0.22538830243496022
Ni 2.688568710423398 2.0555585248983457 9.88293397109016 -0.10441635603456212 -0.3314789608481517 0.4217748183209317
Ni 5.193496407391047 7.6875456414274455 7.0887518233496545 -0.14117464660051818 -0.6896930236983027 -0.1579824621864763
Ni 0.23152194932353032 8.494768223555269 7.0914141840144085 -0.388026518225893 -1.4052333474770122 0.2708814017707528
Ni 5.663782148678759 4.885417967790462 6.216313871764701 -1.288478267371439 0.7037477020191557 -0.3581582699115509
Ni 6.273853368226537 6.090240058835978 1.0548285882317954 -0.8594452248261973 -1.0198671496921015 0.019439596781850393
Ni 1.6903450681876981 8.616250549413177 5.160181345531299 2.301795788870481 -0.31026504577469793 0.9396988675716267
Ni 4.8713258332971785 1.2330710028508634 6.088426366034877 -0.3667604097582651 0.5420782778993954 -0.927584600806596
Ni 5.488101436620923 0.7560845716625431 8.32787616444452 0.5860932500277648 -1.231841492714001 -1.2496093582203833
Ni 4.682282527129391 1.2937983137472227 11.949204734528617 -0.5517916485324175 -1.6672315878255224 0.9741292813353546
Ni 5.112138802616576 2.0963666129231346 9.987749531329799 -0.48976738431082106 0.07747350889713109 -0.15137909793734575
Ni 3.5446058554159037 2.2514262657912565 7.6180749275571396 0.2383551470082734 0.40756510247945293 0.34549352995968885
Ni 3.297614879559148 5.120015991818916 7.040688964120459 0.21856459464490743 0.5611417222887497 -0.5978136237884866
Ni 3.138196453767808 8.983274005049568 0.4815853060098511 -1.452082446620067 0.6415084935732758 0.3872577583806685
Ni 5.148338781131438 7.063502338335539 2.8558153815685765 0.4338847142105882 -0.6572588144289971 3.0217848924491637
Ni 1.9550481763892256 6.638152590785917 13.181516645993277 -0.7090120357418885 0.8028747846303205 1.4641463197631366
P 0.11548901308848386 7.388637247404733 12.22472628018682 -0.40322996543920875 -0.5889356045725663 1.0502485901974365
Ni 6.342347052064478 2.7453989828163716 7.1761858530891205 0.331815518251964 -0.583510319791937 -0.588213381694561
P 5.537737886752907 7.1038579266288915 5.07600439038933 5.407598676203512 1.4141015965009196 -0.5490385112673125
Ni 1.3612854165499286 1.1717619065855152 1.3620786762832007 -0.7330839890894278 2.495423768174709 -2.6649461126799845
P 1.1034621512039042 1.1335487660001844 10.939553165402065 -0.9533851068094676 0.5401103555397472 -0.28916065969591487
P 8.215760583027333 3.399889053552028 4.664742159988797 2.0366636308786794 0.5588115314936764 -1.0234260706879534
P 2.169542283778176 6.972097392585514 6.418660670036701 0.0472321935140864 0.6926994146247941 2.070448954859241
Ni 6.214686719669212 3.696220969512076 9.134288864399958 1.814991858063358 1.0477852162586083 1.4979172455659944
