# total energy = -340895.00571992877 ev
CRYSTAL
PRIMVEC
9.03679304468242 0.00000000000000 0.00000000000000
0.00000000000000 9.03679304468242 0.00000000000000
0.00000000000000 0.00000000000000 13.22626007393853
PRIMCOORD
 96 1
Ni 6.6138752110296 1.878044406150428 11.225590181703188 -1.0650532593104367 -0.4401471501805323 1.503489083226817
Ni 4.548651710343494 0.2700681751478092 6.1994921618410235 0.058453259040886434 -0.3377488530172635 -1.0463672528651593
Ni 2.6447801496436054 1.4671504627601524 4.75703563978131 0.5811976124983603 0.7333495840459887 0.9940373331131912
Ni 3.260258050992324 4.2660711915325695 4.8070316973547484 0.42421273833846296 0.32490722116790494 0.03527913491726828
Ni 4.993442664480804 4.466136752963815 2.6284678345011177 0.4897959235559113 1.151163103726327 -0.3656088126523252
Ni 7.248709923100832 6.146781451634044 2.4604151124650655 0.5674514665568614 -0.8242303674879612 0.6461927864228225
Ni 5.115077898992957 4.812562214704038 11.345314134484337 0.7443600762238793 -1.044545369165072 0.07732129958998296
Ni 5.583201852796715 7.770828715404598 12.583384604353498 -0.4928349674925513 1.0474730843348283 -0.8736600828739985
Ni 1.8424032943438948 6.5202540349860705 0.5637458758295301 0.3795177094239335 0.010892221432471563 -0.5879999801321745
Ni 2.7817598587621215 1.6473531530578385 0.35678885601500304 0.12699449844539418 -0.011657638843586376 -0.2885893605734771
Ni 0.5522384235540637 -0.05252274491144778 4.624045674796309 0.03482147855455939 0.32075514667274435 0.22135064203047683
Ni 8.375381133950553 2.3231877952168594 1.4407630270413196 0.31715148848188607 0.5360773231209542 0.3256698103655424
Ni 6.883352379911652 0.733153213144436 4.944386433385022 -0.5007737627236537 0.03078741769450181 -0.6273923658868679
Ni 0.7148645513609518 7.46284577131777 2.5879820979381236 0.9818148229050705 0.5931902660838623 -0.6374242962015731
Ni 7.73079572217363 3.750377559090478 3.8350071260448853 -0.04983337858235934 0.22288687616934516 -0.7721709277885606
Ni 7.5138675049028825 4.027635406792363 12.537766873014913 0.9748453335657727 -0.27086623226210127 -0.03179117636866783
Ni 8.138156279479636 8.607554421104064 6.766105412106712 -1.2422115230944153 1.0852659868128856 0.8104263717253333
Ni 6.93339813984689 0.7588095723051682 0.2567361943546606 -1.2361743157614 -0.4706651162637313 0.6076090126123536
Ni 1.9062843844454114 6.342635867501942 9.139239562535211 0.8815153172523592 1.0549449672318412 0.42462514328553314
Ni 0.15863638367337282 4.674841488555062 1.3139985087914918 -0.2867206827958546 0.5405862667349013 0.9955838516647049
Ni 6.2175305044569 2.053584111232046 7.016200467245699 0.08868300445970533 0.0831474193534568 0.1663727431327006
Ni 3.626166838557822 4.382293387005141 0.4023225451781819 -1.5240319403751752 0.09707328540592959 0.13987443973185587
Ni 6.115197859908934 5.620568992076637 4.5866550398544454 -0.38902950556911065 -0.12221995987488629 0.6047478890144746
Ni 5.204289120025942 2.7660810228127466 9.424464246993852 0.16452823372479405 -0.025582990675426912 -0.8096601829832701
P 0.19926038317009903 5.6532912197266 12.548334498812723 -0.3431054893434865 -0.6510652840237755 -0.43679006078284127
P 3.8282656784263063 6.27195910902352 12.647319915213341 0.3159893498529848 0.5944634763693311 -0.18288051097973665
P 2.253767150972999 8.549854497451753 1.3640641496714498 0.45977598015505333 0.3788296822179734 0.5081255751030346
P 6.223802038836651 7.704706500625592 5.913567125920667 1.0190773068009544 -0.09829250252501137 0.23764783652860363
P 4.766637232401604 1.3320594433900053 12.706269627345076 0.1416724121725431 -1.7686914323349214 -0.9925044414084326
P 4.077364878970698 6.081797872779892 8.20444748228876 -0.7173200413869517 0.10347970315290565 -0.12347594376917442
P 4.842031196854419 1.118312177274406 3.938951934473755 -0.6602847457395145 -2.6317508568749384 -0.15930400921137725
P 0.2623263545381092 5.699821667163679 3.5383418615793816 -0.4058064679171334 -2.1189996100744346 -0.18852742485286886
Ni 1.59858158094327 1.3052111312253984 2.515488944055769 -0.5907428329846341 -1.0251070579348023 -0.5323834192091347
Ni 1.8176244077887445 6.612718501518638 4.767775868326457 1.2877362469990918 -0.07167798526127654 -0.25074426470124556
Ni 6.094404199090771 5.56542648085872 9.069881272163427 -0.7162296365362504 0.3548939973379824 1.1683146758049492
Ni 8.719249183256382 2.3260705322012116 10.114769505870875 0.021029566976789586 0.39813815273859815 -0.4780259275041767
Ni 2.488868359076133 5.067589551492112 7.046105022821301 -0.6847382507961884 0.5409163963808103 -0.16764723896974998
Ni 0.5565290928962905 -0.06426786484424465 9.112337933291585 0.6953026565755961 -0.18007620876172212 0.5742458637708756
Ni 1.4449651358116136 1.2265819948591095 11.394674001826747 0.30062572291272094 -0.6964437121585748 -0.09564503759983528
Ni 4.291762794186214 6.812811173329047 1.6396592274513269 -0.5324068162479024 0.8311931719590394 0.656288737206244
Ni 5.438685458270833 7.769184019068699 8.14852690318886 0.33305299020349094 0.32201987231778095 -0.3624003330173566
Ni 5.252102792076745 3.020773998257808 4.610595312014148 0.6560851058358701 0.8207732621772961 1.5863493103571582
Ni 0.9618852895028326 7.317751022036408 6.884996172568246 0.01298715628828731 -0.6598653988139087 0.7723922997707472
Ni 4.957358749814606 4.427368910760461 7.104114908475378 0.7093046272816429 -0.08027703978419723 -0.3836913811856488
Ni 7.9724847524134175 7.257764789741336 8.959177846209174 0.21833448091197238 -0.47677380026463045 0.053065255256095706
Ni 4.5128479362619816 0.22721479880456377 10.442119201152577 0.41992413826543806 0.3743328227888843 0.5792975672621701
Ni 8.166098043603824 6.997514186567821 4.956937635258271 -0.17125732491851153 0.9533992478768548 -1.0021288518720741
Ni 7.314696585984023 5.818519943933155 6.914199473002828 -0.38651959466306335 1.0832283875575668 0.09811072553150844
Ni 2.4386689736589697 5.158725609445684 2.59131577089589 -0.5615523274636072 0.7634739142351948 0.21418883417471501
Ni 2.351075338582721 5.109682933539483 11.548244359313825 -0.39111569867417806 0.4616310310859211 -0.3867641065737017
Ni 1.1883925074112374 3.246666714238514 3.737952872319991 -0.40063623657010355 1.5068325457777534 0.2741256197396634
Ni 3.736054242099262 2.5789561490353945 2.7791545513245395 -1.4895521614307508 0.10667686993396468 -0.7704516311046087
Ni 1.0898643527391714 3.257944631970399 8.05206817412625 -0.8452524782655831 0.42303980107628436 0.7031393790111955
Ni 3.664211737316824 2.490296172378727 7.161001520752793 -0.9901526533468045 0.05249009947891606 -0.5793376764714862
Ni 4.203617914733647 6.689467984929612 5.87952191176754 -0.19722443840623452 0.7487391791281814 0.7992904097131718
Ni 0.8454814544898683 7.299984686891468 11.300860342091157 -0.10603460836427546 0.019358607032269885 -0.10420989645071085
P 0.25347662309994035 5.514721035030512 8.074380919856857 -0.7500062187660631 -0.11516099614557586 -0.8301601027088348
P 8.459143168771737 1.499005158276894 8.070016148811584 0.1108842231470929 0.47782538145759634 -1.237133851461192
P 1.6920581682979292 3.2628425738058806 10.329854217358525 0.8706755463243779 -0.06719989488526491 0.33086600985450115
P 4.074825540122413 6.098046026691693 3.8082636406797095 -0.5482409550666816 0.612162693421307 -0.7257985111716081
P 6.954399646905304 3.7841299811486424 10.366953867564037 -0.5857212114003268 1.8358309062958964 -0.010748239655439553
P 6.367866593709811 7.963728099943709 10.343927215182132 -0.19831972835294234 -1.4383913222862195 0.5961112963853992
P 2.452233200033617 8.55319811088188 5.78818162229094 -0.11977381232723887 -0.4754548243428908 -0.13928771399045045
P 6.844629721673571 4.137504736747696 1.5200012432594747 1.8730779635728128 -0.2305107112631901 1.2291048105091282
Ni 5.4142409330586965 3.1128950666543087 0.3814068876537853 0.37053890296409087 -0.9862504900789207 -0.9548953728064071
Ni 1.3271705383475776 1.0418428344481174 6.981600393999032 0.2896113740800883 0.23472114980011188 -0.3491493815447213
Ni 6.820185196461432 0.6516548949833769 9.14286422022933 -0.32629895930910907 0.13567762804168892 -0.23092568731342164
Ni 2.6984406268006014 1.5764775851322204 9.293669319041765 0.12323914516802001 -0.21169203589479024 -0.3194917065792885
Ni 6.112604300302324 2.1202394968012617 2.509736121597341 1.404405452259078 -0.37813497014379394 -0.3340004417184248
Ni 4.114704907871458 6.665890991850697 10.382138390933337 -0.02142166020888569 1.6082198851780047 0.016948712039196616
Ni 8.262891134009447 7.332517141887289 0.5039973111917883 -0.1863165332444791 -1.0632630001792334 -0.8563640147977123
Ni 7.436584850701699 3.892092547769497 8.286066893476749 1.554227490121949 -1.5048186006715178 -0.5395385421966773
Ni 2.907199583150175 8.430225430997675 12.451016370730642 1.0033470405498914 -0.0647995129738884 0.37284363983786756
Ni 0.2524048594436892 4.976570971848249 10.260509482176321 -1.3005238856820633 -0.7974430720917879 0.052920245037799185
Ni 8.422589340866711 2.295047221645474 5.980649951801356 0.8385380423598848 0.9927368691342129 -0.38548703963349096
Ni 3.6777488533123073 2.870275246729918 11.342946494704085 -0.22481751753315476 -0.8807162183898316 1.039802712273764
Ni 1.156203450551483 3.268318870396844 12.648748632195241 -0.5598160614987907 0.9992993528430789 0.024798289990602452
Ni 2.9074616501487527 8.428625918627047 8.05446202060636 0.7808715408863519 -0.3394424386696025 0.134937921662187
Ni 5.740631824597326 7.947986006442953 3.738389349424518 -1.027231817587289 -0.06033967743032189 -0.534119428063635
Ni 3.149078386044105 8.426592640189808 3.570177579830709 0.16896724333275417 -0.7412852939532975 0.11614007222939354
Ni 3.4194140502663246 4.305760786627471 9.366889934764997 -0.019341123530773142 0.04986577448219154 -0.49893465263238596
Ni 7.3034096314590835 6.18551314666518 11.3110845697529 0.1830167794472848 0.2909609461294473 0.27202759956005407
Ni 0.36545785159208394 0.2266319256525553 0.3041811652488439 1.4329706654912806 0.497869187482349 0.36794825941877923
Ni 4.394962970867402 0.3447599807802982 1.676997448993475 0.8788619387899121 -0.27061786369672103 -0.5892335954289594
Ni 5.797337701013653 5.620162336389189 0.3128420277121759 1.219818757221512 -0.01555208880198612 -0.026368719801515873
Ni 8.137243563381142 8.86873581396218 11.313743194269504 -0.2635550433126687 0.1936513763429955 0.10098187643171641
Ni 9.227921227495209 4.967940834481301 5.6456027161959215 0.34900977064306343 -1.1865057448916791 0.5773682114499411
Ni 7.880571530257168 8.759743052933127 2.74295406202794 -0.4703825520263061 1.4694343076349532 -0.32502497769269184
P 8.66800152984491 1.7144694150728284 3.6364281170710875 -0.7712193625085686 -0.9395422873891044 0.13225446129275287
P 2.014734937891203 3.3577469744631347 1.4788811238240622 -0.649410779139488 -0.6324579533352334 0.6105896925072323
P 4.706352785935737 0.8996362442269399 8.305721014690752 -0.111866127444388 0.6825427858067665 -0.18579151397894453
P 8.545995786817526 1.887045052032605 12.35995351080081 -0.6822422238472121 -1.1600151548003184 0.5432262754609096
P 6.383003222075923 7.84210190222461 1.42270932187725 -1.1841207895992703 0.5638889460165837 0.05613438109972268
P 1.7179576171918247 3.282389157182537 5.945429050871852 0.11266214098312208 -1.4589902294834938 0.08344900975427565
P 6.775959131253225 3.956353183179298 5.859167439091823 0.7660365327560484 -0.49911411563304364 0.8860862244524933
P 2.4512030056254157 8.44442223288613 10.32222264562409 -0.7597805245440076 0.20928471200487828 -1.0116709870345544
