# total energy = -381166.7702208007 ev
CRYSTAL
PRIMVEC
9.26805480241546 0.00000000000000 0.00000000000000

0.00000000000000 9.26805480241546 0.00000000000000

0.00000000000000 0.00000000000000 13.56473503268198

PRIMCOORD
 96 1
Ni 1.05582604890303 0.2445923023322739 6.159664942605534 -0.32359235901122335 -1.2582058416401427 -0.31240420360488774
Ni 0.530762024437758 2.304492510017376 8.496692031515908 0.5864321214244222 1.8166018828629553 -0.022850936456244517
Ni 0.6652229606785316 4.760786486445535 0.5776796972756176 0.24418563764712137 -1.2271605422985639 -0.7970764327809885
Ni 6.1616807444825925 7.209693823351781 5.695316870677271 1.2003573060627908 0.32938531154391654 2.223710357420964
Ni 4.7376719582552616 3.0861046272581665 4.0663144722322455 -0.8802127963908518 -0.8948467442539428 -1.0690482394024428
Ni 8.775476040904941 6.993989120424585 8.419277824993166 0.04694602973223528 0.10648275164528757 -0.9307069484856617
Ni 4.547537817989237 1.243151968623082 10.9973373564612 -0.05281688669071549 -0.973280303071498 -1.2689155147481632
Ni 8.253916267886638 1.3876687441126312 12.543187695776188 -1.296928197911005 -0.2382427898001252 -2.5492590688276096
Ni 2.9864174319034826 0.2883801531292934 1.4011287398186192 -1.2077021764636364 -0.6299153894190378 0.0007325072906503513
Ni 7.576940487160758 3.649769172356827 12.838248262666328 0.6964349704078264 1.3240278823412746 0.8221549730161711
Ni 4.310562929738594 6.417766361333213 6.704872156954022 0.02745372533557852 1.2995226981110588 -0.4632572538354345
Ni 4.018526529066773 7.845806751314663 11.75194328938217 1.7671600832920598 -0.28644171810285507 0.4887728816080357
Ni 0.8792056590597163 5.379753513385158 7.319666705709499 1.2789045076400751 -0.9648699675206157 -0.7656958615871782
Ni 7.994355130558329 1.552732796666269 3.079886689422219 -1.4632387203472024 -0.5011450300201433 -0.8412520988569383
Ni 5.480423122528202 8.18550875683114 3.862165179789265 -1.4943053598450202 0.41639144252183125 0.12964761979752512
Ni 2.8675082912935346 2.9684837462386153 7.708106629988684 -0.7312698186988246 0.16355429984729897 -0.9593541799087091
Ni 4.64108029313937 7.845102379164518 1.4143950331833175 0.37680365292688006 1.1635884739738735 1.350075728468262
Ni 1.1253364584567798 6.663063962621093 10.807715739614954 0.3519328578271294 2.0175001705763513 -0.7252416102268736
Ni 7.7931271289275275 6.963107962473506 10.565435816907168 1.8675020121469321 -1.020125802670127 -2.426367022586363
Ni 3.772181637608284 5.045816237834337 8.36086869124788 -1.7762569033870055 -0.9628845616594708 1.1753576986946597
Ni 0.363870311515587 2.066646424633659 4.754629717769993 -0.009810815442834717 0.883096288586234 0.2314134255831176
Ni 6.5749154952523305 1.7401050566593568 4.9836971018298035 0.37683013528944137 -0.5761014289223756 -0.20274382556256698
Ni 9.084324692634162 5.29970532574306 11.7361542315534 -0.15845940182289486 -2.245950656876403 0.8780726101193974
Ni 2.936091895386568 4.7799342872639405 1.1467725419576953 0.26879752265853063 1.629781156288548 0.01515485336356745
P 5.355638035297311 3.0368171128572548 8.381038758489458 0.2554195586897279 -0.6478629750363939 2.119823134416994
Ni 7.512842621497595 8.926174608817469 6.920524031969957 0.049064104516502595 -1.3848550409309763 -0.4998443089308488
P 4.958418482888756 8.632395813879501 9.75589256349676 -0.7314497959201145 -0.9468743022741435 -0.8835976537026846
Ni 1.5330937889536829 5.4986626539951065 4.891741317628417 0.8010207621407172 -0.7761659078805665 2.296001036565575
P 4.696586672181692 5.349891841440867 3.7354699465038363 1.0983883831274568 -1.407992655389704 0.3680472468904887
P 7.880098553361179 5.465047419934913 6.959780730869533 -0.18229404234864735 1.138994072463961 -0.02579947756160718
P 2.2000971429222513 6.307161397651287 8.887641744982714 -1.1183946510460547 0.1933960657990798 -0.35235040498052217
Ni 8.918593340148808 6.667540432996355 0.9817668781480828 -1.23809030183719 1.6775224282285688 -0.3001469835040895
Ni 8.690033845481471 8.287512965837617 12.448099309117579 0.0978052784759477 -1.0500470157095916 -1.1028299638385781
Ni 8.596704535587303 4.725428858119194 9.037355118690503 -0.539914180368541 -0.3481883031830326 -0.2139119263642445
Ni -0.24607519106942055 3.5463376829408477 2.798269435739775 2.0326429397550605 0.939213443294776 -0.39504742962841644
Ni 9.114214168742274 2.4486292952680317 0.6802372091421415 0.2559831445026817 2.3082798539329277 1.1914216941360578
Ni 8.88113186342664 6.898759859335947 5.306239304241112 -1.178187711944287 0.29546963263307824 1.2439333908815287
Ni 4.744762020029743 0.17405406552258937 6.114941945098651 0.615959698569894 -0.47001925514961634 -0.5790679677498671
Ni 2.7876732689074015 8.086646418336494 9.883686061253137 0.7204094789455529 0.4867411958899875 -1.4202496183801863
Ni 8.28884756570105 9.112508846694555 4.541378268897314 0.10092454083121974 -0.5115991354739318 0.37274928035184834
Ni 2.4476098092612433 2.6337864902100065 1.156151813220148 -0.7842785096853718 0.06841062736391443 -2.326395332586716
Ni 2.8593802074030497 1.676813511747016 5.453891462604266 0.3924632138410079 0.530496486599067 -0.38359959280279093
Ni 7.191333807174984 8.439750030814936 2.364712621632902 0.08473121890080891 -0.40341919863187947 -1.098311250032618
Ni 6.788349524800772 3.742505326756137 3.0157118989058147 -1.4029067562263644 -0.7194939091098189 0.8715882879466345
Ni 5.925159990907701 5.1189967970125245 8.29623235161204 3.0344388337677484 -2.5349045998781508 -0.28956740821603033
Ni 1.1331586965452283 0.2418387633084847 10.58457620328189 -0.8178895128715978 0.7414832688967166 2.42813182779627
Ni 6.922476811075687 4.87175290425714 10.736514836900858 -0.532726147260534 -1.2716483402982939 0.4763685944064118
Ni 4.424142938949421 0.32255981171506315 13.249314288657988 0.861964134593309 0.19429800878805895 0.20377972302624905
Ni 7.239481350859214 6.369526137102911 12.705327677101264 -1.5410580426195266 -0.877531907124579 1.3825539036016254
Ni 5.064389419267099 6.258318749871519 10.36056825023213 0.3889623997766011 0.583934037592917 -0.7193594404144836
Ni 6.134395591719094 0.7318037381709559 8.434226270269065 -1.6409927087336513 -1.4183128063687895 0.5891343508469338
Ni 0.3137996465003693 8.426904507129404 2.40985638881895 -0.03367990875094845 -0.1440159727040552 2.5095949174687684
Ni 2.6201995221559002 2.3006277312461876 9.926374720773746 -0.20639787737538645 -0.9945980907126678 1.3487207571022644
Ni 3.733913840135293 0.8199142065158284 8.22216947363525 1.5386908279389306 0.9867562260707458 1.0274742726153983
Ni 2.0676844467496616 7.280714925806499 1.5405601337452164 0.6393438818217893 0.3145803853206001 -1.581286294011954
Ni 8.549215023780182 2.9615419733378476 10.600242922789844 0.5493920379519893 -0.18338470430966483 1.0462435828031014
P 1.6256075100424203 3.47168350308012 5.866191993469602 0.3430702652301769 0.6507300121715438 0.2794819989555703
Ni 0.8232062195122939 5.805583550366036 2.9242315659057767 -1.391812446085416 0.35327805900111414 -1.7472985684814422
P 2.155925594664495 6.384809159150129 13.159488303405329 -0.07849192285931644 -2.0840007254017463 0.1411687330632472
Ni 2.022984619379297 8.368423082558182 12.596307550757164 -1.9104857147973098 1.1572992985310522 0.6539099525614221
P 6.323176596012471 8.129464830621604 -0.020670542190363742 -0.24568176257667365 0.903448884100657 1.258014551564943
P 2.5599942394277457 1.1757824796835878 12.231009032026613 0.04579880350166951 1.247665090009819 -0.48066953577461086
P 7.232400557139339 1.0975693668537085 10.598398579923018 0.34756815310053046 0.9727568264678602 -0.22010057167345964
Ni 1.528144647793456 9.686877994864494 8.457829224937136 -0.2946916168164731 -0.9649954373548864 -0.8688189527316132
Ni 0.9204744526145078 1.4214971434287895 2.4934560949865143 1.4662870202552232 -0.3659355998641246 0.745751043034135
Ni 8.44768348555867 9.041107754000944 9.272486590879781 -0.5333853781110879 1.232255183212652 0.2976735822629325
Ni 5.1642712437685345 3.4869479890181236 1.0014234951644225 -0.3424184905787909 -0.18528294977364218 0.06535692813925519
Ni 6.9417821688224155 6.403224783654569 3.8001062861396773 0.8685656990702267 -0.8688096967602328 -1.2630919660878503
Ni 3.3663427944150643 3.3796795249947773 12.484208576672563 2.7060323411973335 -0.657664534507848 0.29023203838322276
Ni 2.952922682553182 8.292564055598524 7.285334124222711 -0.680516499405357 -1.8976741648549382 -0.8766348492316065
Ni 5.048300076469058 2.646863715260719 6.5098787756574605 -0.956490485207669 -0.887299270923988 -2.0440897481394216
Ni 1.237313094220567 3.0972726330598026 12.276532789451554 -2.05859899749919 -0.5701310702715536 -0.4414234457897946
Ni 5.7596325356237035 2.1796054741858057 12.678645874692693 0.6327243196227426 0.2728287553051108 -0.256289619999507
Ni 3.1135195327861656 5.479366564302985 11.428953439933332 0.005879084488596326 -0.1103635747569325 0.0765373702361069
Ni 4.498797118810148 6.1002798827101135 0.030346391200245706 -0.4960848418884166 -0.26115697539413735 -2.8388447318760854
Ni 3.597024673587442 4.553478640992431 5.686010817046215 -0.555321773172863 -0.5976688706805062 -0.3211852922316275
Ni 7.594216140948518 2.29882046059779 8.582123105273848 -0.29455869078303465 1.0444440677005173 0.5656002722807356
Ni 9.372783624227617 9.58613424128459 0.5131712567933557 1.3979764088042825 -1.444372993790951 1.1662197409491333
Ni 8.359831595937338 4.672156080237199 4.742990894794313 0.6645126677779329 -0.18611752985979557 0.20571576370669734
Ni 5.351560091270158 0.9557866674732733 2.7412968504586 -0.6079661388414562 0.6870887533062361 0.3609769703072686
Ni 5.751513719787826 5.709121638014646 1.8058591236808221 0.30322202288498745 0.3437819465852208 1.0442190961739048
Ni 5.958395234729 4.60739091464232 5.347828772485312 0.6955769932829052 1.0613724680247398 0.7088580266625276
Ni 3.1874971446605698 9.100821829834919 3.8117988638320788 -0.690019810910102 0.05846971410111866 0.7264819103918778
Ni 2.4752008078267784 3.8894966728257994 3.2874809177626836 -0.3640412110548892 -0.33523945633184843 0.798260940007393
Ni 6.487147018122463 8.438387626787684 11.315430892661071 -1.691152617417494 1.7512372414142163 1.0997862919162478
Ni 1.597339943490562 4.322592864618696 9.861656822257363 -0.6662638461410847 0.5884995454764124 -0.2754625933835321
Ni 3.245135176262539 6.749006632993349 3.382257897786491 -0.08817752557819653 -0.1207343764682953 0.521856551535882
Ni 4.759813340711782 3.578664657410645 10.288566587599975 -0.46165365679374043 0.7537880544059986 1.004675786663644
P 8.405745538461241 1.4622487795365011 6.468072434935454 0.8521183521474808 -0.9492790550608943 0.08276458209274133
Ni 7.557097582246815 3.3438492258834707 6.553205077335043 -0.3953878436869707 0.8616167785562194 0.21536845630511298
P 3.2424289043172463 1.830394444642374 2.858686030112973 1.1968251245398163 -0.09090572314263698 2.097360948758736
Ni 6.930864400495173 1.1141962568189654 1.0806616548338543 -0.07421283586798831 0.061515957126610184 -1.9095143520229758
P 1.4158992384460607 7.655579930502568 4.524137833717063 0.5893773200956753 1.4890860204276095 -0.7788604239935941
P 7.740957249543787 4.944284699612826 1.6027005862753472 1.5385879838124792 0.21046253436306336 -0.9816705840177222
P 5.5440112451879715 4.487879350482906 12.538264505168861 -0.49675178604845416 -0.543047069570568 -0.6527413861746177
Ni 6.042762335818037 7.214012736798721 8.223322419628381 0.4555519147713767 3.6796301755092498 0.2653041647932915
