# total energy = -340864.3895758759 ev
CRYSTAL
PRIMVEC
9.30322471798137 0.00000000000000 0.00000000000000
0.00000000000000 9.30322471798137 0.00000000000000
0.00000000000000 0.00000000000000 13.61620975913171
PRIMCOORD
 96 1
Ni 3.129260597612996 1.7054392575063893 2.7164067398148113 0.25714116936652487 0.42168997191660923 -1.1043299454228723
Ni 4.513943271058412 2.2620884091597397 6.604189024287836 0.301505554414513 -1.2983114514117768 -0.4842225432331919
Ni 8.67335925209433 4.4054304571919705 2.3149325865709334 1.0490630545297674 0.008686729140720523 -0.06773879810787044
Ni 2.8344693139207853 5.804514522601143 8.362027765060802 -0.08812250397054501 -0.589354694387856 1.3093422553046419
Ni 7.4483757352702575 5.694615528242066 8.021186449016268 0.5010108184351242 -0.0018000293232162548 -1.2443545375793472
Ni 2.5735603748874896 0.5413174372113158 6.4154675276341075 0.0591158323255498 0.04686735397549993 -1.3799365205834364
Ni 1.4161089667616753 8.173422558716858 10.704002035107866 -0.5783472875337589 0.2276534443200531 0.2130763178368266
Ni 7.225470469474652 5.937718095041105 1.7413227258160817 -0.6648926768251711 2.3861562546954325 -1.4897030851863182
Ni 3.911950201813752 7.848330671907106 13.532320056802272 3.5021512951610587 2.7790393296826785 -0.583326228805589
Ni 1.680227518345033 7.477038970826028 4.325052455713637 -1.2936896363690495 -0.8508947641530248 -0.38337513549681074
Ni 2.5651595629086317 1.1015576336308226 8.71788727687219 -0.6271964478259778 0.5842135165065486 0.9790974239739073
Ni 5.483813757888868 7.471791952048535 2.0905918331913433 -1.6006374448450562 0.11491262758019564 0.4437680347625712
Ni 6.015613996147391 8.415380828867614 4.157519053502709 -0.9709218301416503 -1.930418449165495 2.0424367859170305
Ni 5.642936114573677 4.188609500404309 12.589193550254898 -0.8929294726265717 -0.3253615350965042 -0.581550882072721
Ni 4.359035275200206 4.037618162179656 3.9326061517989768 -0.19002766354747916 -0.11923490910463336 0.30115074217825555
Ni 0.2726598422564356 5.973181987913095 12.542803019875523 2.4849457514615203 1.3908660230117464 -2.1649956171885747
Ni 2.5963253659309724 2.8111182197159867 5.290469488840571 0.5198580330486143 -1.6184204798600899 -0.9423026237430611
Ni 5.55545789194112 7.355855164805429 6.736728346478307 -0.024991122727698895 -1.1925365244667914 -0.7690529509848691
Ni 5.616180040098379 0.9012136182559565 12.663129998893629 -0.14077458294862205 -0.5085711472808854 1.2056110982625623
Ni 6.827859945483066 5.2682580396716645 3.83544141152258 -0.3355068510606222 0.3654380914024158 2.5892703191132243
Ni 6.8352560091853825 1.4392926029203836 1.4341953660618938 -1.2753129336340747 -0.7401072144847963 0.5622534672956897
Ni 0.02708540863260964 1.5705704078303082 13.512917251195288 0.9379003809103073 1.1462736368445097 2.1109173472869323
Ni 2.0515843419995905 7.973282283964735 8.02017890977229 -0.086670859125683 0.5546088062662384 -1.7463647438132635
Ni 0.3684709633269367 2.3154610097385957 10.143082703279216 -0.26589114764501304 0.30160402766559025 1.1638103601766925
P 3.9642622347673706 0.605358045648595 11.23783967959382 -0.5177116761295729 -0.09677066656384625 -0.7535643684309666
P 5.280501083485814 2.9209800011759333 0.5695508637821214 0.1306125548139557 -2.0237582356709214 -0.21300124162451706
P 2.0465419941673195 7.255892014514369 12.979434059573558 -1.6784169150183803 -0.08795229694126788 -0.8391468795884773
P 5.921363025872964 0.16736129255244708 6.480185410835573 0.6378001914837531 1.6101608109544592 -0.8660609303705019
P 1.5753429621438786 2.9117139892922763 1.0160126211081284 -0.4968047507735767 -0.30090623026761726 -0.8371984976128549
P 3.033558324272453 7.738199096928459 5.972341906715209 1.113296924808173 -0.8105631544135137 0.18516107948379723
P 0.6426165305811835 0.117498798684137 7.451253222695574 -1.956656042705785 0.08765533452613936 -0.8075675621202996
P 1.0488455620115447 1.0022457090745582 11.83820561482397 1.4344945583349749 0.9023044860835687 -2.771364072525608
Ni 2.383030331335987 5.870520902435026 11.107546155865915 -0.08827497038800926 -0.16935650835137284 -0.4850013303807454
Ni 7.802716960797095 1.5845810643531872 6.758323922166594 -2.8503182797333233 -1.8988162488791818 -1.5375862820208421
Ni 0.24145775665744215 6.801671367719517 6.376416311285876 -0.846995686208935 0.7987841595007147 0.13453014470080701
Ni 8.746575631134874 7.257427046603529 0.6905690724015873 0.8845484476517281 1.192765609758462 0.984349673511782
Ni 4.499672124241616 9.066318163694524 8.04948127687064 -0.27209907622793783 0.8391353096242515 -0.18876808010876522
Ni 6.951174189978924 5.283301354145433 11.053475813428348 0.01586370650513397 0.10915232805765072 -0.4820067665287957
Ni 6.020256305314002 6.3735834793395165 13.150126836920723 0.9084478799771452 0.7206084823302364 0.8905671430419825
Ni 7.508000102903147 0.5390139587550974 3.6493480758699888 0.9307465434743455 0.09084324533581774 -0.7239563157565467
Ni 3.556529802212111 5.735372956015461 0.036113257961827336 0.7256378172240276 -2.3798511384130108 -1.7098507080476295
Ni 1.4629786132173626 5.224560792866908 0.9992379765022829 -1.1672602663985059 -0.6188743011135277 0.2002316006636745
Ni 6.627049838546582 8.498412110054 0.4551258505662176 1.0776550072348472 0.7572387319587605 -0.49220324744582333
Ni 9.023141897477604 0.2630961271797293 9.442364742962084 0.07161216502034763 -0.7014331949533662 0.05571349151222018
Ni 3.418367610962923 7.809117579447654 9.759459577748553 1.8702338092557986 0.22203661235390793 1.1777202853895652
Ni 6.061013733087397 7.167548591977012 9.23015632502173 -0.2581834945881102 -1.8738999452534761 0.13469289553091643
Ni 1.9878107361135773 3.6963665739222002 9.596514526000494 1.678830091296399 0.829550494149294 -0.6214600595628329
Ni 7.496026852607699 8.566093070348783 7.952670059135989 -0.016225974940559152 -0.19787544172667212 -0.7810193793181258
Ni 0.06722324163547116 2.210985795427884 4.962005183047059 -0.2669697254211725 1.0646578236442308 0.5473235854587348
Ni 1.7250225456741584 3.941125114732576 12.481053795702246 0.9734610516237363 -0.57105975273341 0.44403311549849983
Ni 1.3224999189972602 9.17882206099278 2.3529492843233193 -0.9056620897018919 -0.9988272983026668 2.7359643528700754
Ni 4.908502337321244 1.262503422373059 4.3156171251389335 1.0227902368761677 1.3655445135278226 0.6948509137501582
Ni 5.547364086380095 4.951659997088598 5.895314926803635 0.31937060762039193 1.4740021295112937 -0.7361983663486934
Ni 4.736029853073133 6.553489240189075 11.266841552531684 0.08934377797215581 -0.47982210017265103 -0.2630889023095276
Ni 8.98969680438348 4.990575386355002 9.815652916081548 1.003318758415117 -0.517408028846225 -0.6618778012582471
Ni 0.2629900704172055 2.199933564385932 7.794680835229723 2.8708451960420818 1.4284617218773334 1.131008483155323
P 7.607293421009846 3.3033890558724432 10.106658717609642 -0.728197607531404 -1.2046574761000415 0.041081343421342155
P 7.973440438786042 5.205833401379156 13.409624476754468 -2.6840368107628483 -0.09115332037706882 1.080175716774172
P 8.307575060084664 3.6613585390645684 6.658367284132882 -1.186883697056388 0.6437939471733428 0.3572591551360492
P 1.7569512131286875 1.0128141724278057 4.234722794685155 -0.34431982136656186 -0.6872679591965777 0.456070506279008
P 0.7857382709620759 6.677612865241036 9.105281929729797 -0.13704339804096397 -0.7584409797969777 0.5394886627953484
P 2.594325172602673 3.1225157596454745 7.3749881768937104 0.28377856944839513 -0.17557883511200087 2.6303930572954632
P 3.956940596863316 4.180348236797193 11.050412261507375 -0.5177805816942953 0.13763552309900814 -0.5125129055374528
P 6.627626638483115 8.219454914942094 11.852257205535894 0.7492816818952128 -0.6976467313277405 0.19774277280354977
Ni 9.178812757767998 8.73888186423951 12.433614791889852 -1.353703040808204 -1.7472851987450038 0.7474896229917966
Ni 5.640014901991882 9.0502235848203 10.133850183004775 -0.13924940455334728 1.9415312712492045 1.7490384339906844
Ni 7.923593760399863 1.432371003681989 11.545769907646761 -1.0362263077764153 0.036461071040511404 -0.2786142516386363
Ni 6.6020613767800125 1.4478887826196798 8.855493135279369 0.42632361403387875 0.9312947026683316 -0.15742170458699983
Ni 8.945283209270448 4.6583758358112 4.807733527763995 -0.14710155360791438 0.9131375721433307 -0.26560909762822
Ni 8.84612013631071 3.827783927203867 11.964576898983452 -0.4654447484050565 -0.966672053726361 -0.891162096313504
Ni 7.710661551571406 3.146750660204638 0.21340946425981394 -1.4014484265132832 0.81835359699221 0.6177317028686523
Ni 3.65382292699051 2.4834400364166203 12.435615915540629 0.09885685966891361 -0.13202717577329517 0.9062048495792393
Ni 2.43082099704517 0.12993348892881174 0.5486800093044143 0.1673145382206796 1.5499700003971757 -2.0278298346371333
Ni 8.391704121795417 7.420894009261901 3.7537163030956986 -0.29566169403922626 -0.3906564996495724 -0.3910370229174427
Ni 1.5440469139745792 3.5550878023707786 3.1064704878626 -0.371038982528961 -0.9853979122706384 -1.4789286202786336
Ni 4.135088048228928 6.594721132426393 4.231182917655304 0.5599294471482035 -0.6170771000037889 0.0845026478297706
Ni 0.9482404892104727 4.584284953641075 6.894444985898438 0.557567117563614 -0.4266095207054137 0.8771529265186054
Ni 6.158781322329719 4.05722005679699 2.1765238598650014 -1.2071781856393662 -2.890182720028429 -0.8835210348284783
Ni 9.165248656034693 9.179101157736266 5.131472725690329 1.5403823567087407 -0.19523337611813474 1.5616217257034912
Ni 5.597210764766274 2.3442172775421946 10.86107861266294 0.345929846166159 0.7129422240342302 -0.35223650511047727
Ni 6.115158501323226 3.6096512157218315 7.484694594499785 2.0457918184321926 -0.48613904352961435 1.7999082242573583
Ni 8.333261263709941 7.1621806312773435 10.694348078750767 -0.34783014851266547 1.1630788813273065 -0.7910502811915667
Ni 2.7850877967737455 7.022120582172466 1.886239988580052 -0.5234938300289889 1.4034508016552925 1.2455531858731388
Ni 3.2630874861134047 5.342460560539183 6.168919046375524 -0.34910772967350845 -0.027344967671856128 -0.5102927579576825
Ni 3.54931980300545 8.801120438036362 3.7263620312668664 -0.23297999873928907 0.6767626887898797 -0.5031381491907723
Ni 3.5206379610001135 3.9134108081046497 1.4558318759392246 0.022109687414845793 -2.3696492581793445 -0.15108136419126883
Ni 4.406621269964168 2.81863522534048 8.919025787643507 -1.0713198090454388 0.7457633843293092 0.3695251169875958
Ni 8.960084639899865 2.1072920519989267 2.674604559898309 0.33102233292670735 -0.42971438488298247 -1.4066184007499969
P 0.6215530993504726 6.612425169188039 2.4796210626432855 0.3088267706662746 -0.48884821493066133 0.005955189142170389
P 1.8281301859418004 4.628856703575413 4.7290459222286945 0.11018771130070056 3.513866012494826 1.756595677512652
P 8.781053382179888 0.13785146354144281 1.422321660271621 -2.3527260000614447 -0.2330231932723987 -0.37378363515363366
P 4.5187065221472 0.35557111184312257 1.4554364888859561 0.5334637967575071 -1.1329206125763713 0.1814702608957713
P 5.054060592272749 5.558983814133796 8.245091811476025 0.4322685187634039 -1.0326023378705829 -1.0105754399775306
P 7.306520163782303 6.631003709079266 5.453169865776842 0.36683111509520044 0.05847331364554445 0.9367289863100254
P 4.387689207531194 5.602783396411164 2.2298862268965967 1.2794680934530287 0.715515126967729 0.9977389503344946
P 6.8119328246549316 2.4758113920947338 3.9374131280442435 -0.2806724197192456 1.2853728889732379 -0.6787216122884633
