# total energy = -381167.7621939761 ev
CRYSTAL
PRIMVEC
9.32778556562886 0.00000000000000 0.00000000000000

0.00000000000000 9.32778556562886 0.00000000000000

0.00000000000000 0.00000000000000 13.65215704230881

PRIMCOORD
 96 1
Ni 8.963348905677798 4.802270439943211 9.206496289903813 -0.2750936400798875 -0.3367353241510846 -0.09038327498026369
Ni 5.488235784477719 2.1292162814184676 2.4116942731401267 -0.5450268190047581 0.9589955110177096 0.9373550499297986
Ni 4.338894040426746 0.3872635355195553 7.262333011934973 -0.43424646842538117 -0.5659424861115028 -1.1154448243891113
Ni 9.287815923758203 8.448305902362359 2.179990216146571 0.6427048278742221 -0.454960561044281 1.258550112353439
Ni 1.2998642184153102 8.015039594390052 10.300989722527026 0.10800895848182689 0.444795190475505 0.4603987013407168
Ni 3.661286391686403 8.867132798404567 10.720124435490224 0.3310141053965912 0.9444646643913863 0.1200581763368771
Ni 2.6586334021656137 4.8148349669909125 11.693263378959319 0.4296061414398924 -0.20628449172597374 0.07763728816850499
Ni 4.411716061704703 5.845825768813794 5.109961435829633 0.9071430451227926 0.6985026515701325 1.6405815893381617
Ni 5.146083285118591 5.3458191556994645 12.67471711040935 0.08410206995724226 0.6714950126330371 -1.102103627195515
Ni 6.243422625093144 2.0009312476493206 4.634265830023712 -1.9171860096356208 0.026291072486045047 0.7735091869840097
Ni 6.753717785596943 1.9745522702989862 10.859390138331795 -1.2685568458571637 0.28869811823719954 1.6618381847240926
Ni 7.315548960902934 0.34344719598438533 3.610080580490365 0.6255925936739678 -1.919248291481288 2.201962167110595
Ni 1.5797537496650038 1.1455639909297262 7.125988771507166 1.3033729250950843 -0.456730251350194 -0.2605226842442481
Ni 0.44338602244450465 0.9581687805449249 13.545615129960735 -0.3847108235890987 -1.683140545746295 0.14466774735544116
Ni 8.564334226004794 6.227807912191991 1.5705033847999659 -1.0933947865676075 0.00011312853909657937 -0.7594041150411953
Ni 2.1285073697216412 0.20491745541754622 1.5911998752331065 -1.8247615358556122 -0.6118629027927012 0.7405533008832794
Ni 5.3126868616583085 8.580004905618855 13.09473889577213 0.214674772672198 -0.17354663517332045 -0.4040943703220331
Ni 8.282569809872705 6.326831682896076 7.3136656810136005 0.9460541203656931 0.31361493608353735 -0.6996758459426273
Ni 8.975223176599643 1.6011983284940061 5.486965340094722 -0.3625134615564531 -1.023117281198283 0.9339205703269529
Ni 6.203406425364384 4.739074693285319 1.0680846063593292 0.2863841253920423 -0.5436865029267799 0.9891254976338707
Ni 5.228699481155335 3.7040822714895625 5.972490566244272 -1.146682185136838 0.38584519430385805 0.37755235816744653
Ni 2.476275195942475 5.4916404261795835 4.127674733135832 -0.7612277985134954 -0.36947009537994435 -0.936694019307032
Ni 3.6971517268745346 4.922729461690813 7.9451455649757 0.34533566422558587 1.34430128787833 -0.1115254562755176
Ni 6.407059965848772 4.71123125361391 3.7403636259103052 0.45553828792462187 -0.7162882576883277 0.8695375760651929
P 7.128545517508483 0.6189498697206905 12.58414897724702 0.6315279853217962 0.4358824613669074 1.9858275220634187
Ni 3.990277385726818 2.5951484941577014 8.028547160550243 1.1176924827727075 0.944987883884708 -0.7170678161668296
P 2.490220235241891 3.874333012153743 2.081325565183642 -0.5570909492581438 1.1209899225770563 -0.254428141310736
Ni 5.294898774739254 6.536576267301882 10.657624541629481 0.5596103732458878 1.8530686103304213 -0.7338005555404782
P 7.995124772380517 2.944287504844765 4.214298145816742 1.0948844837392562 1.5108552937839013 0.21607293857130533
P 5.81318784740332 6.768623586801269 0.7667542273948271 -0.7706506344892922 1.5205213561187556 0.18161655666564852
P 3.150907281113243 6.775432870204997 10.357468530857485 -0.2802114209224271 -1.174236183495707 -0.5928804481529273
Ni 0.9683080833666412 4.963370623047038 0.21510619550233062 0.07369064481593114 0.09650172917317573 -0.5074722577897518
Ni 3.0936346782380477 2.0001104025266794 3.0075569410079837 -1.1679218112419048 -0.794218137396587 -1.33456786264065
Ni 8.867067503906174 2.6077036934199187 10.128003142380225 -2.9495631188692752 0.7318040939357396 -0.5336188342781326
Ni 1.119268963648753 1.1549570709126775 10.775183554869933 2.068555851601586 -0.9415755157690494 0.6792571730769592
Ni 2.9361443481167444 8.200578575463426 8.371447748305233 -0.38250558840766385 -0.3475434705101821 -0.30575815904327985
Ni 4.827352855111191 6.140005467425832 2.812344113608573 -1.6068479445311423 0.16760455865727264 -0.828506883376128
Ni 8.463155736853777 7.092960015884889 9.917076727553525 -1.1937801670659052 -0.20676348824492133 0.2978389041962032
Ni 0.5472415860295906 2.7283026319497887 1.5895749750016963 3.114292412861282 -0.3426848568663001 0.6050412518851773
Ni 3.1545731008086753 8.195560226872734 5.655255380250048 1.4608457946349938 -0.9794074990151583 0.7375885618280007
Ni 7.711886566141867 3.8375722095590934 6.32564518858244 0.3806821620456799 0.3234164955549914 0.004330251944237703
Ni 3.987311149942728 0.8631718148345253 0.6858897894720836 0.6970106404056383 0.5581458728852193 -1.0221749718896718
Ni 2.524378585686348 3.771839305249403 6.113749616843894 1.3755684734227278 0.9608122525114743 2.383099984367612
Ni 0.5883528677742383 6.036019314843963 11.488221863994829 -0.6325744243084396 -0.4452944987094266 0.5928660499752241
Ni 0.5879331174274331 4.917673801958181 2.7703774739349916 0.4352054899045408 -1.1128441535414706 0.0609459435557531
Ni 6.666941397234086 8.184665373426768 8.682566705357234 -0.10470791913305193 -0.4454441369134135 -0.9851071205030969
Ni 7.105365970579353 6.902467980719214 12.501757580840454 -0.15087644726931435 0.053003034559592585 -0.9855624628729607
Ni 5.925457073495479 -0.027916196398189787 1.8496896010241237 -1.8208341757767479 0.6380243916794173 -0.7817161482748344
Ni 6.166794867337487 8.825512219572463 5.572346291749089 -0.34935352713572737 0.7990407555962109 0.02067938272622245
Ni 0.19829099660931512 8.196698216701849 8.178120066352253 0.22197927675341125 1.2664575401259737 -0.4267031088604845
Ni 1.8695773724557532 3.2612176722536446 8.901506620693716 0.08320346940237283 -0.030189379099186713 -2.5277906145411886
Ni 6.399308576111103 2.4170903970429447 0.43137649863313426 -0.022400479182387228 -0.8422311749407559 -2.307428047455594
Ni 7.910978819524306 3.502247649174663 2.2135058821711415 -0.8547884427804763 1.1642623601124464 -0.24698736876197463
Ni 1.8745957210464461 6.595891655198195 1.646149859522647 -1.220726356637446 -0.2028340712835281 -0.6994400757827374
Ni 6.508611566419171 8.82346010676586 10.984061588004225 -1.0973846244532908 -0.9439211331830905 -1.221238006166542
Ni 8.101601443686766 1.2482908924711804 1.905063066774663 -0.03073753829317287 0.21955292670010576 -3.104485454073189
P 5.058290168137916 3.2955252672658544 12.330368850347156 0.8220703837221649 -0.6458744838514554 -0.9256819844672445
Ni 7.555086492146422 8.328415875529315 0.670453237273686 0.49148899498761806 0.6076154403702567 -1.2179109986758379
P 0.565298313170601 4.658529265626148 7.1558871223208245 -0.07725907889347984 -0.24640269990309824 0.9344892983462293
Ni 8.568643662898662 3.2129370545855642 13.468330696106968 -0.8476204642771273 -0.3825590673534186 -1.0513623920869055
P 2.5106107743111385 0.22094538921566492 12.547219341735099 -0.13885551154903827 0.19304099645250627 0.8543994348721736
P 2.8450865062164743 1.1414690931020044 8.98765151797927 -0.14460218422482837 -1.6150577340354444 1.0964361444970923
P 8.253149974454404 5.2366374266026945 12.930599720157433 1.1815301460539587 -0.31615827133068125 0.007456456278045223
Ni 6.42722663806639 5.518066042457341 8.295719189070288 -1.0308521879486958 -1.0803199556615202 0.9006342974699973
Ni 1.9155260437526935 6.33573971803383 6.3556246911298135 0.6767284931178346 -0.02793992094337769 0.4257001215172669
Ni 6.272357415666248 1.7452473197320588 7.00733840736502 1.6587860281613303 0.6101826868768007 -1.6472068079641633
Ni 0.356181488727906 5.140841069676267 5.085128072534091 -1.6251896802631236 0.4445895022226021 0.006990572385220219
Ni 8.219252802003515 0.5284013249078773 9.696922334546949 0.6733585482043372 -1.7393428039694752 -0.7822547943871238
Ni 0.5528112067424211 1.079178141636116 3.4249716103278294 -1.2377300902842943 0.17147406891500788 -1.9584571004702656
Ni 5.747520237592021 1.1245111790910753 8.980962563008292 -0.817574038513708 -1.0194393181260637 2.49737420703286
Ni 4.646487094565582 4.433496440811149 10.182283391671973 0.20693343816388232 -1.178803748261731 -0.17046748202736448
Ni 0.569005175122165 7.626565312314601 13.563021710453471 0.6566034402331853 -0.3226027414044444 0.35284199990496007
Ni 3.7648527939214675 7.880225110781714 1.0786436595278506 0.7095758786651586 -0.4814210692286547 0.8749770019132093
Ni 2.9158284313313736 7.235050172171184 12.576257670727081 -0.35830533701237643 0.1899135065671181 -0.15422350936467633
Ni 1.4345574408123498 3.0537304119351023 4.49490405099165 -1.2174160613172904 -0.8105009337170106 -2.509273015352975
Ni 6.637446939531909 7.455344481960027 2.8746257372889774 0.32763824694582283 -0.6743216834485548 0.1568180095647299
Ni 0.731179919113814 8.382666275907512 5.824828923688051 -1.2570357325914416 -0.14374369287927505 -0.48430507564466924
Ni 3.9295721577933045 3.1663540938756736 0.5090041949927357 0.17767171308528756 -0.5377727085455061 0.35879924592965945
Ni 1.5659206437914017 6.17201842720884 8.690581138645566 0.23755296282195218 -0.3765151751521838 0.8570594982028401
Ni 2.1242725551116513 0.5683298434530828 4.715837314086185 0.618399161249322 0.456070249168692 0.3921004311849505
Ni 8.948825543678339 2.0413765255103704 7.86040636496267 -1.2003313379208618 0.36281633750885256 -0.20716869410313998
Ni 1.6517455980348343 2.7927856130045488 12.9969212077312 0.8529282496432861 0.44718348820202336 -1.3738381209951822
Ni 8.847124698540187 8.697451052654944 11.869239514353923 -0.45972712919498887 0.3142307152906653 -0.6563818111406825
Ni 7.189344023296843 4.241054898479201 11.112282260053528 -0.2670612566937143 1.3745009513901618 0.3191536065135794
Ni 5.030362778397145 7.368558765811685 7.076827610889343 -0.32906366653843977 -1.076131114391153 0.22931154874876633
Ni 6.840783335309821 6.6558413325074595 5.29012854524245 -0.030755021794669612 -1.12305246153304 0.5592499045826756
Ni 4.370571199932311 0.2755959515911508 3.809238128371196 0.798001001477787 -0.7502928967685465 0.3651694111220614
Ni 4.118758302991141 3.908043628894941 3.5635134770157983 0.8728165039267806 0.5282627121725418 0.572149129142847
P 1.168864799070156 3.4803739922133707 10.74000194635782 1.7471296470037458 2.147149075925457 4.2246348830268206
Ni 2.4602127493380634 7.665695372422329 3.375045571300273 0.7755616986376642 2.1148007415017385 1.5049510124843242
P 6.780096762947277 3.1377364480090453 8.790050777495813 0.43417833419160706 0.780347807172398 -0.06390322641186413
Ni 3.6346555641279856 5.439945839024154 0.7419535113484802 -0.7117309773349485 0.3579808637934222 0.39289978715779433
P 8.3977772883925 7.272473247535237 3.976504910458866 1.9285304881141625 -0.08304071857226343 0.07208704777423713
P 3.5860298183969768 1.7944793715195642 5.6536444716968655 1.150713160673102 0.7554893533678215 0.20662079201946995
P 7.824025203237242 8.991108395279849 6.946313236389386 0.6697895999061562 0.4934947125637373 0.185402506070642
Ni 3.9202350445232605 2.070171399301206 10.966463787909053 -0.7048031398668636 -0.2896975060359914 -0.5011005499354532
