# total energy = -340860.74465699436 ev
CRYSTAL
PRIMVEC
9.38709279873386 0.00000000000000 0.00000000000000

0.00000000000000 9.38709279873386 0.00000000000000

0.00000000000000 0.00000000000000 13.73895917283152

PRIMCOORD
 96 1
Ni 3.0702926635891137 0.5870227676344689 4.4316660778993695 -2.85712913200757 -0.2231812674813124 1.6148564166579158
Ni 4.330200056454809 3.7317353617830493 7.342030846719171 -0.647157207218621 -0.13398429949966603 -0.40513720976425066
Ni 1.7408363024575364 3.1190492219874124 11.60917310936563 -0.13058607245139447 0.08807596700332573 -0.42157530071561583
Ni 5.521882061095854 3.776661986445016 3.1105689226310353 1.476497899349954 0.2198187787669827 -0.8466511583853225
Ni 9.406148288765301 4.968681926415737 10.956929761812884 -1.7968671234381894 -2.8185253035924425 -0.7842312013872041
Ni 5.964539794601853 0.680068567114595 0.5029313156815162 -0.2879488987760009 0.19864934377821916 0.7253297990653057
Ni 9.204541703335911 8.112982427203963 5.902201990787564 -1.8915765365976327 -1.066065245514719 -0.06498026152612679
Ni 6.366241643569582 3.662815328714065 5.4773656523757435 -0.08595223579210359 -0.23589023040754856 0.7329870585002474
Ni 5.3161263807854375 1.1613429217101052 10.030827377927451 -0.9724102417617188 -2.0412556211247366 -0.8522481928571257
Ni 7.231956861460355 5.072456233903837 1.1486665920102475 0.37223891637433315 -1.6083643811756687 -0.3127965539473
Ni 7.901341039901684 7.6283643902631555 1.2926204714876106 -1.3503523791684162 0.6853702279532325 0.8639526257782476
Ni 0.8650815891476298 0.6729662929358977 5.9934557943111555 -0.14393703983700373 -0.1853271727480163 -1.6695077854542084
Ni 8.761057905690702 7.736306566817262 11.534309169331339 2.592384182151858 0.6409603343792897 -2.967297560034561
Ni 7.205147325306035 8.730399661615069 12.652578478437201 -0.5443102525537077 1.229505902602289 1.5917869364329618
Ni 5.7006686246796034 7.481747392646092 11.447327431600403 -0.3812956272599627 0.9409273406620892 -0.0014048507673266126
Ni 1.03806223602569 6.457183795622473 3.162337799009698 -0.5623449985682315 0.06567368804872559 -0.3812927990464853
Ni 8.178954913230772 6.484228009089069 13.202191805076504 -0.3796411223756752 -1.935371422295396 -0.8358712941609991
Ni 5.455365123704567 6.413843589591487 0.3645590013993064 -0.11019311061733926 -1.111573257248847 -1.5810772633249417
Ni 6.859955773134177 8.488015546404736 9.669273184834516 -0.03913141878382294 -0.6998995319176592 -0.8735240715167666
Ni 4.149451590540439 4.09585129241678 0.6107711729274715 -0.31606056941055244 0.049093929313173516 -0.599435989883258
Ni 8.59946849555048 6.962800758465667 8.118117166796544 0.14354031861921732 0.2157613208681574 0.3814046420340012
Ni 6.055660301412074 6.420883908959742 2.5144359817340423 -0.8034553397241389 -0.0003944072249412562 1.408859888486006
Ni 7.672220886381147 0.5923696555173474 5.117364084380822 -0.0038193737460901966 -0.23476871520859569 1.555461105418734
Ni 1.0188937931590505 2.7750498305619127 4.780058628610661 0.4342665230300392 1.1349515269634711 0.20631663051548987
P 5.62962710870765 8.004843121707545 4.196715601232667 -0.13616793741454614 -0.9415006966670559 -2.4934396478651446
P 7.773179066121944 4.447820325367146 12.487517721493806 -0.2871757680554022 0.5984476578280598 0.7285578190843001
P 6.840965685024867 2.418058703128857 1.9001258749374603 0.02942319035712352 0.003587974461574466 0.24591316186118936
P 0.014392290207214314 0.329968504279189 12.227301885387552 -0.20718283517052705 0.5129034561076521 0.44201659928910325
P 5.346249560589084 7.0960317621905515 8.922944886662888 0.3138375936173046 3.1706093422854558 -0.1322261791579787
P 0.7954443822123319 3.3245983862630264 9.446289373675352 1.411627423928814 0.4436255956474359 0.6380909832512947
P 8.884948752387032 9.139057346118635 3.5487865613887872 -0.34272162364150655 0.47001102761950025 -0.4210199424327781
P 3.22243865868338 2.067497734052143 1.3980628653113625 -2.5368653231489473 1.6946308057740815 -1.4981311613490136
Ni 3.8636052370967375 3.1076063562408724 10.649176750622914 1.8566175040239445 1.3299810146009161 1.3438834836146212
Ni 3.8656516232597773 1.788982699843919 13.128179274331146 -0.25478012533351607 0.09739750151456775 -1.7798117106177995
Ni 5.623638143698386 5.302937515835571 11.755094523429108 -0.5453965436393511 -1.9441147157056649 0.696854060223116
Ni 1.2260950857130823 2.225623307063182 0.29398214650565857 2.9639376424233923 -2.2921027299524335 -1.5603665131401514
Ni 1.135800643042071 2.4049449349189187 7.31955345374945 1.5652073861722204 1.0811470795485056 1.8617915920257162
Ni 0.3176470066754911 5.18370266701478 5.3514622130493406 0.3289029725908594 0.7987587055794179 -0.8568409544341307
Ni 4.82890811922462 6.068727134159557 6.926207055807968 -0.5436525643650508 -1.258240037312188 1.3342595873716119
Ni 2.991675763976917 9.307461785407328 0.6884108762113541 -0.3183149126623679 0.3006275226849338 0.05870497004037632
Ni 4.282729529727779 9.038437101707514 8.381121908081875 0.32994812602592205 0.7604742081769226 0.91614344884919
Ni 6.206642297037455 2.004820117489679 7.217651871213308 0.8029339200030301 -0.5634760268488812 0.16363348982466655
Ni 4.363740137925182 1.3402796787737101 2.8467118333475208 3.105704156971638 -1.551991915923211 -0.7018281163989397
Ni 6.059114751448764 2.9390517234723235 13.595427435326592 1.7909993518035026 2.252056769774141 0.6486021671952636
Ni 7.828628621466332 4.943890615146985 3.68660222108628 -1.19248613084483 -0.5866079848806542 0.06346922419823907
Ni 7.1673736651222155 4.669045934102744 7.802918313842708 -0.07109331640240013 0.1530883673189686 -1.0629179581349886
Ni 8.363730441823783 0.9408588932812963 1.3056873042350947 -0.07028599000975637 0.16572122559163072 -0.19482251383296126
Ni 3.327207997975527 7.619690716801463 11.176464755190851 1.503168980883237 1.9297533047776703 0.7429025178417463
Ni 5.452839995824486 5.1475811351093785 9.161576981004563 -1.676123233888197 -1.9221904048287475 1.9379417541257333
Ni 2.2328232070037854 5.805503673619186 6.982605646203196 0.6256897813734643 -1.1243734943373087 -1.194931249951213
Ni 2.6127563884848657 4.69245734277532 9.08180922385297 -0.6176062330343816 -2.5698708315406904 0.34445891804758744
Ni 0.49042958590199104 1.160864179993064 10.184772878652243 0.8385200446377559 0.03990429239410547 0.17625452102278677
Ni 8.272196902943959 2.6715008132935973 8.853673776334741 -0.71244214446936 -0.9673971048178437 -0.7032450513511244
Ni 4.344252533913848 7.9083813592699395 1.9464802763673097 0.2821032386285013 0.3535881340423652 0.6230243187261593
Ni 3.2982488176407654 3.313990971748187 3.5223121444363956 -1.5654588400613942 0.0727961580261198 -0.3868697789136305
Ni 0.1387290237968681 4.802802615007125 7.665514747505571 1.781302693341029 1.5581353098167876 3.359288719335156
P 5.793647775803042 1.8659662453626804 11.894572637206759 -0.7607176916462963 -2.054392158506694 1.6206105455328734
P 0.16640029504186313 4.092913132467094 2.9420471446862035 1.516285206550221 -0.701806776242701 0.5106933358302108
P 1.5445428113780564 7.113820302461012 5.443485758157196 1.1959535205681402 -0.435687828857598 -0.9275069534911252
P 2.921413376681718 0.913062773706171 6.907645957825497 0.45677653120709716 0.05388055206853946 -0.5005493054176734
P 1.1012655297676506 7.42503996690791 9.27798725369481 -0.8969298520352167 -0.4288805761277775 0.08726478395594002
P 0.6139402553524361 6.59480795863315 0.6733380217985417 -0.09294100840511091 0.5890680163853725 1.0903084343327998
P 3.247220582859643 0.4537476445748769 10.88550055892105 -0.16644576246248108 0.5471757470269608 -0.41787728303873845
P 7.510997572848075 5.717856391030639 5.82795666014843 -0.2990069563623754 0.2233540456137508 0.36488093334736516
Ni 6.530121504277609 0.2503387373872125 2.951073772825558 0.6554883527921357 -0.7614476278337853 0.09455900362450811
Ni 1.9449210803045531 4.331561184866005 1.646696906702208 -0.5136200225587025 0.3843675813170671 0.16492469783226435
Ni 3.4067823810218067 6.5893916062658375 3.8262446089825235 -0.8071181332877068 1.0871030400216246 2.5928706348699735
Ni 5.422425816153618 5.698443883759234 4.6851222687028455 0.5027110889556826 0.3483790790376 0.2099056334183288
Ni 3.512997332557568 7.99438590067256 6.532257067819314 -1.3740669491765367 -0.10073942140360714 -1.6065381266002075
Ni 2.8801007826287894 1.8942964905005442 9.069402303707603 -0.6836079938464872 -1.1197640205897557 -0.6229543847201722
Ni 8.884770397629705 2.5772919530538356 12.286654593789702 -0.11473496435175078 -0.46890056816414083 -0.12958514199070584
Ni 2.8190283588822878 6.454330119505207 0.2947556429269177 1.770184214830364 -0.3241713714431449 0.43506665033383135
Ni 1.515639953598241 9.299041563442893 8.1827867243856 -0.6988723762047254 -0.8538407341552263 0.722323151028498
Ni 6.897654336578067 3.200012894722361 10.774146174246463 1.051367277182912 2.3879873943669003 0.5509730092858641
Ni 1.5007520249075015 8.059935967537273 13.009008257739294 -1.2069092482486956 0.7763032047893792 -1.0015105015617847
Ni 8.706415640300541 3.3573030165017004 6.457997656541443 -2.834927656209866 -2.675819822169695 -2.774637858180873
Ni 1.754757360621702 6.159256254142843 10.985012187708982 0.28145197819774753 0.8662195674355533 -0.6126972257685384
Ni 1.2775739009337732 1.7486932988725106 2.6966413244030165 -0.07641729971847484 -0.6481146860358838 -0.2503547425723108
Ni 5.1511106818859975 0.30339458414639286 5.367975986159523 0.38848597436081483 0.6034412543879091 0.7582458330670361
Ni 7.887213465702716 7.138254904215108 3.7152891757388025 0.3219944183964842 2.356543316925006 1.1964196615712814
Ni 7.555079359185852 0.9612758194492399 10.800690055683285 0.9747715429050438 -0.3062808643159693 0.883266238505195
Ni 0.5143723040095575 8.633280802703094 1.6608610905618908 2.3999687350984926 -0.10034552839929815 0.6751788892425276
Ni 6.05656146229121 7.742464499491364 6.160178066625461 2.2925817264713806 -0.2878717656811623 1.5802097731183238
Ni 8.994261444444827 3.33793744469275 0.9226357306285015 -2.8350639246774136 1.7073539097677048 0.9242341962771243
Ni 3.136190052875994 6.7759131340621765 8.86315380104141 0.8499673672427491 1.7814099083428547 0.12580819144677685
Ni 7.94616440654625 2.614737065000469 4.0318895216015465 0.6036471997511281 -0.3213616699084917 -1.385694506113136
Ni 1.191700778826027 5.09463793346009 12.989911156775587 -0.04232370046887549 -1.1828694336906724 0.7095164861821329
Ni 7.529058338800776 6.103252860341486 10.50145583092891 -1.3106352630844524 -0.004059771891670428 -1.0367742098600854
P 2.859674469368355 4.204525662185186 5.357191155596603 -0.7146846606466337 0.6029522305666326 2.1892763441128102
P 4.781137205537878 2.268297029527307 4.789497350110371 0.4775695566930485 1.6035137379515867 0.5628720747162952
P 3.3803671027521083 4.990553851919787 12.02595813854791 -0.0886817189081247 -0.3179027648256138 0.31770376144093027
P 3.955777098265951 5.3424102397602615 2.3539504936707636 0.7431190047279267 -0.871635596244802 -1.7163342588894441
P 2.417073058417302 8.387179398866323 2.9969475551198674 -0.05351982629501105 1.0361820848020413 -0.7785966288092462
P 5.645125198410305 2.981528316994137 9.119755606538623 -0.7107827544890662 0.979205153196365 -2.9476828711274266
P 4.954244578164567 8.334696164749094 13.527626343682535 -0.5755825803044281 0.35659761029265036 -0.8212224338995728
P 8.331016424492619 0.7994977287499495 7.371871475038837 0.20833777471057668 0.4352908505294955 -0.6598597423869539
