# total energy = -340893.1788986392 ev
CRYSTAL
PRIMVEC
9.09665883549381 0.00000000000000 0.00000000000000

0.00000000000000 9.09665883549381 0.00000000000000

0.00000000000000 0.00000000000000 13.31387971011475

PRIMCOORD
 96 1
Ni 6.417328967824045 1.98443613292152 11.483381098522138 0.626364695953302 0.4781475406837056 0.3892817307892328
Ni 4.240889656091732 0.3587358392752375 6.175164082995516 1.0058690356407967 -0.624607346942563 -1.686492235827347
Ni 2.604955621214477 1.570956600554732 4.772293725745379 0.6474773095622011 0.7772090044331003 0.03125844379364939
Ni 3.2162238074346345 4.276393915669054 4.755571337741025 0.4076041832475045 0.3352140024105517 0.03983101595400883
Ni 5.1049903789995845 4.482051179446683 2.705646538268377 0.23681017111865668 1.0207084146464742 -0.13787257881047868
Ni 7.355440107314292 6.025035553970089 2.489269771676012 -0.4300985076952787 1.672554285590016 -0.6992140758148603
Ni 5.2185985516516915 4.204530310580445 11.783528996666528 -0.08142658000760815 1.0891290693127178 0.41560108541005203
Ni 5.566573043481381 7.797464955221341 12.395235641844316 -0.13128207007715453 0.915213737946069 -0.12947072790002864
Ni 1.9070144692621338 6.7608642901242115 0.33011775046400166 -0.29359786953166206 -0.200822440170138 -0.2592325046779148
Ni 2.517336602959606 1.6887856229234346 0.37029405403796994 0.5356363789287937 -0.6837666309115384 0.5412298138561711
Ni 0.2410951177451849 0.07849961773571514 4.92911739570058 0.02554596678990439 -0.4881894983007398 -1.3786630531876516
Ni 8.668515525507383 2.311652049205361 1.3980109220807282 -0.09489196148389464 0.21983729070974398 -0.8355079972843094
Ni 7.013978823236938 0.4534056778217768 4.8614164217117875 -1.7353557942972695 0.41847737851658257 -0.2587501657248576
Ni 0.8678658300149636 7.584448494416284 2.5021042476784827 -0.43248834808369385 -0.3194541684731337 0.42269475903203974
Ni 7.690442763592546 4.034222663179314 3.5952797632980915 0.8440067787839399 -1.2236332458715957 1.0893944071589625
Ni 7.717468937101185 4.119367390221008 12.691828565701536 0.4555670842800283 -0.8060061311704506 0.2617123336769751
Ni 7.747124045023827 8.621886052129636 7.042323102616127 0.07194846531384382 1.4002906587597561 -0.11743436556078483
Ni 6.730235839702269 0.8279305879011027 0.4224652120005255 0.4084048247719289 -0.1812380902803072 -0.41288780024394706
Ni 2.0417632771327114 6.678530430673958 9.477685164150923 -0.2959823106034386 -0.12942419093280938 -1.0203014090160427
Ni 9.120765017986532 4.702217614125113 1.4352098892058989 1.0288919788985313 0.5532337802955827 -0.23344819662495922
Ni 6.3709087176003525 1.902074983494651 6.7656609583474046 0.8223593757174935 -0.02143220173184696 1.0107011669221175
Ni 3.482401142687518 4.3549344683696924 0.5113677688222321 -0.0040793122756962 0.7855774310024535 -0.44028084754491914
Ni 6.147849545400634 5.61279316720989 4.652974670653446 -0.9831991048471067 -0.22824814048125852 1.1675055496400926
Ni 5.702258807215771 2.6660305888809224 9.211261309442609 0.025796649348129766 -0.1293221181373063 -0.08224496214384544
P 0.5205817745936565 5.749834333116206 12.371256849057787 -1.1626747039103524 -0.7534694947243152 0.49623730830588086
P 4.10492189593231 6.090658851072522 12.495968403529027 -0.23922366565615574 0.3573784543227329 0.6717914608275334
P 2.414780870836951 8.728844567146327 1.4775875842268853 0.47058592628636375 -0.3967924373439812 -1.3684663151603076
P 6.0915776136185915 7.564308491673729 5.900272148543279 0.6610851301536228 0.9793717606812166 -0.7872303932248441
P 4.712251228860902 1.2622523850753615 12.73568446778922 -0.3241423179774224 -0.8637353675611189 -0.1399132633895913
P 3.959493610546033 6.141654720708818 8.29422712855873 -0.14716840229010783 -0.7755449864671159 0.5737113314236443
P 4.919363958058047 1.0273493630243304 3.9795981363189865 -0.6078039022319791 0.14781529184548736 0.14567639112561362
P 0.34236276297156826 5.74032832459499 3.6189119733815973 -0.7187454609795686 -0.7486643600261881 0.20464567057097013
Ni 1.3646261840205771 1.1425585476379039 2.562389625354841 -0.19986521846319127 0.3121026132040689 0.4464556088970633
Ni 2.0481127450253505 6.655570463681092 4.938556998612029 -0.11705692761670808 -0.8491620977326342 -1.4975349225259111
Ni 6.006569336459978 5.633397099554915 9.372797958359381 0.2796100398930023 -0.10914564318943139 0.06445292826774705
Ni -0.5050355845814498 2.356043744500603 10.214993926703515 0.26224995134799994 1.2742626379926894 0.18542281778561615
Ni 2.261702295339342 5.129069235033705 7.294914577843715 0.2733314059731422 0.4271975319983997 -0.7550370963217513
Ni 0.7201306319387536 9.509829117940937 9.197440755618416 0.009487113554828822 -0.8606557001945306 0.7490322848885681
Ni 1.3438858017924724 1.0927634369727084 11.544958201758316 -0.01306763181723556 0.7962089425743707 -0.38308691483243057
Ni 3.8783241234313928 6.890700902203922 1.5658051626355323 1.6582188428039504 0.7179841573335118 0.21960794830775723
Ni 5.5192431273704905 7.736208054377456 8.123038014912904 -0.1289073991973909 0.9060582966990459 -0.01063382556476233
Ni 5.378872584317032 3.174006213609795 4.9194922209481415 0.008001530148237833 -0.6107156765621352 -0.3081847662069015
Ni 0.6286337080067593 7.317416073229434 6.6204200641338895 -0.19283402264802274 -0.04330509054553832 1.2300563757891203
Ni 5.388906199052821 4.393531591963486 7.373186779107631 -0.741650133491884 0.49916039548994684 -0.6034065444952318
Ni 8.541253267888441 7.430569412937941 9.06741766203183 -0.4978918131901683 -0.2738793080568122 0.708285184878193
Ni 4.863828855644635 9.440967410280079 10.641558093191753 -0.46418002276001996 0.10523088151605749 -0.5900368080565451
Ni 7.942356537734171 7.1783463523946685 4.5677389770230326 1.180263363526393 0.21708338211369063 0.4814125845882225
Ni 7.267475416022287 6.23668751594435 7.101849818942561 0.4198014966446448 -1.2698845635296516 -0.2576235083195821
Ni 2.2522326734536153 5.384366966275706 2.520877022592579 -0.11297607267911511 -0.32819977587624766 0.7560120586405109
Ni 2.4506580934280233 5.140676571754346 11.423615140067369 0.8063056646887404 0.611948777638288 0.19502665942396735
Ni 1.0051353220589656 3.239738670618692 3.9252383222318334 0.09687633890377509 0.7459544172941927 -1.0395191195950744
Ni 3.6612596494283065 2.633118877082114 2.7250051380138287 -0.4211492689217909 -0.6353319324489187 0.601025445857565
Ni 1.1619708176707002 3.2394111908993004 8.24860101665456 -0.8492963093176534 -0.5338821152418483 0.09068435116045026
Ni 3.79538988449559 2.6584621686994385 7.065622374984918 -0.23745191846771363 0.04603663054408846 0.062224810268176715
Ni 4.151187502955179 6.520949009034721 6.10095263025205 0.37467066574427726 0.4056948820399336 0.2592052509844052
Ni 0.8130966662785717 7.706416496571735 11.432428892848426 0.3411486227274318 -0.43856566462602536 -0.37641001703288723
P 0.17400452956670182 5.636271643758459 8.072764419991042 1.0983133069151472 0.22137018241450263 -0.06371836409456769
P 8.472591686722769 1.6410645504810497 8.044858599569482 -0.6756206047656365 0.3178469718870139 -1.3418268581959085
P 1.8106444651724223 3.1890884740195307 10.355589157231112 0.032528311645008495 0.16988924092639127 0.3166544942408095
P 3.977832474831936 6.242654924164366 3.7763487581447697 0.2628911844764247 -0.3391202794434934 -0.21596829467264095
P 6.97637323546019 4.110207054736928 10.637323598486848 0.7161170222177861 -0.7711941656975879 -1.7599836201482786
P 6.482333692123184 7.688878138266566 10.25251309622098 -0.2618583723365361 -0.028786328104073007 -0.3328524441569106
P 2.182816069601568 8.70979616346841 5.584599892367975 0.8389265360475552 -1.6135464395972403 1.3448322206811356
P 6.9581799177162384 4.020031875339032 1.4384182807900447 -0.17385311067014575 0.3758466883302495 0.46355833001562097
Ni 5.212212697123563 2.7929198834861126 0.9073207685403842 -0.25589109900950774 0.06492318303594626 -1.7698286312631584
Ni 1.2888692089347626 0.9002253746202431 6.95281379864766 0.2343768790868157 1.175454372173524 0.7825317021975943
Ni 7.141586753893015 0.5397266028556167 9.368165029995884 -1.0571687143560373 -0.32266341943905075 -0.6217256545193938
Ni 2.978482627815547 1.5883585089768217 9.313152075801723 0.3355482458215189 0.787617601360934 -0.035249567230913485
Ni 6.386300264411736 2.0845266704898697 2.7314091858597 0.6414447302148759 -0.5516340399086307 0.6857828900106189
Ni 4.278004024289394 6.995430735796979 10.416326638853407 -0.47679694019308205 0.13592136862137882 0.01576934701911478
Ni 8.15615531120222 7.033491156517325 0.30894072861004196 0.5645080676578214 -0.24343616107560656 0.0905092590351667
Ni 7.6794630963340715 4.096025363555517 8.188275613679165 0.8509096765513604 -1.161576328639851 1.0840742804976295
Ni 3.0080558658083403 8.554370649981832 12.35954126209657 1.0960268248738156 0.12707883062908437 0.4636285211319241
Ni 0.3354611278854002 5.041950533016792 10.261326849002037 -0.525849731855675 -1.218009214816599 -0.7968329493116147
Ni 8.75888173474159 2.2574450589872574 5.752182180771062 -0.7417666044650902 1.1932944856787382 0.6875988601734352
Ni 3.468510544590011 2.796886026754294 11.749245508709825 -0.45635178496485274 -0.7113591958178265 -0.5566872860618219
Ni 1.0186802471193375 3.489642083149611 12.527762135952468 -0.20606929039137414 -0.4813048553657646 0.40057324454265203
Ni 3.0402762315328786 8.571235855530475 8.053179313439678 0.053674092484688206 -0.9279967486433502 -0.31982235044582985
Ni 5.797546308899718 7.791661286861021 3.569704506879532 -1.130698408114072 0.33261333156291106 -0.7581884974665394
Ni 3.094374061844519 8.641543931951974 3.653288247258794 1.387429743636688 -1.0224426237287618 -1.0581693877064098
Ni 3.8377803148389966 4.128464049092983 9.466727328873741 -0.8518599562797716 0.5447820499838038 -0.2116547548989516
Ni 7.564481328192296 6.13668794496472 11.358083719219543 -0.1977520287749304 0.6684361712020552 0.24902625356887434
Ni 0.23842433870037283 -0.0882485070488116 0.32743787476031755 1.2067459831979541 1.1798435023801552 0.18144429275384236
Ni 4.685961884720892 0.34606419346657524 1.7092494667218314 -0.5577877182148523 -0.1141847482752356 -0.06390708306660607
Ni 6.057419659554323 5.8392999731220865 0.29212737401696914 -0.7542493103131332 -1.3031703221659752 0.6582188643494213
Ni 7.8262103972567845 8.793148848712324 11.584140240517577 0.07459464468743927 0.14783071846445509 0.3813293087113755
Ni 0.17872296652359568 4.825604695064592 5.773471091529148 -0.16100556528351626 0.22937274100400498 0.09276463072824669
Ni 8.009371623644016 8.936257486086246 2.475316406632288 -0.8068458534629266 -0.3939086880382829 -0.11919068613025924
P 8.43673265744944 1.6799254771821301 3.534715118194364 0.21794161634892784 0.2945224382284605 0.8781659411641521
P 1.9202683012386028 3.3793359976680324 1.662144238085079 -1.414084627220055 -0.6018055185566991 -0.21761380069586395
P 4.895703548332038 0.8890637741843288 8.139347414604469 0.13344256806358307 0.49293549762615746 1.1558160291173063
P 8.477076339546652 1.644393927628193 12.42557754751179 -0.054760897790963756 0.37864841944510275 0.7479218254332086
P 6.2926683546424895 7.879480431611075 1.1866318598726266 0.2597801496512687 -0.39384775289336044 1.504214905649248
P 1.8966533748069534 3.101351199199324 6.079610049206621 -0.9618486641957885 0.8584455799170894 0.36984779043433724
P 7.127350482758372 4.065133110026288 6.069544596164779 -0.4619624462834109 -0.30095148168325586 -1.2907799189214222
P 2.557498351879379 8.742325815594596 10.18320110394596 -0.14654928064887018 -0.8837388072662393 1.278444794394837
