# total energy = -381165.88717452285 ev
CRYSTAL
PRIMVEC
9.28027356428626 0.00000000000000 0.00000000000000
0.00000000000000 9.28027356428626 0.00000000000000
0.00000000000000 0.00000000000000 13.58261842575836
PRIMCOORD
 96 1
Ni 1.8424405008373357 8.049217213661008 1.9448139797898873 -1.17183914401844 0.6971543650723542 0.12752568835851588
Ni 2.949818393696034 3.504611692649143 2.7652578862924666 0.39030785806090196 0.5110813152972489 -2.992870523407659
Ni 8.750276900235807 6.07223131039113 12.716142305048256 -0.9343831117856682 -1.3330449982382204 0.6837262645919063
Ni 4.959489419559883 4.890008013296092 2.4462429231347853 0.6611674054547839 -2.109070780996497 -0.06776013826410911
Ni 1.8287428174333884 8.057124006520198 11.308901149059471 0.08814615811962884 -1.9613611614909383 0.7828325212674647
Ni 2.782328021016871 3.7852007561439622 11.832864452053057 -1.0308254484758184 -3.2562612732283207 -1.3746444189465616
Ni 9.035144169726033 3.2047103803984878 10.257864723486481 0.018879610513322324 -1.8415588099186093 0.9618085549864728
Ni 4.003352140816451 8.0454587029709 2.1873446424448764 1.5478627242461858 -0.561190059028182 -0.13649163930255204
Ni 6.786682431350684 5.214056596696525 0.6386155115611544 0.19489090517705143 -0.6056652586224214 -0.8040945159700345
Ni 3.328481385519387 4.433409286224534 7.930076136893922 0.4243374368417854 0.8192678812763633 0.45212720536054385
Ni 4.432369895613936 0.899659391440083 2.47904497717245 0.008391566497804901 1.9171052769963566 -0.2055645828408137
Ni 5.440086933408277 0.5616375005184284 4.602130223144457 0.9798199039622286 -0.28674922204094483 0.9246594567400012
Ni 7.788970509259314 4.636712233602771 2.8788085264182666 -0.43761744178014306 0.06218727216202194 -0.3917211934686609
Ni 5.93564424783063 0.5302924493902624 11.34458287190489 -0.1842074573212763 -1.545109586981081 -0.22838338050754217
Ni 2.95597121489984 5.881308247606976 2.46271912036742 -0.8750325377414929 0.9143979269129929 -0.11515276861545974
Ni 9.227774802799026 2.520856320538402 2.3565982670527315 -1.0291537172003502 1.9673695724685474 -0.6806028884715762
Ni 4.770515214170599 3.7021330297559305 6.109013673650985 -0.020625903780467702 0.1980497625210073 -1.0695863712940998
Ni 3.517492712001907 5.765406914252029 11.608819165802082 -0.8322650648669796 2.4323744051227076 -0.05898573450558873
Ni 1.5155892748976132 6.495959309402538 8.55342281477993 -1.0432233079195388 -0.7706969143461952 0.260080711610823
Ni 2.260396169850604 2.2834483687499296 9.923311798727696 0.5178132347044437 -0.10028819279880147 0.9343512301064683
Ni 3.782249629231729 6.640768694114731 9.357704197287715 -1.7096151949980556 -3.395342784745236 1.42781508943227
Ni 7.014782269010322 4.836859888055979 6.57397392697387 -1.6368846001025488 -0.6266943113785787 -0.016331647280488006
Ni 7.983308712621146 1.3482659471380105 3.954729076841761 -0.5947306139877887 -0.21216846131057654 0.9853660305914386
Ni 8.314568068382599 0.39362650450663583 10.413358486859218 0.508566262184879 0.7723203088822312 0.0012811807052687614
P 7.561464609091446 6.660721281728882 3.9561415344393764 1.220116490967589 1.1821076158239834 -0.6711833949298893
Ni 8.261754032981607 5.100883663694399 9.312447088442168 -0.11107371345007966 -0.9550092726764521 -0.2845889811648325
P 1.633922039859493 2.966977619044204 4.190889759897516 -2.2323397509611875 -0.7559218129195496 0.874606763057984
Ni 7.97486366391004 0.3446136690529717 8.003992585772039 0.3932057484339873 -0.095428550713655 -1.496454544977539
P 0.41669169578859455 8.483069990852433 8.838182433099773 -0.8927554089425529 0.022487125358922562 -1.0541759502763006
P 2.4672256210862256 0.5541919372426919 0.19937646374123819 0.9171070983140399 -3.0785054850696594 0.4028916082631836
P 4.014711195346554 8.649799381120266 10.68666810397053 0.5810598013689154 -0.1942671555501235 1.1979808354108143
Ni 5.2041174239826855 3.5519410865245713 12.584689089682245 -0.2668244580925598 -0.2539370606069304 0.9542531112367179
Ni 7.410817932467951 4.2986968388724325 11.74857080156092 -0.33567731520021543 -0.41187761381187776 0.09293226665436254
Ni 3.9302514279621863 1.905332913051802 8.039089651398996 -0.5712597845593581 -0.056099414096729194 0.31473516573090954
Ni 5.026799241869389 7.415690075955127 4.4413392797669955 -0.11031986600319066 0.292464013037535 0.39157824013289333
Ni 9.0845987461892 7.019700813864042 1.3648897007162566 -1.0301279081881614 -0.3341086851615149 -0.29065035686756396
Ni 6.137573714759148 5.366048912949813 4.589906247141966 -1.777040061409933 -1.4915180269078698 -0.13362588771898276
Ni 0.41163765894456356 8.747632022342769 6.419077813202225 -0.04155416929270263 -0.745339152307697 1.309144794581855
Ni 6.198526549852052 5.971215535423672 8.51719819594594 -1.1153954592084145 0.17720428653056577 0.9005569072648426
Ni 9.065026649780714 6.712959940184723 5.437692622894579 -0.00800924345772169 -0.04730624128513144 -0.24773581689222499
Ni 7.250371287230249 8.424298019987122 5.786711637687288 -0.15247978720069225 0.18550355042488054 -0.3423393006014233
Ni 3.600124265544419 1.5917988793103617 12.20009785926916 -1.149951857027045 -0.9296419975562571 0.18482657896251395
Ni 2.127901707819331 6.465937625248222 6.153726958480632 0.006918838607020342 -0.20674600474342458 -0.8011099794204138
Ni 2.7181827719057026 0.8325407427607403 6.4595398048290615 0.9110038136297793 -0.3316337412584611 -0.7556626457208921
Ni 6.1632058296383505 6.842707441316558 2.3477151894414456 1.3634446935760003 0.7411798787236847 0.7252128138714671
Ni 2.3091176047223683 -0.13274688546527488 9.517177341855314 1.3761989079178751 1.449515714334155 -0.5860842511667004
Ni 7.847863123677641 2.9273694125617866 8.17555421435182 0.3875269528816552 -0.5153436901180286 -0.5775088507928635
Ni 6.0170879263896015 1.0351216848755442 8.980433246460699 0.3121676621140495 0.43333732634755046 -0.5480494078811659
Ni 9.05505035597364 2.463151581103615 6.25743030059835 -0.008574886153204588 -0.5867663648353895 -0.6326096484217493
Ni 0.9249787611087754 4.602644350285772 0.7247429440591324 -1.5875818972126787 0.7687598452244825 1.241738440112739
Ni 0.590913050698708 4.564131216053806 5.189850859824902 0.24359968323666434 -0.7972579526641753 -0.24371769687176736
Ni 1.1580574653986422 1.1420953953073212 8.10833441069341 -1.3050168884564106 1.3842634300935643 -0.7681602639672706
Ni 1.0391586037649192 3.5799953527373987 8.485495854295381 -0.5038912253067129 1.284501285001562 -2.2435896128433943
Ni 4.832767287526751 8.221988061852938 8.65856552728786 1.9731918355772793 2.96947656996375 -1.1821132722509382
Ni 7.86086478658342 1.1048350979720576 12.737371858269714 0.12678109688300745 1.047318046814203 1.1808356910900952
Ni 1.7662216161512783 6.967406473768349 13.363014475772346 -1.7831551731687356 -1.9954776435586732 0.835143157745723
P 1.761256669931013 7.43936405316615 4.127295759020896 -0.05050006563208077 -0.525553797881811 0.2633830365111786
Ni 3.0726149701194987 4.642308238408042 0.1683172450309865 1.936841836193335 0.9196879716673386 2.2772983179497492
P 7.17747474038878 9.383933961768012 1.271088410219143 0.17334223247199823 -0.3353582412978999 -0.3472138550849052
Ni 6.558137140572219 2.004668958550348 2.028142481857899 1.1569750824224139 0.5261906601348616 -1.6014540272090807
P 7.867574424185761 3.260438421618477 0.29293089896833485 0.7058161545124103 0.3697297767992342 -0.005412943485455194
P 4.462734949880682 6.40938363970374 0.8412029498672746 -0.8147075155991904 -1.3978889912967989 -0.5597615541117715
P 5.165845576856751 8.47401244410294 6.530197021721091 -0.18877553630793295 1.2693124930762656 -1.3247927855317572
Ni 5.804458304335912 2.851299012248672 3.902327085575684 -0.05592406486112949 1.1912370889290773 1.3007979652790564
Ni 3.224802172112273 4.851986733549499 4.762106358525398 0.20265820782729613 0.37505170323277986 -0.04194163453910841
Ni 5.37252654371943 4.601428634482305 10.224071536259425 -0.13561052224917935 0.08819475196937714 -0.4869792800427226
Ni 6.597253492569264 1.9707402793329822 6.206916844950635 0.12411846244917979 -0.14136516534476945 0.19910905702345708
Ni 4.7864587237153025 2.4022822684704908 10.479967648533904 -0.3855975970694262 0.2564251171361068 -1.082271422960936
Ni 3.6271948227865023 8.065383449765124 13.009173430968328 1.4960683652827136 1.3078499870298315 -0.6784624450898058
Ni 3.6244757027069925 2.2752446071448555 4.633656239602148 0.2998744465689932 -1.3091262826390937 0.331801377184577
Ni 6.8936375812358435 8.02489361731836 9.607447488358387 -1.712689205937689 0.3229146162179084 0.4133739958517461
Ni 9.04562159829179 8.443740192569283 3.562612472802484 -0.06010365016011584 -0.4694124748035529 0.14415224117160333
Ni 5.638879667958385 5.993645956011301 11.918869384943358 1.1440396053076682 0.18752572306123189 1.837445559081184
Ni 2.1117169111685965 3.1330388296337954 6.3821052043395365 0.7644948993005415 -0.4466821230855727 0.0781553654555041
Ni 1.7216577437219045 1.2159292497529894 2.69326987820794 1.8348261191804658 -0.6952049546554673 -0.6335982375872636
Ni 5.415986063625043 1.013777056265057 13.53624655354773 0.24782194884812803 0.3652663417112419 1.5567996217244995
Ni 0.37455832693882357 3.4295064407601545 12.329200381406029 -0.38166792299771685 0.239490031943665 0.7613612387675662
Ni 1.0147793257824191 0.8137027159709891 11.909375665348346 0.5723360483426724 1.778743417254285 0.017184996419718792
Ni 8.74880133677969 7.09311705601081 10.085976429286227 1.6641663186366373 0.2260753011996558 2.374786322295594
Ni 1.1088441760415058 5.67926741739875 11.181116425732469 -0.17752053221940395 -0.43197464167206895 0.07490189151521294
Ni 2.8692934621946438 8.130503127573729 7.522705547616793 0.24537760107269357 -0.21041959694026988 -0.9025063176817296
Ni 8.164524609524182 6.793744719338763 7.692665401023456 1.0191919780019478 1.5159100825989893 -0.4723227064718124
Ni 3.2818944135086716 9.117933487914797 4.2421233647540015 -1.3457606460326759 -0.9138623661244971 0.2938359536843972
Ni 4.8102440642060325 6.415787028286886 6.754187554359544 -0.9030840445620704 -1.2370004112071211 -0.6866802050139077
Ni 1.1283141894435935 0.8030359698297307 4.846943833033438 -0.7320491200670102 1.234830657249312 -0.6430915217896795
Ni 0.7667333966999463 5.55983958018642 3.157904393937682 -0.06772465704048337 0.776408877129308 -0.5072974227747844
Ni 0.00698990185626914 9.57789167392418 1.2725853183038698 -0.108215160955362 -0.24535034737918393 -0.4766845829849339
Ni 5.595104618760268 3.4709521413577358 8.10404228428804 0.7551659085901318 0.2650570817794919 1.4833804854024002
P 8.949774935557393 4.797437287039741 7.046051221897355 1.9089497377687576 -0.25699564492759613 1.7782700771622921
Ni 1.4371802457106535 2.197466636542902 0.34100271470847576 -0.7397174352455453 2.152263257223571 0.8013544913310522
P 2.3556396148199212 4.61701021336796 9.867201410247379 0.8650934242509102 0.1421552653462326 -0.3789312407928442
Ni -0.2619756193191429 8.246487983388453 12.447776289528601 -0.6746086185613543 0.7409191688631304 0.42826016893495916
P 6.9392408442758144 2.7822166577371643 10.111552862525574 -0.6492323445800947 0.001581999775139211 0.5209654071801801
P 6.923037487078462 7.577807170388432 12.045146991884993 2.3827598274193735 1.3879663328664482 -1.8228396362425512
P 4.49740605096276 2.811653684673019 1.3730665495287349 0.8394878078676639 0.5549934432991668 -1.0197468220641532
Ni 5.927913780164309 7.878033292204899 0.28774786632531 0.17500933576177602 0.5783763409994813 -0.41108905647231136
