# total energy = -340863.25076952897 ev
CRYSTAL
PRIMVEC
9.38187371750288 0.00000000000000 0.00000000000000
0.00000000000000 9.38187371750288 0.00000000000000
0.00000000000000 0.00000000000000 13.73132051989442
PRIMCOORD
 96 1
Ni 5.746163122201474 7.564998839597014 7.792318825885443 -0.4685776376070834 -0.6876114585789255 1.3052431455346039
Ni 1.1319981223700322 8.502839084806412 6.77576090720281 -1.4979712387323814 0.4087251842258251 -0.23191221959640707
Ni 2.8334572173371257 7.302400193463835 0.7979546312910364 -0.24709818330822605 -0.48013680319959245 -0.5119899431544472
Ni 3.8339683791656602 5.80907796753799 3.7540882915353735 -1.3433234973460928 0.370165321674756 1.3963676695562661
Ni 9.230178228790724 1.374735341784243 9.10599411877263 0.6132088752976342 0.5636444341059453 -1.7523466724283112
Ni 5.670104271747681 6.665098891813932 2.19199974561802 3.0410355131486595 -0.2941524564835514 0.46182540648491427
Ni 5.7986171783118925 3.6726658238613457 0.350909285511065 -0.09845268225195948 -3.5640264353993003 -1.378592347850716
Ni 0.20886114969439348 4.572809700361808 8.430508590979032 -0.030788703246082464 -0.7600805722829297 1.0243796928504747
Ni 8.716511259357436 7.089591151297385 11.644530258548993 0.7837424346762437 -0.14990714137750957 0.9047616893748096
Ni 3.149551307566461 2.8540504302082343 0.7628926927298032 1.2113269177004171 -0.6204056501563896 -0.4122223987458062
Ni 0.4846235028797156 2.3957365158726867 3.823966363565711 0.6495491044895653 -0.9906239365562682 0.12758456662090928
Ni 8.681479342792187 6.723219599666559 1.8099942395778938 2.3654383054217907 0.0354997355685066 5.066925193340287
Ni 7.991883476885539 5.703072176088945 9.870224666698522 -0.09875221577024927 -0.6786107977422119 -0.2741418176895795
Ni 7.469350636762868 3.5191033143969697 8.092444028812766 -0.9324483566568006 0.6352838528198026 0.3699727460479757
Ni 0.544838244952312 7.859730403308119 0.07499682234581681 0.6249269350655109 0.07399094966516934 0.4473534381209844
Ni 4.930230944439542 8.66522993746519 0.9576866609303742 0.2655363354087556 0.1385202396968066 -1.0566676063499028
Ni 2.1137173910865714 4.919244770283701 1.359666176174414 0.857357231948917 0.8351009916538779 1.4643656348627943
Ni 7.823478843155971 1.1289771590240198 10.787888254231108 -2.645350449936244 1.729778814430124 1.0487612070186325
Ni 1.9278812359380888 9.09979832935118 2.521207818968647 1.247113588381723 -0.6238509283925128 0.772439865179231
Ni 9.415742309600589 7.35134542879348 4.367053950877135 -1.22080580372513 1.0786664792184972 0.37156734422860527
Ni 4.464843097299978 1.4838371515692643 7.405301522890533 0.264551345787667 0.4048235351785738 -5.3478945754746604e-05
Ni 3.9683355749469893 0.4568841167767512 4.737827477669292 1.2450767604573525 -0.5924451603877215 -0.2878704801295816
Ni 9.032558440218045 4.056196822572471 5.305837074397944 0.6253424253363745 0.12192608278355131 0.6658666107026661
Ni 5.326549437065618 7.462914671373536 4.498380481377587 -0.5310839836714208 1.2674947231412363 -0.22673658893273857
P 6.428900838400251 8.052452853785711 12.894849758033631 -1.0943535509364508 1.22536102719598 -0.6425911851144933
P 8.492012402504244 2.3639225820021044 6.661612587530149 0.6105159018465033 -0.5240196206254717 -0.7919339693481006
P 8.80294646217362 8.73837102518417 10.308006350342307 1.1923326359861015 -0.449240113620736 -0.8115782259415893
P 1.0537345315860742 6.10266494265216 3.0390844351514867 1.373775643188363 -1.093670408826497 0.5307340565311699
P 5.286244907455467 2.310558484138384 4.476506642740234 2.3296747746689364 -2.981081758302847 -0.5497501926223564
P 7.461244697846858 7.904782161033433 3.386102119432968 -0.9393044603466855 -0.12050914783136664 0.9310260223879772
P 3.364199196987004 7.086260586117775 9.62834682691939 0.2685658662636987 -0.420417790072405 -0.2892696744699534
P 3.865003617515377 7.567147288684706 2.597801436225928 -1.2826287505691973 2.0581675663887267 0.9790280041885527
Ni 8.291906417389038 0.7290982453115707 5.114339896631498 0.8112025877697254 0.3222952374663546 1.2828385525871584
Ni 3.700548752632615 2.059715325808165 9.77210058738297 -0.9164290984104089 0.5562784806591774 0.1493173303123106
Ni 7.622950673722224 6.671018854147266 0.14967653735903977 -1.57446798553854 -0.08124634567600202 -2.0406303288359116
Ni 7.323490645643448 3.0296791067217437 4.193957442087504 -0.9076662646161143 -0.365784418998241 1.8335904470011517
Ni 2.3270424363090165 8.096219294807907 12.216453973004215 0.14947056806072323 0.9134772148709365 0.11354197248491413
Ni 0.6545742694025211 1.3897744853980867 12.081475079054687 1.006083722754764 1.4520346241012672 0.47135931411727855
Ni 2.54550874834393 5.640898498778313 12.629986327578315 0.5451121796297128 -0.08756997390118468 0.7056953126638298
Ni 8.05454501163093 6.102486687050998 5.96532463108092 -0.3928105698780977 -0.38057648970575103 1.0063143507083314
Ni 2.4476933326746004 5.3840509412510515 8.01300864199801 -0.9400374818579681 -0.9781952238746121 1.2564582628214167
Ni 4.031456821505905 0.9575984713171676 2.5391131250117045 0.2139900879003476 1.3442503800357364 -0.925559085736135
Ni 7.6996193459694675 2.0010504692783058 13.392802088943407 0.33820599515934013 1.3563569334912833 0.4556958965484087
Ni 6.556616285696106 6.007795435338879 12.048107506891872 -0.5831624495342149 -1.0708312994447946 -2.620932683213512
Ni 8.361679412433428 7.9356016162870056 8.209091679651197 -0.3260657602523804 0.3158795637479979 0.03590596986798977
Ni 4.126251273829221 5.835140812802656 6.440593467649117 2.4701673076007653 -1.0856737637742657 -1.7997089637623584
Ni 9.208590537302605 -0.0023876868681991514 3.00196880442739 -1.8135211870551025 1.0001563015267356 -0.7887386023392545
Ni 4.67082213537979 4.0249551830003565 8.40266225151537 -0.45184644089533155 -1.0104947073382662 0.12914985422550015
Ni 0.996364373633077 4.344914605212788 11.265120716974213 -1.4547957317861722 -1.3937993946084577 0.07516928624398668
Ni 0.9235741679921734 3.6028740650694657 13.5143517688138 0.16492212672910309 -2.0439043716014926 0.2594716172719144
Ni 4.725968789255133 4.476701785714138 2.227234310656168 -0.05755028761064282 -1.206929817073986 -0.11083125842197042
Ni 3.0452999265078007 7.472615528826259 7.286690245877196 0.5494591437444989 1.8063532085517537 0.3362486143226531
Ni 7.982586040003868 2.6285101853693047 2.1937569705705298 -1.5281788726640133 -2.7298983491816533 -2.425976986236796
Ni 5.501146107467136 5.84526385457392 9.572693551861798 0.11178873723923329 0.8445971040697713 0.6469492049728728
Ni 6.917189839352286 8.158139661527414 5.958404561006327 1.2779627125520958 0.6422983364644228 -1.2125373930687504
Ni 7.9960302650809965 4.389966362938101 13.399928560240399 0.5477794420492308 0.1779581339774548 -0.452297412389821
P 0.04700318746435264 0.7299735741320146 0.6519435920043165 0.9618147256340596 0.5175381266661861 1.2305423142866032
P 8.366398494927354 3.305881469785724 10.871127990849615 0.012837260973984342 0.6755334443684688 0.20702702631895314
P 1.7434617437251587 0.9169139758203283 8.159343355928945 1.1343899980330465 -2.5577722485049432 -0.10280170324927458
P 4.817160602060223 4.61770196623345 12.318642280026268 -1.2828272397332487 -1.532744894768141 -2.7677511583633687
P 1.2100740756790827 0.20581391710189414 4.838931240086378 -0.2979119235259837 0.008020556311631349 -0.9565437070431075
P 2.9457582460693215 4.077024582287214 6.184312575296076 -1.0056517774236682 -0.8277070131826519 0.9474157765999103
P 0.5714846427639396 5.635672795102136 13.683727426476013 -0.677335273463898 1.2898388951643915 -0.5954248118413358
P 5.949918656203632 1.4251441494181685 1.3989602779821881 0.5690488929509684 -0.10976013684497872 0.4755520120423875
Ni 2.643643147720602 0.3401689164473542 0.5535408710385263 -0.30754224752689613 1.032786171746615 -2.4743954867495
Ni 6.79660461610292 7.966815110237884 10.031017786258463 -0.6006570067745526 0.139614758312566 0.8646517087278013
Ni 7.365136783199189 8.860982733162539 1.375713871215886 -0.00215818399358338 0.3670995382652387 -0.6615934372486091
Ni 3.480393703323533 4.761507327002631 10.475624783052012 0.005240165353016781 0.5920826348419803 -0.11971956205053576
Ni 3.777592699829673 3.5563774987873638 4.290708015086732 -2.715942915442826 0.2926992689767927 -1.242220264845164
Ni 6.877035419722061 0.5002039806086678 7.541337754011166 0.0703088728278918 1.2318839159161623 0.7157118163595674
Ni 1.4640038704715315 6.4333947559242874 10.585145024406076 0.1314139676693285 1.3089823008620618 -1.1084020586097167
Ni 5.779525065240045 3.33888690162197 10.673011901155805 0.2599948367652361 1.2213310801009805 1.5471919234314062
Ni 8.413598701740359 9.393038175136772 12.737914464957791 -2.0826370122850006 -3.7975144841232598 -1.0064053677602411
Ni 3.0785399051876814 2.9528884701158105 12.179887181894225 -0.12702458035238123 -0.13665696123582272 -0.684203461338641
Ni 6.3534236641186705 5.2731665754544075 4.327933413733651 -0.21347586726809042 -0.49934268670408194 -0.4190538198453428
Ni 6.5026142204177 0.6003489155289751 3.5431199729977676 -0.5976585862678611 0.13312092305810622 -0.7256095350892535
Ni 3.5351275547540784 9.180670081036356 8.807928237132415 0.2997332930054386 -0.33895958549591304 0.32204352646686474
Ni 4.439324400712545 7.247037756492348 11.636635411792257 0.6835730268434937 -0.03509093016586215 -0.30455848230822385
Ni 5.324551097957853 3.472193945670071 6.218612705709186 0.6585981020657109 1.0656330430733065 -0.18035517345472163
Ni 2.4876694967036634 7.80736078406141 4.466661304431832 0.67168476004634 0.1409789856499443 0.47976013658646416
Ni 5.247694788235701 0.5618081781829549 10.612484742687489 0.7898727159436977 -0.7993791127722363 0.3381545730961144
Ni -0.05233302993910289 4.2962039167267765 2.3736787925099243 0.7507862914651973 1.4060481300688235 0.230852410873325
Ni 2.465012271608571 1.6501590093273568 5.836470224312376 -0.09733476659743236 0.3725340790172488 -0.3771504947433376
Ni 1.6075277750283512 9.42362308354671 10.36529300961897 0.07070379427346533 -0.0018648211228806592 -0.6507467243420921
Ni 5.384688908665736 1.3108353997044615 13.101245351307739 -1.0623921675385057 -0.244764650079043 -1.0472938784444865
Ni 1.5385803848735553 5.821396367765675 5.396298977425644 0.4317864369206629 -0.7985841276747667 0.7869146617566383
Ni 4.970113289731151 5.753002508161856 0.15965228371250206 -1.0916538926171007 3.2689350120412475 1.6515316605917623
Ni 1.3433717378534384 2.742603151986868 7.347808462391472 -1.2928535136209993 2.7386339292824387 0.7685639271635925
P 2.316318954618047 2.714185456412112 2.6159675583591064 -0.35262448457751533 0.23455968452158313 1.1694868417361794
P 6.131401621934258 5.390158541059293 7.428232698698991 0.7376705800188457 0.13518449045535427 -0.25305645777419
P 7.004065990234503 4.630367495789713 1.733977607555954 1.0601157127995033 1.2696040561747552 1.5060974673839416
P 3.4039032866774517 0.7714330124002224 11.859851766504455 -0.517384117586825 -0.3733671164415054 0.22100200044180648
P 6.221692774859793 2.0509057463612534 9.136711311602378 -1.1076176150352086 -2.117016003985502 -1.332851908390808
P 4.751656359569982 8.88337726579276 6.447610171023287 0.0517107981107303 -0.2744290099126951 0.4671671304128019
P 1.9371786728197602 3.420584258196737 9.60439959418431 0.40554370117405003 0.5285118520688704 -1.104961151248968
P 0.23296224515889957 6.410427928995598 7.478076717533445 1.2981114195858288 0.26040852726388697 -0.845606519170892
