# total energy = -381169.4677101817 ev
CRYSTAL
PRIMVEC
9.22349713050351 0.00000000000000 0.00000000000000

0.00000000000000 9.22349713050351 0.00000000000000

0.00000000000000 0.00000000000000 13.49952037586738

PRIMCOORD
 96 1
Ni 2.7481316563666955 4.67539054204672 8.6406917338063 2.80790279088159 -0.8048946432738268 0.689154120475697
Ni 6.707714280092997 7.27730210320121 0.8777162592871447 -1.3893207900118136 -0.8486666461534546 -0.8837310939567554
Ni 6.8355150521399475 5.82151148137453 9.750109612206971 0.8324105893059084 0.1613662910570447 0.16205277560110798
Ni 6.9623565805168 7.468145476066645 11.531722104177485 0.21622643343003406 -0.90374687495705 0.2965296984664764
Ni 5.81662302805576 7.879983832927817 9.41453850591608 -1.1510759433291595 -0.6104832488363551 -0.23414727957451287
Ni 6.915722580555094 7.573726844255259 5.091033591349388 0.3827534427524118 -0.7268176964647417 -1.0733566369698095
Ni 3.306319237395662 7.507253102616808 8.744071453302102 0.3677507986959924 -0.3049893991980554 -0.7108773710854015
Ni 3.729244237443933 5.431200766109605 12.565542357877577 -1.3990881538112225 0.7931033070658534 -0.6755789528944237
Ni 3.01125035037531 2.1199008404268924 6.71247452680586 0.6110674034745992 -0.2862717681838941 -0.2558041957226562
Ni 6.621612937204841 0.19775084963982534 12.797788163303949 -0.604528831025133 -2.078733820575852 2.089227521018324
Ni 1.2167913720229422 8.003034504108413 7.292831704810292 0.9849801080069294 2.539229195395433 0.963628638914347
Ni 2.6999850029252204 7.5451063335983815 0.49582290722733174 -0.037043168796226524 -0.18794481287652148 0.9172472234363299
Ni 9.174824435108185 0.47662327623044 8.599531879211934 -1.0879710444488748 0.8537967682911684 -0.6901483660681662
Ni 5.017600721354309 0.6676105356463891 10.452476128600136 -0.587451306717556 0.43221015472164276 -0.9249996136882394
Ni 4.719598762342694 0.6270640435910776 7.94030919158081 -0.4751390928746849 1.0787474689680776 0.6356484352480731
Ni 5.313601181554276 1.8063572892603188 1.0542060263890496 -0.13936613263686964 -0.17444934949324795 -1.0632012937033624
Ni 1.891231907070368 9.0266581820653 12.626006068982988 -0.7477485330801381 -0.483908868647515 -2.09737663248802
Ni 0.7609633917406152 6.127989833970956 3.794850048030881 -0.6475616417458911 0.393600926989877 -0.8603782781634279
Ni 4.379085706451432 3.1421409938595968 12.518483154712108 1.3565968174162313 -0.9302703751688753 -0.7088721677299147
Ni 6.346337674377095 5.010443287815883 2.00129036061923 0.008832253579649304 -0.5023943290462122 0.5683786063568211
Ni 4.4422020952445385 5.388034800955178 10.244056460179515 -0.7735649799226098 0.8245712957671476 0.16748860190469864
Ni 4.894042757848178 3.4758932265760314 4.391326209091697 1.148773520448228 -1.0033488403221043 1.6431048699806476
Ni 5.79056664951703 2.9028096981700564 6.784142941857767 -1.182692541793176 -0.01963860016653392 -0.8689153691001616
Ni 0.1766530229957581 8.304421486455857 4.85082329641215 -0.6199081416946808 -1.7114694745979753 -0.8058269252801089
P 6.185756594603899 3.967238126093432 10.582705447361866 -0.2899168211356491 -2.082250575479859 -0.8519093214604682
Ni 5.303289312100719 0.9449656970088193 5.4849497715243265 -0.6832290132405137 0.026478763016818913 0.32583796051229047
P 1.232821809509778 7.721929991285456 2.163122146562286 0.2420742477310734 -0.3061366254286212 0.2334047449815335
Ni 4.165783118810138 1.6209281090328436 3.324472923852274 -0.5442241205978047 -0.9081115796836489 -0.8447523987007128
P 7.335991213516939 0.5488248093989972 1.5933885922041926 0.07711715399897687 0.5980997875703377 -1.3402569426056272
P 9.168736927201792 7.1577655843120285 11.848730923102286 1.2263799553787975 0.22381067353519518 0.03804795591165705
P 5.132829867224874 7.4374127846361855 12.85323060273627 0.10408931171244655 -0.2055383575885686 0.7944040281551479
Ni 0.9123652474707168 0.5241713247277866 1.3613862870940765 -2.0242817122745587 -1.4734614265164754 0.1604448076840398
Ni 9.044321178490668 6.755990062490063 9.608729085780348 -0.6086824481821904 0.8636186394775965 1.3382185720193598
Ni 1.9652965865981546 0.3267645115196408 3.4878846948019433 0.9964446570031034 -0.9933333650676311 0.37773902025695594
Ni 7.281895404621489 0.19507511321006057 10.21503288271126 0.9568486398780358 -0.03953019688413837 -0.6732929850737244
Ni 1.0317219081717537 3.38189657040322 7.6170228607149575 -0.308991578378913 -0.27697928713837455 0.2748599268025266
Ni 8.256791348836742 7.948892577728825 2.398297334581189 1.2043890529300032 0.4107607265986151 2.5887782099681544
Ni 8.936655300018955 3.1316169839789985 11.895155549685999 0.4960874129915779 1.2477355382364381 -1.254549732944794
Ni 8.657939672874415 5.76347723933358 1.2879192901607355 0.3618246630195446 -0.2830206082364481 -0.3051007279649391
Ni 2.9153628773527855 4.325773894786351 6.218797004940691 -0.23382409190713924 0.06971983309364121 -0.528615210415954
Ni 8.485165130294774 2.8151680313116465 9.538180403243347 1.3000564591273418 0.18116995604653313 0.4617040504157016
Ni 6.167558635362513 5.540536097507161 6.458858801578999 1.8265507665455512 0.16320180160388664 0.3906053346966628
Ni 3.9644157360641046 7.7453300027377585 11.141491633334962 -0.2042846876871256 -0.2835075751751956 -0.7482820369861048
Ni 4.376991972671506 0.29553928535857366 12.548937296538364 -1.275457429631739 0.6965426996302843 1.3436554267642151
Ni 1.7207632386976959 2.4297273223718348 2.253799266226747 0.011011263508839101 0.86305788187812 1.4159090820233033
Ni 1.2677327450032618 1.9111915542058762 13.007597812696531 1.0203482030935782 -0.13954790963037256 -0.1944777288990328
Ni 4.2028154585740305 2.8358102172124164 9.512544616159968 0.4530947114801358 -0.23567837150705861 0.5050181398223045
Ni 8.574743731487038 8.415905892614306 0.14447685431173765 1.801267052278098 -0.18572595084833177 -1.8803585563946261
Ni 5.5837758506362105 6.805252759047709 3.172414355148028 -0.11173705806569144 1.5326435933035862 0.8950125804078457
Ni 7.075215287702604 2.7112376690552202 2.2485612423782007 0.31169817867679867 -0.9401966331436518 1.125691956038416
Ni 3.1800680128157937 7.096576906355947 2.952871149552997 -0.6880076655760796 0.4049963133110122 0.9690822058297504
Ni 7.040230564234497 3.011268797368966 4.820476147149097 0.6025187425736398 -1.1579217626063993 -0.8079059192963247
Ni 9.212428631675406 0.8734586931514005 11.213889626985951 0.3001901780371991 -0.2515701030366506 0.15845657360941745
Ni 5.68323281693112 7.952047013643956 7.077569124093075 -1.0805009613240748 -1.0036787128576972 -1.1628986469957003
Ni 1.4642393449210076 8.652958984587364 9.929585025232058 1.1226040611417119 0.2775140765959221 0.3357655040386475
Ni 8.253729147889889 1.712111598673155 13.363242015133912 -0.7961858026459192 -0.9807362451289111 2.9184260311448385
P 2.049673135579499 0.8387746556798824 8.132097050521418 0.6215644463511811 -0.5888037069803924 0.030257256222644666
Ni 8.89270533763416 1.1580100267389337 3.511427670455079 -0.8245715528774638 0.5419810901998989 -0.2327789384720765
P 4.377609946958973 8.600901568490873 4.200848086700646 -0.19754094120538881 0.24549304360463525 -0.1990013278009992
Ni 0.7840332020064807 4.606168198353563 10.15836187350147 0.24796875883863748 -0.3689525323135775 0.17392227334518431
P 0.23191837128898268 3.5487219575288833 0.7635948553856062 -0.6807090750321374 0.7338296090062006 0.36471098342840413
P 0.2618772113355835 6.561235926969612 6.207470550836067 -0.97082489955247 -1.7789820156276523 -2.147090968994012
P 1.759723289298614 3.0412174915690557 4.405527627157567 2.0246936030009968 -0.4475971787006743 -0.8316230604076064
Ni 1.1255894353889748 5.825846524883628 8.0116409489985 -1.1482510722858548 0.21091504851944964 -0.6873908579276871
Ni 8.019470775455677 5.1140877216706455 5.174122540173561 0.8534380994001689 0.02056059776017104 1.9882399881596533
Ni 8.089965961711078 4.796015433561588 7.952162307354303 0.047026248150867395 -0.03747485701700643 -0.32412354892434503
Ni 8.117894710105865 2.459436205654401 7.051190845515054 -0.712368096698315 -0.6529352473529787 1.4141339924007517
Ni 2.537660682251556 3.6251109582572933 0.33700720474698914 1.5635467106403458 0.19963664739215295 -0.6627236941983102
Ni 8.023012598237578 7.38645296466221 7.490181332338105 -0.7408482064158789 0.09573554043111254 0.3845992377118989
Ni 7.112782590282514 3.9459410719178836 0.20677235188716384 1.222935448473623 -1.0685913543706824 -0.9783957699211923
Ni 3.054905160861613 0.9392471289755406 0.959011237978298 0.6224900434892441 0.6434134239054725 -0.2137543177404577
Ni 3.4273222922804742 4.716305973975145 3.5202702368639565 -2.476643402243412 0.36395610754025065 -1.285233020961264
Ni 3.1486251121295887 8.981841210978684 6.223170787136466 0.3040877133193924 -0.5567883304160605 -0.7403175307233895
Ni 6.555840181325308 2.162550289758958 8.797731913147278 -1.9648033544032675 -0.4179695856422285 0.9424946851492092
Ni 1.7920516456802942 2.4861566759647364 9.701821839264031 -0.48458969676462355 -1.0908838472202955 -0.3870728960633721
Ni 8.193887100470677 5.193594264326874 11.830952632966572 0.27915958261914503 1.4866486146307105 -0.17666692596985703
Ni 8.945279269553012 3.9334893512002607 3.027915364443903 -0.04917980415876046 -0.20628654860850282 0.31093738925137415
Ni 1.7387398340152125 4.824663614708949 1.9649497831174267 -0.5257240049110881 2.019507687924683 0.22062301983583296
Ni 2.0338179445323927 6.493729153686439 10.733860113376979 -0.06951491617168673 -0.2759035375756926 0.12995743772846005
Ni 6.409500180654342 0.36613316303003346 3.4478039893364394 -0.2760398060432407 -0.3585531913571244 0.5691931318383164
Ni 4.463397690954982 5.7863791819571775 5.136404894595357 0.5593350080973142 1.5788918256378486 -0.4328369896723642
Ni 5.900796660106891 5.169760748523661 12.24334901138583 0.31941508770508215 1.326299709094587 0.7842260591808817
Ni 5.48367323956335 4.571404838809325 8.346874475305489 0.01766065050455668 -1.3444236723888072 0.47846430059317596
Ni 4.720161395649195 8.66908165704248 1.4845153579977115 0.6732492763199824 -0.20846812964085387 0.6047201211003327
Ni 9.26703173289639 3.2227635796319984 5.41741163835194 0.4985361316423865 0.43505276637676044 -0.5947401270694854
Ni 0.9152983194619791 0.9399757852249422 5.579121674136868 1.0696575908516675 2.1884564193146763 1.830461671564183
Ni 2.291605457374499 6.514574256517423 5.472111586289616 0.43209188397622356 0.9565187673424429 0.5555184625647014
Ni 7.645328850130005 0.45953951540586124 5.812947464569853 0.22309436419446096 0.616653382202809 0.1203091160054186
P 2.44147805733054 3.068057867338154 11.60524075269306 0.3062512966296145 0.7471273545563714 -0.03460524877869524
Ni 6.679610285258481 1.9005384153696876 11.609763033187765 -0.23738429845457182 4.147430054410044 -1.7234626424041093
P 7.034973171042612 0.17387859514993514 7.979283077426969 -0.3497564190011009 0.403226365894783 -0.06333681238543286
Ni 1.4985784236111632 5.765958359980275 12.997459344983337 -1.8970465585732683 -0.23372459021479747 -0.08749412635792672
P 4.5658707407126045 3.675563485905736 1.908846018962549 -0.02854824395133793 -0.034279490008160315 0.11099786590682173
P 4.287016761115646 6.056572298032767 7.369549984375457 -1.4579106232660697 0.2737934332112252 0.25660303747486773
P 7.691169629364513 6.059966544865423 3.450666040402127 -0.501865967346568 0.5527799805876157 -2.093028382821654
Ni 4.488596284288719 6.214995079548244 1.112626732947088 0.26781330436839035 -1.428312597893979 0.2873981684788534
