# total energy = -381171.24277637154 ev
CRYSTAL
PRIMVEC
9.21320677630427 0.00000000000000 0.00000000000000

0.00000000000000 9.21320677630427 0.00000000000000

0.00000000000000 0.00000000000000 13.48445940233017

PRIMCOORD
 96 1
Ni 2.422999729308968 1.5494771494006745 4.709393396127784 -1.6765472087994935 -2.2611551325309835 0.8735042740224248
Ni 0.5470406135073709 2.125956723161821 3.253341850757212 -0.0676755489701028 -0.8825460725097187 -0.33258016433213045
Ni 6.50212869198497 3.447480705536265 0.5669485111433857 1.0733725778094094 -0.4223936828518532 -1.1942108268454206
Ni 2.381217835668035 1.0054096377847985 9.513772192226886 1.0262493990693615 -2.5770041001513615 -0.2713064051233134
Ni 3.0382669044435047 6.836780009012444 1.6676098105811383 0.9224508791244566 0.16243818396498477 0.871495471122512
Ni 8.976234080395647 6.015984612633822 3.5083597345992317 0.9946579974163257 1.4466815873194696 -0.45414217890804365
Ni 1.4330037867967782 3.630998575312172 1.5784103045914102 0.8509382157964506 -1.1009872542028845 -0.6110216378383284
Ni 8.367305591661323 3.925047289191777 2.495204553708825 -0.36163363005466104 1.0123965523466694 -0.4910927879904639
Ni 2.1001413172121204 3.675526004632266 11.854147881365648 0.4131595658480949 0.3759623879725073 -0.23335229447704325
Ni 0.10540461574166583 1.492567169903422 1.099050830858164 0.4320790284604171 -0.6978290225418755 -0.6441652144698325
Ni 3.251018279957599 6.297365166919979 5.938543001388207 0.17409942235299694 0.5121046143554406 0.2324398099651029
Ni 8.139555115188585 5.4560243189825295 9.6802640555092 -0.46116257608993483 -0.49260511086993225 0.2269859859393833
Ni 3.69845767679815 8.966919528141847 5.819879659485866 -1.3682205176980888 -1.7937846278581238 0.007370581432458274
Ni 5.6925457684974194 3.8408846434564032 10.165313605871473 -1.0040216980194128 0.2590412146027152 -0.44789259845390605
Ni 2.459456389317164 8.29573739986358 7.792318557430458 0.20942560845811675 -1.2126947445822212 1.0207901757270033
Ni 3.0859728901706824 3.2922289547659545 9.630021673901242 1.3716976776134118 1.1855798906433002 0.22313164519029963
Ni 4.7522090115915425 7.409205771703687 7.859444140823866 0.5042570932865638 0.6852992655059811 -1.1282124084674245
Ni 3.956427472155617 2.9962178278002383 0.5219871397746723 -0.154986612782946 -1.4216809515100741 0.34946999810893364
Ni 6.952875630130281 6.870518772962409 2.8282573793257813 0.8230173210164665 0.527361283404195 0.7007793634194511
Ni 8.96296706234869 0.7888449159029023 5.188887382682895 0.21082505990880465 -0.8348947891803428 -1.4434954762820043
Ni 5.684161750148302 3.8083343832064767 2.5493312233783105 -0.20041749142223547 0.5399722872999861 2.179166766482634
Ni 0.18675723334903863 5.483304624841582 5.641790211260838 0.7997089853078292 0.0774339139084473 1.088427672370319
Ni 0.09959384610123888 4.03490556918615 7.901825814239005 -2.1270067966496273 0.8133024077215478 -1.113024902093709
Ni 6.006734552828862 9.025183849064726 3.0286096208901587 2.559143674931173 1.7000913146680203 0.10681288129119669
P 0.3184517351997235 1.4037426414376595 10.997440325511173 0.3036226007575158 -0.33964272760586667 -0.005982699945996148
Ni 6.046001240965059 8.566568832161012 5.6847246770946 -0.6327186631957877 0.9829005997700814 1.35245939820909
P 2.7385428550660356 2.6286016562088697 7.632419665060922 1.5798778437002015 1.2735517279685937 0.2926542746714702
Ni 6.817598112086221 5.295299923267851 7.822361904061928 -1.4809716188505913 1.5279186770240911 1.0554321912809048
P 8.78674605249861 4.131810080170787 0.21912783606291225 -0.4308189308010709 -0.29945921340844556 0.15704400953260697
P 7.456819625361095 7.798703309865554 12.628830255503425 -2.1973670915407446 -1.921545829266213 0.22292955648182253
P 7.667884983998388 7.463950647561332 8.820238823822288 0.049012425342960755 -0.5014985567048201 0.27782852251254736
Ni 3.830657983711875 0.3262700626404502 13.409903831321184 -0.30863419503949424 1.611999921045727 1.285206795709019
Ni 1.2040187405891174 6.920030547257089 13.224667698444057 -0.38514456869240765 1.3364763925172725 -2.118491045869132
Ni 0.5214850199944229 3.207531943025912 5.199256847135567 -0.7152276776342973 -0.448364395884002 1.8427507733441815
Ni 0.305000453013227 6.6937449706937056 7.713232388739439 -0.05946601657611694 0.11768016302300378 0.9985190230336288
Ni 1.8172221573607947 1.6402825173665032 12.912476337385241 -0.9187916851053144 -0.6696497318941822 0.2254230123276376
Ni 3.9406452486039267 5.307756179100826 3.8349798991048103 -1.226289195437204 -1.0899433376838972 -1.0216964895913565
Ni 8.891804251657938 9.179763035725712 12.649839131373199 3.4644938898196016 0.036485239410227494 1.8488458304983255
Ni 5.090140230302847 7.18712141752184 4.155330476262504 -0.8244543105733091 0.09916487782763565 0.3246261995923764
Ni 5.886879943264386 6.630791127419506 10.561149830433553 0.5274728692813949 0.08997241269509021 -0.9495621335189517
Ni 0.8330204007164731 5.775243514323441 1.4610543167591117 -0.7627372931794865 -0.21012880517272842 1.3974858423211094
Ni 1.1305802677750327 7.864209211472398 5.829479821155955 0.36943332860473793 0.4004495744805942 -0.6108558016844254
Ni 4.9666556171894145 3.2871248381006675 7.78208360579965 -0.028587324719389476 -0.35310528086867576 -0.10864453518329677
Ni 4.477977905919577 5.385838108231345 8.779327578240688 -0.3456647654302305 -0.11673553972154734 0.07853151784800023
Ni 4.844903086987667 1.2004624426959751 4.631075608898652 1.0530958298382442 0.9821529229707795 -0.5121928031938727
Ni 3.686904315248926 8.003770870760787 10.288264774300936 0.8268246105776985 0.36877692596766165 -1.2384456282940801
Ni 7.416539484457421 2.1030434774098916 8.668228279266504 0.026227309127645152 0.0396590091525188 -0.4108152339856344
Ni 1.698611330738222 8.70291508221441 1.1714408407182602 0.39235394195665335 0.6308235030556039 -1.1794742919661945
Ni 7.88942575896859 7.471827939526713 5.292448435708454 1.3627458677367628 -1.5007536865735251 -1.2499554287058923
Ni 3.5973427302249994 1.635491649738436 11.364392224879495 0.19840766008105828 -0.23554056037761373 0.2674469221679071
Ni 1.3113341754578238 5.087265709726007 9.86827797028991 -1.4242086030279344 -1.06585595771739 0.1616606823690119
Ni 7.514770697246754 6.110410770941632 0.7100185596486372 0.050577455837235476 -1.1447572001999835 -1.642465950845068
Ni 5.490555418732523 7.892484543684971 0.7982110621157738 -0.29858118167886644 -0.009095791653681108 2.3359919751362157
Ni 0.2034368232602943 5.267347053299474 11.91918390941666 -0.8051579242375425 -0.8601373657972154 0.6074030672491346
Ni 6.267440670658512 1.5133798044645832 6.551128211971725 0.665120476565261 0.604522660377546 -0.1927790010403712
Ni 3.638378354100791 2.822576515903731 3.5470192723956417 0.16071323085407807 2.643015116934848 -1.270069168736632
P 1.2622738483050198 4.453848516846677 3.6642803641960757 0.7663044417054544 0.09559464397787408 -0.6492685971346689
Ni 2.1274676891060578 4.903683347501261 7.73379626671222 1.700400361268007 0.40789086124998786 -0.7633057640884467
P 5.922525841058602 6.287451756212671 6.033985376425586 -0.3829041093976632 -0.11343681436561755 0.1421166987988133
Ni 6.800415481074018 4.54157667368217 12.113871871331545 -0.14746073671954604 1.5616782899730395 -0.04728695801142179
P 5.484870870027682 5.853426788730708 1.8335765210657604 -2.10105922354593 -0.477498594245797 -0.6652780851890479
P 8.13535389280705 8.685714024788252 3.4211696290511986 -1.1547374513411468 1.0464942653613267 0.9535779395465641
P 8.648805917638182 2.0631318647853005 6.800752684449378 -1.1132398463179922 0.37966580496602353 1.5098219674233804
Ni 4.370902014432274 0.7791710485769971 7.903268602451611 -0.6112476378062054 0.3745122857895421 0.23954736754416164
Ni 7.310062451423627 0.15844136302576572 11.039201028776057 1.0736494856198802 1.1414481904314084 -0.9056050112117112
Ni 8.136837219130356 2.136515058357523 12.533455136876977 0.21200056827414457 1.4371132269047444 0.9393206582966016
Ni 3.941990376822576 8.940238080736304 2.399370617374921 -1.794269537914342 -0.1692014708307473 -0.03684570807343977
Ni 7.210854638694727 2.4790068145224695 4.299466492815 -0.04048510459823996 0.23572079470921983 1.1659178934379983
Ni 0.9957449836658705 8.569102464079702 3.479165845651046 1.1855145846230035 0.4592406764768736 0.10851006648796152
Ni 7.518280929105011 3.9719885787398583 6.330455321098761 0.049016796218334935 -2.344915759988407 -0.826999445592666
Ni 2.902915680743628 5.14411119677442 0.1856461205876061 -0.5347107817907307 0.25189457625560485 -0.34082492083942595
Ni 2.531245698082357 1.5086073632504702 1.8648470668665742 -0.20167501797842044 0.4609039231119095 0.11517102344790488
Ni 8.755494854432449 7.942761014158747 1.5449414876058716 -0.21598732083603447 0.42384404214513455 -1.0546294928739515
Ni 1.8694334012997509 8.713187807993824 11.490687787441626 -1.5595949250814496 1.1635627629422607 -0.5358778055156384
Ni 5.796350971507869 2.07226215289956 12.001586832619418 0.2162207770030792 -0.0013292603343848075 0.39725317903048357
Ni 7.3739560418094845 1.9092252422336402 2.149746144897268 -1.2823523569793593 -1.3784828188560454 0.18564084733369318
Ni 5.208852402202168 3.7196756924663017 5.223218555841486 0.14240646212509026 -0.34196057710576594 0.638983413158577
Ni 9.113151549281623 0.09646135572904105 9.148585543315367 0.6526130881268696 0.2799602241435694 0.9398119961107234
Ni 5.387726815661641 8.732848791682853 11.95551066320648 -0.45042822039156616 -0.4424565150399993 -0.5081042349467959
Ni 7.908699787964584 3.3547221376913012 10.560921342900523 2.0231470844494837 -0.8945922050409755 -0.49779539682162005
Ni 6.6656354762067185 0.4774090378162042 0.4169464457086 0.9620119292465305 1.3426899775271521 -0.69568626516726
Ni 1.569608006645534 1.0774292767244174 7.0634967636623545 -1.5797333477025373 -0.7699793194538804 -0.8250070977529855
Ni 8.931126219035999 7.334993389503531 10.716666921564803 0.4864205793257752 0.8855527205465265 0.6470937009705372
Ni 7.047117524298551 5.017171631044593 4.410551050658019 -0.560234637093448 0.8201428276821487 -0.33955273899522165
Ni 3.3403126819791913 7.506838126039512 12.64820747241756 -0.5792104068650025 -0.471716183236065 0.5272738658967112
Ni 5.195143150220314 6.373245139582983 12.831474742963692 0.8005487076003052 -3.3267614361314126 -1.2165105187838854
Ni 2.813879248517394 3.671435340734455 5.766925831064559 0.41835756510926664 0.7985370764869151 -0.5549517914279539
Ni 3.2650868470115584 5.704863826225739 10.822384786343688 1.4796806679533097 -0.35063059407593805 1.2599256525447269
P 1.8700967522020986 7.033417485523674 9.468046124679077 0.04058820583500752 1.1798859255823164 0.24509837926937786
Ni 6.211580996756645 9.023120090701866 9.088661002495222 -0.6204856114647056 -0.06811675027257946 -0.9269120002196037
P 5.208778696546351 1.7188895992947144 9.830980144484707 0.3039722707874507 -0.17103621004664094 -0.3691353377483449
Ni 0.9184940858046815 2.5475807140526703 9.250029401377597 -1.997477190487205 0.3680809283419016 0.6852349879269488
P 4.379866464820946 4.291926404224981 12.41812236929684 1.257212367378622 -0.027411559243733435 -1.8834868176109625
P 4.9298672817300435 1.7525915104167722 2.222130626833178 0.5765925096261811 -0.6840484238180154 -0.5482604954507074
P 2.9383496747773714 7.7182904393698415 3.916116006348222 -0.011149074638284025 -1.0988118438181207 1.1199519682308454
Ni 8.190596281841456 8.835428638165354 7.0940394661119806 -0.5367846336006239 0.4385463813523157 0.6343855093752494
