# total energy = -340858.98946028494 ev
CRYSTAL
PRIMVEC
9.36264016196354 0.00000000000000 0.00000000000000

0.00000000000000 9.36264016196354 0.00000000000000

0.00000000000000 0.00000000000000 13.70317026720613

PRIMCOORD
 96 1
Ni 2.4229670382597748 1.363696643328597 10.299124319667806 -0.3185671378824901 -1.5604870978784156 -0.6873913721483194
Ni 7.457951547122571 2.091857265091245 4.011602986616749 -1.2706952323564051 0.7131039464230751 -2.9042857350887146
Ni 5.955481849703661 3.9935405810067746 11.795127241451837 -2.7796553660001226 1.406290585096933 1.5002998868655582
Ni 8.999313652225409 8.981608899473772 0.4691076006444405 2.0437593613831964 -0.6855278365770193 -2.157431945908704
Ni 5.062360869013929 2.9582853583695963 3.0330460409300577 0.012429484012604401 0.15429138648813429 0.3369731511935035
Ni 7.541466298336011 2.8168065012410897 10.937309032166297 2.031028544080089 -0.2896429986489722 -2.2390477591089826
Ni 9.285978972029566 4.541891696373223 0.2578649020678729 -0.31172003305366963 -0.2509347834454969 2.9957144206143567
Ni 5.600104112953827 1.2131172998571007 11.255195012216682 2.061214837855483 -0.4185658244653308 -1.3400237435488986
Ni 8.406939402306765 8.921725452303237 7.8555201497236515 0.16546025862076022 -0.8169073514639865 0.06557187236353867
Ni 5.496272432353261 5.475159678543137 8.268493104361893 1.598349420141828 -3.0714773745782846 -2.239388687388169
Ni 0.20443886789194807 1.899249029445183 13.632379675817422 -0.27941412183211234 0.08229047066980022 -0.13421364190165272
Ni 4.773832383795929 6.196822627958014 11.320668891892769 -0.6049875158291065 0.9906411629474486 0.37810154580269717
Ni 6.006910832709874 5.20341840733026 2.4223781281867565 -0.050927382977486474 0.3305327948847985 0.2887922206129026
Ni 3.3542688659728706 6.370405978574287 7.387064188842043 -0.14361950859658493 0.8630933631017458 0.02723209624307568
Ni 2.225377877989772 5.660053098606253 11.924621919034022 -0.9937390851464821 -0.6794119534872687 -1.7703513365358479
Ni 3.9178529970595277 1.3449339122263848 12.628225271631004 -0.7574397922259729 -4.4637189377813185 3.5801025150255574
Ni 5.013600238484827 2.8489578079302094 6.752278114761766 0.6172010271761629 -1.478489990079318 -0.3474318846329823
Ni 4.955505055605971 7.528236887633702 2.75476215669611 1.2104216322773282 0.7899575623480201 -1.8033617300235976
Ni 8.320662672213508 3.4492622141580225 5.941023124333827 1.5778996369279084 -2.4067330504055198 -0.6352195752407704
Ni 6.579492461096544 7.4156605010204295 0.5516954504710939 1.1113053482994408 -0.5188473323959129 0.83666885036163
Ni 0.9667768716982664 6.471653570460177 3.3453546961712655 -1.4521629221490153 0.5074509176335131 0.19464896436957446
Ni 3.428252449390875 1.58515117364827 1.175366198022156 0.07417349798962065 -0.22787533052287207 -0.21427573746156645
Ni 8.526191351432951 1.8477545079570756 8.235263221513604 -0.5043031160331508 1.688637307194808 0.23764346565322944
Ni 0.5661729011214685 6.6927335951690266 1.0546087363404635 -0.6254738087079164 0.5244127422988323 -0.7751433801533231
P 7.066293579324298 0.4807584701971315 9.548204991935469 0.26564380752089733 0.06351961782020028 0.07198368942715344
P 6.316215016688258 3.6513922549592492 4.841494312503247 -0.281464833713554 0.6849953611123171 -0.20345499269697864
P 0.5353042761494159 1.7342980331583697 11.14126666034834 0.5232092089090344 0.7601240239263554 0.7012403622162697
P 0.11869955335022246 5.320610575596922 5.901215986695466 0.18189732113086093 -0.46043572522623927 -1.0520763874347945
P 3.3007801021071326 3.5452011890105015 4.57018559527087 0.8839367822096583 1.1211950966093274 -0.6087559817326033
P 7.124913070058305 0.30137683646129637 13.414731995031758 -0.761952592494662 -0.021185118718047388 0.2905760519862028
P 5.663376835902304 0.21603262533898868 3.0103126140890986 -0.6879827258754151 1.3565286831824575 1.131618091714864
P 0.8974109424617048 7.548834696228945 12.634007638262105 0.7515265120653315 0.6990042737968994 -0.08525315284254996
Ni 7.87786596325741 0.8685655840521213 5.62461737771022 1.8955121242066126 -1.9190325759260565 1.9176030425683812
Ni 1.654490887492074 0.2467683008191993 12.446055443622596 -0.15371211694589657 -0.3004503736771213 0.21731683828073542
Ni 3.2073690401277064 7.33099414505371 12.953195961574124 -0.050211330747068364 2.8170636314452513 1.6839684409642288
Ni 3.6881125301004047 2.823510151674814 11.431198605342896 0.4406423446493959 5.77924495329917 -2.9783993263746766
Ni 2.128193671981308 3.7628076741789718 9.813114344542914 -0.4729832228739466 0.11801723464744837 1.0180174980778725
Ni 0.5177221739853219 1.8449550785161768 4.046149256687079 -1.061810841113739 -1.8083887509245435 0.36425975482359846
Ni 3.8011383234466654 7.807880227234937 5.624357096310699 -1.220220106424989 0.5353407020652458 0.9738983962714711
Ni 0.4322852727243356 3.8292168816180894 12.021736841504485 1.5383866664349506 -2.6205400757607835 -1.3274775314527718
Ni 2.3466427947741293 4.387024263657808 1.8204249610072964 -0.14601731940480014 -1.3193525883527923 -1.151705092272726
Ni 5.631543858982384 6.6715646655172804 4.886975210145571 2.448352782828835 0.8542251140778385 -0.4598816524949822
Ni 3.5658645360876386 0.6692125023551441 6.851873200639901 1.453672673925322 0.9610387666999837 -4.035233540209432
Ni 2.799232825453239 6.60809532712312 1.8910370576638702 0.9439427304496454 1.2865319422783457 0.03304716026295599
Ni 9.001279806682229 5.961539477958716 12.068477950527226 -1.7582694656706492 0.9461147984002996 -0.6256224184706387
Ni 3.0800277698077525 8.687359841050455 3.586941711864734 -1.0069239592678723 0.3683274971350689 -0.451099535426978
Ni 4.615847191870415 4.887326309155717 5.704835543284394 -0.7103646931150411 -0.6326960374879684 0.3030263619344136
Ni 2.6215673636789982 2.225827284722759 3.135011747324699 -1.3567102030656442 0.016236259353204295 -0.3972092131664256
Ni 5.645456742424443 9.249361685931387 5.370902934074288 1.5606398214061963 -0.6261932033724441 0.12006074744003839
Ni 5.374398943951317 3.0102948250725845 9.547368908159308 -0.09721855273454225 -0.12270152749699514 -1.0759408527572178
Ni 8.190802851660774 0.5939911778933712 11.464880703716254 -0.2519064033301468 -0.3451191773394056 0.8521728595345001
Ni 6.874396904338799 5.647245006716122 10.287559586405605 1.3514191298700338 -1.5031936634735854 0.7192141730858711
Ni 1.8357422404899408 6.090547298246831 9.285925604980024 -0.7615345311206368 0.2116131030277388 -0.44786071677470607
Ni 1.4278400918222376 1.041228587129799 7.893409818634602 0.4567976142530198 1.6887566063814918 -0.3572696966590105
Ni 4.8933464868496905 8.911267383121016 0.18934722803982443 0.36983493491853076 0.43328770405653766 -0.21206381741191221
Ni 7.7589978823823165 7.391102295590738 5.722074036550557 1.2735149611933874 2.4419805607539042 -0.509238091440923
P 6.897419636764118 3.545257364852125 7.638462315275037 -0.25554708540652765 -0.7199723914081343 1.5088241222864853
P 8.982048943566488 4.564755263913942 10.267730450576575 -0.41224682422583836 1.0116869278741545 -1.8379744350014604
P 8.25670647652528 5.525146814947683 2.1241284135758285 0.5505040400692454 0.17326329960494677 -1.4279734693870052
P 4.4379570267296815 8.681077509428906 11.542988530173442 -0.5166238423820327 -0.38297764294807585 0.31340899072031825
P 3.7451029214273337 1.5586549016825713 8.652359482927002 0.651973911880974 1.7574690812565412 0.9388434615498669
P 1.044758302511802 8.488338196819056 8.383257540006397 -0.09534704674344224 -2.714076037437416 1.5267570526158223
P 2.5751754811383494 3.900784903846288 13.035168685935002 -1.4335825880436666 -0.6984103489666423 0.6489225266491598
P 3.9074230157981185 5.395212093272783 9.533500965390548 -1.911923989905733 -0.3260698740174385 1.0239911991628043
Ni 7.553778170291803 -0.004244084834647093 2.0295357863942565 -0.30709256158398723 1.84936622177817 0.7937154867285556
Ni 5.068334233506549 7.431080769546051 9.09239608553134 -0.18275658380736268 1.9825056567790371 1.1610657075520199
Ni 7.214541625368423 5.374801537482952 6.378017805114258 -2.638697977616733 0.10571527735164375 1.1723659630561873
Ni 1.255642411966007 3.406924354854528 7.713555371565103 -1.4155966929892072 0.5927866028875404 0.33129024187611333
Ni 3.2058803803246865 8.655049369476735 8.409772537252637 -0.9994546474740207 -1.5246433487069293 2.2239682390680406
Ni 7.911365490145491 5.257459566971962 4.180508762153849 0.3276287338641261 -0.7122325995617153 0.04092887700387789
Ni 0.8587104689033246 7.174890843822581 6.554637459970276 0.5481345113958044 1.413904907109081 0.5457780953484858
Ni 0.9761207866882903 4.10333626345969 3.7754013616069093 -0.30579826825259593 0.45481657926724894 0.9439525006416581
Ni 6.501117799391645 0.9193869317047749 7.406933584024236 -1.7091552246425017 0.1940028461451433 0.9115604574641979
Ni 5.99491729052328 1.6960610102933824 1.2017941227138795 0.4523071825818339 -0.5214981397551987 -0.14287003202507007
Ni 2.425953720506085 7.892069088547856 10.721990776279952 1.5339875089259902 0.7228286299100067 0.052328377090071175
Ni 3.4619485917246378 4.143717330946637 7.81905641092591 -0.7392950029961461 -1.227502499019015 0.3686650829801457
Ni 7.095373940004674 7.922432130945299 10.987393540029657 -0.8723549909093299 0.09262733381943403 -0.6888026506735492
Ni 7.492171997311487 7.411756280027603 3.0459000097575157 -0.38726881412426206 -1.9314209222880803 0.10599038538990134
Ni 7.333091376474317 6.86779624294805 8.480495113064404 1.1796126173162718 1.0627019854694406 -1.1494762029422074
Ni 0.9218708401685558 8.97330423755378 2.614345959238312 -0.498834893829728 -0.11122103766122135 -0.005683680648338599
Ni 4.117221058980937 1.2005339113334617 4.531721060247309 -0.12620105600982137 0.9715260393845527 -0.08459932130863494
Ni 7.443860773515371 3.07684447211576 13.180078950722672 0.31583919742836575 -0.9072425468151342 1.2691104043677885
Ni 7.791898200293082 3.3588097465040945 1.9034247670058548 0.3055010487271513 0.05271275701268341 0.147790609255139
Ni 8.746990496933684 4.871016589804393 8.01029770109247 0.74079832701455 -0.14150271936389824 1.8272907300353693
Ni 2.3514083786718465 5.929107292061479 5.11254368460013 -0.5538706425486333 -1.221092224617297 0.881920780220894
Ni 0.15100066228367157 7.764175422451939 10.320062928368896 -1.0008705539849407 0.07672223255340335 -0.27411045023101177
Ni 4.054332204283553 5.317726882393587 13.607823342915783 1.2685722724761315 -0.9452563070547462 0.9741184827020771
Ni 2.1284745511894245 2.549325231351319 5.875357310532193 -0.2680863555241189 -1.7079452634948007 -0.14474385200901524
P 6.707301863430026 6.299643143409358 12.470090277461164 -0.011886724135256948 -1.1589350343622622 -0.4905903944327486
P 4.7401362414621655 3.148506120746665 0.22388507173391148 0.7870285616266832 0.7124411160280956 -0.3402435944146592
P 3.9425703673738193 5.985077155598916 3.7723322881262176 -0.3796043556004688 -0.19557816105206316 -1.2932363508817146
P 5.9040809546182595 7.7120067908643515 6.9500835520220186 -0.3648773338029393 -0.11630179461823842 0.2999253544115867
P 0.6672519654824878 2.615444196942049 1.9218289089857044 0.30879848853150044 0.4889137780612741 0.5879956092568002
P 8.647802685907319 8.768187514506243 4.184057202816393 0.8750289381970672 1.1448001376227768 -0.21443077498219199
P 1.8787542098929162 9.323738500240754 5.523638493600096 0.5293703434144238 0.19642585376433913 -0.42508434231013886
P 3.06955097534499 8.759489621694888 1.2937492941312334 -0.9582969422887881 -0.43927914575328225 0.30566688488105426
