# total energy = -340898.28746874235 ev
CRYSTAL
PRIMVEC
8.99243260786371 0.00000000000000 0.00000000000000
0.00000000000000 8.99243260786371 0.00000000000000
0.00000000000000 0.00000000000000 13.16133409063002
PRIMCOORD
 96 1
Ni 6.269128382257073 2.0655617815875496 11.31887929908975 0.9246180619791043 -0.29294686621122457 -0.0187507982449419
Ni 4.634313117429755 0.4019473519290942 5.942263346807584 -0.6009292865993328 -0.7547247072876551 0.28551483541321154
Ni 2.665554873407683 1.5004143663179252 4.780880777325687 0.4396483561672428 -0.09540823899868084 0.06654040692439508
Ni 3.376190856654255 4.185959417524777 4.742305039708559 -0.8486303935988805 1.0153193824204192 -0.24663847006298814
Ni 5.072640254920846 4.517366530709921 2.7251989814996973 -0.34482350047585775 -0.08146823187882098 -0.203007877857231
Ni 7.225788330599221 6.097912464445028 2.661708809959772 0.10771199606669837 -0.37271996977580973 -0.5076967150957321
Ni 5.06603980934973 4.623603130133845 11.508744622991628 0.42057668424777245 -0.19724552145215707 -0.3925125790217046
Ni 5.624209096876596 7.842255559049169 12.286815757985275 0.26274874536128945 -0.10976219372750774 0.2335153024174688
Ni 1.7701064141698721 6.452214311177938 0.40817551078816056 0.7576228547710565 0.2585545047742837 -0.39963582033004724
Ni 2.761989721234173 1.5937468248773383 0.3437941891718085 0.4149498249792983 -0.8470604780085993 -0.035543444322248464
Ni 0.6064559531715781 -0.0680376447351744 4.6168642010997925 0.07597121331999174 0.658692204441414 0.104194212721427
Ni 8.427231288330114 2.120487560263809 1.3695681764383174 0.5942109940388928 1.6927837252630136 0.25560982032366303
Ni 6.7539463965910365 0.9606615808750454 4.849662096241695 0.541799570316712 -0.9756660296948552 -1.2589074956928576
Ni 0.5563501184001116 7.174765267696619 2.397271040510009 0.6121395534928554 0.38245622322696715 1.0219119480362724
Ni 7.4893925015415705 3.7491070389896306 3.8146151124180543 0.6264405434965599 0.06464936054926931 0.7129543082190882
Ni 7.572068927401022 3.8224583121825324 12.501055969850459 0.5051065857710527 -0.027122053027772645 0.41201619627227104
Ni 7.9001578329352915 9.032359059198077 6.660490741704206 -0.08341327142033376 -0.9103741504655806 0.559382573505798
Ni 6.768136455325669 0.6527301123873872 0.3077003629683426 -0.4357045410281464 0.41683752892031434 -0.04554220740617318
Ni 1.996598815531847 6.311087073040214 9.295876902786908 0.14491585881050528 0.9129969328004083 -0.08888586449913079
Ni 0.10141845400566263 4.892261048230099 1.4265442297606452 -0.7037356178342976 -1.4698855362397587 -0.4494000362373679
Ni 6.277994920858055 2.020185966394294 6.912398455488039 0.2849329947678125 0.2674489790504362 0.6351720098322867
Ni 3.4877509762118306 4.446739964612452 0.5104086791926556 -0.11160258937035616 -0.5234028129770792 -0.2543108990065814
Ni 5.925203802811722 5.559130861729233 4.773234511836423 0.0001540090793610251 0.2568820021678672 0.2157772617077574
Ni 5.366108294721063 2.9278551416145926 9.06667238373522 -0.21033886430100548 -0.20566485586410388 -0.025849356962936127
P 0.19148576026688482 5.454557862347076 12.318429554238426 -0.060613499916998825 -0.11940640168549113 0.31922379762988246
P 3.960887820522797 6.185831478544207 12.525563046573838 -0.5592511901342562 0.4653614446626308 0.04522339061417373
P 2.2402577708383173 8.428409297008338 1.3926004942057537 0.6613090732389708 -0.04000533674834401 -0.019688993788495125
P 6.347299599354768 7.705624537240545 5.672456195817612 -0.4219159718844863 0.4209908889670556 0.02422107733089377
P 4.721341880695774 1.1468049368996962 12.54186992395621 0.2503267175478528 -1.0831206583351087 0.6607881677384941
P 4.041648858226052 6.239210558803257 8.210921917710282 -0.787018020103722 -0.08677138925928927 -0.37692295211356375
P 4.781878937350747 0.8613626432469196 3.7705773712043382 -0.9292560749717479 0.8830731486577824 -0.18663175049205277
P 0.2954949341213736 5.32316043634552 3.689951219990956 -0.6288656079982847 1.2251072593139611 -0.5683307838380213
Ni 1.495522482951867 1.1099449554337522 2.617947136428663 -0.11790564877024856 0.40998708165738423 -0.6211093610916335
Ni 1.844815544694162 6.523110650255153 4.7701015482983085 -0.16315989262235772 -0.9578549696553632 0.015824882847398553
Ni 5.914179080372774 5.591656490653927 9.115987783676033 0.4365807729855126 0.5487520903751453 -0.08592498209859395
Ni 8.547289256749686 2.327232579508386 10.13954423704903 0.3138350225141434 0.28197108392601117 0.23273317283580564
Ni 2.495858676714872 5.190647948694348 6.851750791911369 -1.4484381649992604 0.048415672299226296 0.7570957786229928
Ni 0.47272589013848665 9.072285460200467 9.173528561769293 0.8200834351991232 -0.2803078372909753 0.26836377755522167
Ni 1.4445084124819227 1.0817806563482832 11.429039296882443 -0.35614149659183825 0.13986492665015915 0.024234704177648586
Ni 4.066189206950268 6.6806670628594 1.5673567327553313 -0.4843382428754497 1.4812032752454232 0.3573283178110878
Ni 5.522540653243035 7.974660137508443 7.858672144109972 0.4886201580802552 -0.6618065817006795 0.3404099447891944
Ni 5.165442159953425 2.852345684583723 4.763705230948534 0.7916262082996948 -0.37339925523102147 0.29276740321056677
Ni 0.7094381912165009 7.563265335828648 6.829402798269222 0.11278272572138642 -1.2151935997446748 0.7805532383149848
Ni 4.87820587598534 4.6180008445877885 6.976941640892238 0.7266428614497744 -0.25925693015794704 -0.1475322133874298
Ni 8.18409389411782 7.132177106627405 8.894166051836724 -0.8071662129168229 0.6023997004972723 0.8337025686444546
Ni 4.617443313762981 0.3154095754862138 10.412799985963419 -0.11538673900313676 -0.37385048383582714 -0.0785816543596453
Ni 8.260043980348941 7.057584877727671 4.710270397607004 -0.8012979270615039 -0.23492992337680835 0.12800031400208922
Ni 7.168218776721454 6.146480593231943 6.880245113275395 0.16192602021525662 -0.3553436832808913 0.3844310875651508
Ni 2.2792669437095703 5.133986630515057 2.556049524712505 0.1868248403394653 0.03233265069443463 0.5127862138034975
Ni 2.238531223767944 5.065761043937326 11.428263249944042 0.6116057924765724 0.7006621211152965 -0.008879561877816964
Ni 1.0180872558302831 3.3045661305317267 3.7178925067465016 0.21305420634963954 -0.7166512974547012 0.30176857826791254
Ni 3.745510065926352 2.508331180811789 2.594506562218544 -0.34798055804760064 0.20424097893338372 0.2711739933105072
Ni 1.2833820041123725 3.2191919748748163 8.202814340425652 -1.1742459536877197 0.8059081721400055 0.146392957576664
Ni 3.603699402906606 2.5588057053222415 7.035075020297676 0.9786230554406502 -0.02044027013222286 0.38463343338394407
Ni 4.06752907941634 6.846766286488932 5.9049114792752375 0.6274296468827065 0.5135400612503865 0.015056637222806325
Ni 0.8577602747240464 7.399468174959614 11.441042395994604 0.24258435459827254 -0.5183745065245523 -0.13414062257187218
P 0.37084882206725606 5.61990172163332 8.022675231686879 0.11330363122186292 -0.899245901762903 -1.466756503692474
P 8.450063074849275 1.5950777049107514 8.015778935081308 0.08267227948925117 0.8821814900814484 0.3446774618162967
P 1.9102175074172192 3.2552246525362065 10.30316604548123 -0.6823450679736636 -0.5920795495181868 0.5903296567066155
P 3.9249270823226725 6.156965769711399 3.7393322646901717 -0.22415494424849136 -0.6701539252241103 0.33214179124313126
P 6.829671672005702 3.93934195187376 10.27915984725691 0.7216490077796087 0.3421382403342108 0.4607632837689871
P 6.386272802495389 7.69423112506261 10.114577647016814 -0.2701851470346766 0.3296542489345871 -0.1617090191084441
P 2.455329782724384 8.395865683218329 5.80056868616913 -0.30364831178912866 1.189234970897384 -0.15882321292021678
P 6.888733969704732 3.9489099002220804 1.677333284921799 0.7635356207110657 0.4119951132263485 -0.8859442995579904
Ni 5.343789076863421 3.0577418389295707 0.4122580752149813 0.07500370720039987 -0.8724213253708911 0.019260648001824896
Ni 1.5276254675416254 1.0722486777305957 7.102368990852018 -0.2165568201862593 -0.48511703002300327 -0.7625028085711771
Ni 6.707500481911456 0.7965343977274552 9.145087295757953 0.8032051713865458 -0.7069302135121953 0.2025895593728898
Ni 2.790333868972806 1.477924292239778 9.316789704176808 -0.033482705138477814 -0.059452903949994376 -0.7922620421114807
Ni 6.329737378373313 1.9602334178621035 2.6330436323752417 -0.298464453595344 0.1335019605466088 -0.6922564135501045
Ni 4.287133277362137 6.838385339251494 10.472184212751612 -0.871981152509679 0.15971332883465397 -0.7068469097697698
Ni 8.161432963819166 7.111836223954567 0.3348134466760685 -0.8885840511736826 -1.0133236921466289 -0.5230683124557959
Ni 7.583615210934145 3.978063366899951 8.135757770093488 0.9852603582515096 -0.5088128309780463 -0.07487772314549686
Ni 3.1970256283723644 8.3449775068056 12.44556816413306 -0.1778871715302033 -0.17635145161196725 0.30392779070276044
Ni 0.0002050274646068617 4.841354886952053 10.077580980574467 0.5482635807745009 -0.46659814528320925 0.2454156533994806
Ni 8.681717132557054 2.378327581872254 5.984629394790142 -0.004152845826108978 0.20358637606852034 -0.7921419715938486
Ni 3.8516567410236937 2.6495213659781194 11.292674451080499 -1.2430047084196723 0.2754777628921837 -0.04804594766463339
Ni 1.1164554766782857 3.203356300963734 12.545844579191133 -0.728687659793945 0.5273139751060274 0.22382455749226615
Ni 2.9814860099880716 8.222338710213126 7.951380527842906 0.48723021971126407 0.20057381449444167 0.6323805631300786
Ni 5.570299463090712 7.762735477052745 3.517814477074711 -0.21256698230057586 0.24047605000601813 0.32798046077659
Ni 2.9456781431431365 8.21206035968481 3.522986025096439 0.9311072692478739 0.541119770640868 -0.4967183617073574
Ni 3.5065901226307505 4.290667303396807 9.171646445613936 -0.28008492264689183 0.33579687149721527 0.14701747853454034
Ni 7.213333811367621 5.9914780315026235 11.286370755787106 0.0052982722844618435 0.5540141101050329 0.31717128597622796
Ni 0.33735201041547713 9.0168021506994 0.524382020300226 1.130232524221247 0.4846552598952362 -0.529210935018424
Ni 4.593244677479776 0.310135513732182 1.6062355153530405 -0.44849140838016954 -0.6430146458051571 -0.5013196079247946
Ni 5.893721296075379 5.645925821746138 0.5049862422997636 0.9801572326969894 -0.3018526533412866 -0.5294819292916235
Ni 8.023884713879406 8.741903484338357 11.223406641557684 -0.9444188987551155 0.5305180838656217 0.08817855401946104
Ni -0.02186060379207372 4.79721103503297 5.823811426860767 0.40754016277878846 0.045823486092017855 0.596542984606179
Ni 7.751387027038103 8.8207311490201 2.51809246646226 0.4593018687321122 -0.23842970899995067 0.5514964858895018
P 8.462103942178599 1.619330295789905 3.5842262899852835 0.24372669573283187 0.14701902119643712 0.6407153082480191
P 1.9769503501736896 3.2000920479088086 1.4524586221950335 -1.5587747431729992 0.3146156094339098 1.3029132118498463
P 4.71163904585758 1.0259376495408878 8.186455306933862 -0.4929154430214995 -0.33596142209953755 0.016998077219893305
P 8.452607933291544 1.5944572270573358 12.376984678735534 -0.20888670523551123 0.4029659131445447 -0.6822378529718379
P 6.271052762845928 7.736468581258155 1.3093368624937225 -0.22858572632633536 -0.868516590999846 0.4607540277976065
P 1.8706058415578672 3.178069580328888 6.04883086775333 -1.210294876891477 0.13189990616681155 -1.291653065554995
P 6.77396355168818 3.944080963884629 6.079562506362714 0.33387497188415405 0.5627548324121405 -1.0780291027448143
P 2.381879592772241 8.478802889624868 10.3290282818062 0.6615479287226542 -0.6390340638908543 -1.0760704363565468
