# total energy = -340857.5152445157 ev
CRYSTAL
PRIMVEC
9.38954659918804 0.00000000000000 0.00000000000000
0.00000000000000 9.38954659918804 0.00000000000000
0.00000000000000 0.00000000000000 13.74255055782124
PRIMCOORD
 96 1
Ni 5.298493099008133 0.08680072657566985 10.793743212567831 -0.37363399694964683 -0.9665532687603096 -0.9831222288625843
Ni 7.7969763900787425 0.2685973761870551 5.747313436760395 -0.085561171001272 -0.15850285346632056 -0.8248206927737923
Ni 3.5898397069133563 7.213566288281689 12.881112707985457 0.6674121008129151 0.34979601398978466 -1.9288847861297875
Ni 7.906355220925522 8.143826249421181 0.1563678789272706 -0.17580406374892946 1.9623546357524593 1.0383415543472052
Ni 1.1973643993829775 9.195906190937198 9.993046791063112 -1.0200139596826112 -2.127722077549097 0.6443811871353805
Ni 0.4747908852875973 6.626935571927127 0.0202091216097112 1.383624510957985 -0.26106004480495687 1.7591320707812608
Ni 7.816685048843219 1.7980606568662623 9.890816222206517 0.1554167583418291 -0.52758342671733 0.594305353524912
Ni 8.454376120777212 8.04201539330721 7.578439382735331 0.6047154931146423 -0.5530921125113958 1.4224391698323373
Ni 1.3254565970318555 1.2980766785196045 5.643666924244112 0.6007526518121524 1.967172883076709 -2.028922296370364
Ni 1.0977037494896194 8.988162467657514 6.844298885918674 0.632175389097808 -2.8287179278547283 0.7130273275488688
Ni 8.42664878903281 2.8884875075743337 2.890416120490114 -0.7676514426516521 -1.2399229841705548 0.3669321594494391
Ni 8.717903141684221 5.133744110593881 3.4753670469194917 0.6330122831768067 1.3245297616783576 1.653970866160874
Ni 7.312184698478593 4.165428316213596 12.958813085788126 0.47670489469990807 -0.3388873374970809 -1.1718458288866593
Ni 7.7999904346063245 1.4663279678958137 0.16627385081699106 1.6251426290752724 0.574592705587333 -0.56244604292247
Ni 3.187056317194552 4.322196189835181 1.373963934832315 -0.13300445208489997 -0.3311321190316942 -1.1858670828664157
Ni 1.5006655405979061 5.885480618141662 2.3730915270856974 0.29245835661058023 0.4713857964798398 0.2285564157502967
Ni 6.253719865128446 2.1167137071235542 3.3709102165130824 0.7881043111893653 0.4483006325256021 0.7701934923472156
Ni 6.52898381955408 5.518903320941116 7.157010230951497 -0.7755267316346708 -1.163925802708634 -0.5345966248103696
Ni 6.017488256812353 5.682506784643949 11.175730634000994 0.7025577954761126 1.0077549398096 0.9088826535217186
Ni 5.038853350482492 5.155771987421638 9.036070752371183 -0.7706889439263953 0.5753252128779833 -0.8857578945787972
Ni 2.9561110237352497 3.2451963910724184 6.517019659002533 1.106014789324463 -1.0580814559782938 0.26924926548396855
Ni 1.906115561612142 3.589567410055724 10.831988714654285 1.3832007931570047 4.527112828656932 2.599858379041716
Ni 7.758169393092756 7.728141622378703 4.021771066809657 2.3792726402017217 -0.7518484141811245 0.6095859338330663
Ni 1.5067781355744068 8.028381771331974 4.665087416240459 -0.39351582347523845 -0.9330679925186706 0.7737701539548802
P 5.432500711150397 0.9306552610603989 5.134739402556261 0.5237517116760657 0.22743824298545345 0.16024914673346594
P 2.8596146511185134 8.787169828537746 11.395722082146031 1.540566961915721 1.0629333847539566 -0.32588629725172263
P 2.067737830937031 1.5114353507945977 7.87501760843079 -1.1929656415844099 0.34752315879520795 -1.0725485392462173
P 5.166203773932994 5.331929275215994 1.8326789770181204 -0.1937094832744406 -1.3511861879236213 -0.8037163066950094
P 2.6008481304466593 2.778254227967397 4.4934155149595805 0.15065764639028892 0.09826164928707593 -1.48072067918205
P 1.6417904292258667 4.819438420511888 9.168136606232128 -0.7385303569159797 1.4742438132084545 -0.6739252193410845
P 4.772481296890568 6.7504832289175924 7.600345195454494 -0.3604041285229342 0.6994346764660986 0.29269232699825726
P 6.602137778788973 0.04460316423482374 8.252883018812211 0.44227268116396734 -0.023279282242914746 -0.09321174556799432
Ni 3.9808861631135337 8.5466190286868 5.083066848524497 0.8914672862587485 0.9642709004840362 -0.6453067842734435
Ni 6.477275585244421 4.521123128655672 3.340965073811 1.4929321336465773 -0.4162446325313218 -1.2341503433528358
Ni 6.672165018934503 7.691785297111407 6.360740041815323 -2.639544641887744 1.3734267444893766 -0.011936089315953637
Ni 8.654326520200527 5.742214912839904 10.03472792832914 0.15484700188128817 -2.5610120955984796 0.4428928312464695
Ni 3.2577314360703116 3.2239947943643723 9.012914252016275 0.22080633949123263 -0.3429139421579707 -0.9161722452045964
Ni 1.0054232833927732 7.119220121885565 8.62536070723124 0.9005031712087717 -0.8897140510130678 1.003758417055697
Ni 0.25719001576163203 0.9015824072574212 1.5413786155873166 1.6813199475977882 2.5790458131717386 -1.0051732951253527
Ni 2.963941905778877 7.955716068531457 7.501138060672296 0.9574117114703575 0.04079800785296845 -0.28574854869057237
Ni 0.9414429113960386 2.9998944805331327 0.20269684186667314 0.6242347940944927 0.06444675762015999 -0.08726067019088198
Ni 4.3852563862440554 3.6546839172170618 3.4022844482403922 -2.5054724106599626 -1.8038679802360544 -1.8416382570062928
Ni 8.937721822167866 4.458748369164285 1.3132586367646177 -0.5959081792356575 0.5481180563355722 -1.5173424441701415
Ni 4.439424681819219 4.891916332376108 12.887846890961104 -0.164794085791671 -0.64221683249421 -0.04555017782597316
Ni 2.6886685618064274 8.707790599764573 2.794918795654483 0.9570062485018227 -0.7578907637204626 0.2612595624102726
Ni 3.6879980293163297 6.346394692191517 5.729626347425166 0.0360617787195637 -0.9911499842630673 -0.012323040341727164
Ni 0.9103344038435903 1.9759644003681895 10.011393026584749 -2.623345920640695 -0.2352040029738014 -5.719870982216227
Ni 9.203511723857266 0.8024926418104091 8.126808634773854 -1.3207432980527318 2.139861541125108 0.26973340420923875
Ni 1.508449474907459 1.7864270083626002 11.916894511835196 -0.7213404754002545 -2.663735123091019 5.5230597200880105
Ni 5.985591966282135 1.9047165191367217 12.18547874265671 0.3884101268175569 0.1374887131084987 0.04414327017611752
Ni 7.8403936545508435 0.15901948694779863 2.5379466173789567 -2.641877660896295 1.0820755049000461 0.23587917466395505
Ni 7.787455389608432 3.9651211140113154 5.751243901057113 -0.5594260251492237 2.5092419050047234 -0.9862754297795853
Ni 3.6396888109536647 1.6454147942964186 11.224777870743308 0.7913778397343145 1.1508622846564567 0.7293031818907568
Ni 5.510217990137332 1.8194594340574215 9.27321220777364 0.5082099072867248 -3.220976224773782 -1.5040840364983388
Ni 3.813592607512444 5.886438351916781 3.30814766873824 -0.9342995509329264 1.7394844717536622 0.6042647787304691
Ni 8.722982886511083 5.535550987443934 7.753712175219723 1.5586053074746706 0.14513903056490488 -1.0366248287664148
P 6.055666154161741 7.986006746556327 11.946728857884862 0.6366658207689939 -2.787597760775651 1.4005747656590781
P 1.321531766463227 5.268587392402673 12.493146962095249 0.7516625234225636 -2.5977387615955516 -0.7687989259925341
P 8.728297370008317 2.156515996071919 5.997799316096188 1.4822412295916343 -0.48454161713550736 0.14383213882802326
P 0.5177649631500357 8.598017407951566 12.98703994142308 -1.8476443539910568 0.8403090182173786 -2.0235152664221796
P 6.138463177975536 1.2235894036369956 1.2265142474698374 -2.142296375818846 -0.9902452130606108 1.091918459132397
P 3.1759672624061546 7.189397594780134 1.093612723942367 -0.4283365306988494 -0.6831171702529978 3.063029500921248
P 0.8352612212397317 0.47821900882971763 3.540369940564369 0.21581042893853802 0.3938899189852055 0.8093243969104061
P 3.1443338791867532 2.8604127625977798 13.205409814833185 0.5540135958844007 -0.24101983832463006 0.5905587419982862
Ni 7.7191746051704735 9.333463051775494 11.450760788710936 0.7344345895800513 -0.5416764144752865 0.15117880900108158
Ni 5.382707944390979 3.843958401911834 5.259302069557417 0.13998422583684278 -0.4563636120393947 3.4527226082162863
Ni 0.6392891728018906 3.3746219043690124 7.777775705796952 -0.24438721213496623 -1.0822788791601037 -0.16208260039777891
Ni 4.196291756594175 0.8479286588477145 7.05447731868746 0.5579201300276585 0.4079206860466587 -0.5975649981127902
Ni 6.0041832689756385 6.231682598753873 4.749590520710521 -0.8294386511617781 -1.003869745822581 0.26045275023826114
Ni 3.2579849538343137 0.5763989271903659 9.233592076033483 1.1088432599121936 -0.9907465781770615 0.5099657136355669
Ni 6.8491673659422005 2.139840160928655 6.886831655080813 -2.5153760429269196 -2.2085727304485765 0.28626636886725537
Ni 8.263045325329978 6.7997126228681175 12.148153416158117 -1.0673801076714005 -0.40710307524136985 -1.6233917078224367
Ni 4.082368385088983 0.4932638796912333 13.585006657647273 0.45383441785963774 0.6377793655481467 -0.09170559333611303
Ni 6.4502243008706905 7.09602794125276 9.146642994618137 0.5107504143203914 1.2858624270151469 0.11954446992525217
Ni 2.695400866872711 1.5004495810211635 1.7643784745318498 0.0033419198890394055 1.36024495569178 -0.30662230681578806
Ni 1.9591383324758873 5.226972920919032 7.04680887580373 -0.38874617000073697 1.4933813053688538 0.20235430343363214
Ni 6.597058033962111 6.133439770429565 0.5746224249329867 0.7999390990407642 -0.7063468302048996 -1.139869790200695
Ni 0.2823352221319366 8.168530147091184 2.3242640057388493 0.8291419458569654 -1.6633980730120452 0.13762446735541461
Ni 5.539363143450784 3.186333322089805 0.5259723660209407 -0.6686531723088678 0.21464134833110132 0.8768279390790189
Ni 3.6265152767723587 7.447319056238648 9.768562444767143 0.3846321478323634 -0.2611880857423889 0.202971882412973
Ni 1.9529787897653124 8.922351134031874 0.6428093139027969 1.053127197296812 0.01945245229765682 -0.6716235677911014
Ni 1.2406971579337451 3.3510635314104262 2.7027754169411344 1.288216271959304 0.1832234961414522 0.1925907962889651
Ni 7.585570743541248 3.6351818284825126 8.385346989458107 -0.03429311685491514 0.5055357028886712 -0.321854036163878
Ni 1.5009847851896128 7.044751626096587 11.39070524728283 -0.9835246065073255 0.4127944691991923 -0.439264747575579
Ni 4.734641423226518 0.5912898094841171 2.7393852599724333 -0.7315716662099595 -1.1853991420910617 0.5810860266211605
Ni 0.6785722198113915 3.69558478314277 5.165701433178396 1.1089898127923867 0.8764191336763744 -0.3114757782533475
Ni 5.177311607815021 3.523061249965781 10.45483784878548 0.01949076173475998 0.6792432891198882 3.375341916143277
Ni 5.813819596850338 8.161995022508014 1.4658218713224904 -1.0403840386985308 0.4861848091658852 0.16432305969252345
P 1.7305592048139398 5.723661168333659 4.887978356441939 0.12295992336470436 0.5239170336093364 -1.3491030801423476
P 8.429315420328242 6.428318488151528 5.810337013936691 -0.6094717768527051 -0.190955060457755 -0.7045264891667093
P 7.368597095742518 3.9071124937888575 10.417705946951271 -0.7023595634223775 0.9793848733073391 2.399908057063886
P 8.699386955365238 7.757699915752012 9.991205500932711 0.19134663946921887 2.1572051746098784 -0.0919123100302804
P 5.7744867852427175 8.021931152670136 3.6763794040875717 -1.9417048207125915 0.708376973261051 -0.6705802141282516
P 8.498460043073173 6.5763822518757 1.6758219027017935 -1.5297840123676039 -1.2514806071011673 1.0734725937223837
P 8.584092710025068 1.9268852391667028 11.980316205796443 0.459701418163376 0.7196373766662186 -0.3078464090308763
P 5.240127676006709 3.254726781089543 7.839493197011294 -1.2649413605917634 2.3953052681845524 -2.0182640453255694
