# total energy = -340864.66631673824 ev
CRYSTAL
PRIMVEC
9.35427422463028 0.00000000000000 0.00000000000000

0.00000000000000 9.35427422463028 0.00000000000000

0.00000000000000 0.00000000000000 13.69092587227651

PRIMCOORD
 96 1
Ni 9.189582631228355 6.252116099277983 5.520728802552671 -0.8299721550677448 0.04825549257227818 -0.11452259123062858
Ni 0.3052047033917928 -0.11470304295668052 13.597197730806919 -0.9708230997802572 1.2209664976727101 -1.0693117774764747
Ni 1.8104636029723924 1.9335003686168757 1.6389408290130723 1.2194978835469836 -1.0970897189206912 -2.757488085874464
Ni 2.722907549696321 0.8212416462844411 10.765023842190454 -0.4324808918845261 -1.1788862806732083 -1.828482693460941
Ni 4.605820004635301 0.7198777980216732 1.3870554873010146 -1.525060895860322 0.5066975844072564 -1.4765302952497863
Ni 0.6512043310329703 2.410708655650504 11.918785607312476 0.8275391201462199 -1.1528528327239242 -2.6695098207912666
Ni 6.679288374798471 3.11152150787578 0.3514859093298028 0.26708413951184967 -1.976930733794421 -0.5344104769414926
Ni 8.067350381979615 3.412785255640262 7.775048964114318 0.8974895811934286 -0.21463080680814006 -0.8925096114803338
Ni 4.684077860742786 5.158638888240386 11.353596631797693 -1.5070636879519528 -0.13555832885500524 -0.57856171753741
Ni 4.5092090629812125 7.011215432665789 6.519933640430905 0.3977781982960182 0.8514480655533336 -0.32155527397653655
Ni 5.601124110264334 3.1381437716197316 6.994529278742226 -0.40647983983507413 0.7593354665867891 -0.06258065094569867
Ni 5.682281791305278 0.1820706532979289 5.256795155955788 0.4036333715252145 -1.6746641328441674 -2.0893997849301305
Ni 1.54256655049065 7.926503078679304 6.352521134457914 0.4394367543770691 -1.4646445995557937 -0.16838437424609068
Ni 0.1869591968793025 5.485664306542761 9.412470659033218 -0.6479493641026131 -0.8068430252494491 0.4113371679273755
Ni 2.7438611234090593 4.173774152371806 6.375836662350324 2.5571564692978153 -0.2938166704106875 0.343700185504692
Ni 0.5008558916522899 7.828133533517183 3.7538186992260405 -1.2277822350429628 0.5302319200837707 0.6272373283662424
Ni 5.407275490599571 3.0601852522795716 9.470164079225485 -0.645277730807721 1.0208264282815775 0.6038670290714181
Ni 8.139453125808984 3.7401848449017923 12.395435444189564 0.2844593975655036 1.6379788616079918 -1.1910275440214326
Ni 0.7074104216625942 0.5600834127770988 5.258821291699618 0.27838619478823023 0.019363749238592454 -2.052572331689136
Ni 6.690943800176181 6.942480227468827 4.536776108397034 -0.11788405150369374 1.0572242501843212 -0.26723300638488817
Ni 0.8644069435600791 6.955005600326575 13.656205426493223 0.37271482756948715 -0.3511640979819049 -0.04967139908319833
Ni 3.266699558911766 8.029980057433907 8.330818185732348 0.0737729201170923 0.8259314093394678 0.3104653347109621
Ni 3.9700380651113445 7.893024132108819 13.523403734242166 -0.46157446681637276 0.15527509055764227 -1.1391429393369994
Ni 1.6063533447527751 4.441334450990308 1.0790791125292734 0.6671637322475349 0.6141658398942648 -1.3426586100685844
P 3.3336761606006964 5.804747946237049 7.831578712623612 0.20710313097252717 -0.08318161502550189 -1.0052465715654493
P 3.252855233422993 0.30372205096613697 5.177442849792772 -0.6205617161182796 -1.3247349357106282 0.4265185036535042
P 4.197749156579729 3.2637529626084127 5.181481089869464 0.326147007112277 -1.1575520379718065 -0.7681348100459738
P 2.107892098405525 8.564997757657142 1.0053599501563513 -0.055965459622026204 1.4722740910765932 -0.28376442838100807
P 9.105207079938667 5.590525717846239 12.593433619791368 -0.5206982695617225 0.1815661630436873 -0.8098262762474893
P 3.6729276149934953 1.583547624792215 8.875443660759313 0.5665351253901791 -0.6846886285051755 0.19555476401329547
P 7.614388373099297 0.37499039355658703 8.996019316919947 -1.0750083136406194 0.12428609837529563 -0.9441594744461417
P 6.000093249738436 8.885381641434497 12.240987961951328 -0.3080071029784566 -0.08717196713181762 0.4386556532366704
Ni 7.497282217157438 5.834999668284814 10.988131695433822 0.1679619419966914 0.23368370967453306 -1.1384333148644845
Ni 6.4914451990281625 0.6005949025249228 2.860869059474141 1.3928779112354528 1.216021494962609 0.13948646026481784
Ni 7.854989654110607 3.134140142356762 2.4841359646752847 -0.931473394338041 -0.1537414275219352 -0.22328436871808
Ni 4.2501985707794265 3.348586873323065 0.3537430956409116 -0.617737359295607 -0.00614827898958296 -1.6694000562317504
Ni 0.8585633286054598 8.260291637068425 9.100714222146602 0.8316549420868063 -0.06347230952203263 -0.533113869617256
Ni 7.807675736325327 5.7007845452355435 0.8812988915111784 1.2596456594104628 -0.12679832327418808 0.20351232829747531
Ni 2.459032835025506 0.4748192054594173 12.951615318435268 0.8866415827353311 1.3592291128327558 0.8912705968669101
Ni 0.3867290719727097 7.234558078186027 11.09197723258319 0.07279821490864881 -0.927066780629913 0.9754456861539331
Ni 9.085974692638048 9.415918644421842 7.223360076805886 -1.5041300592449258 -1.5775684788407347 -0.31436518398600055
Ni 7.10031489231482 1.3062775897836136 6.683019794688654 0.5782858381682041 0.16055227979618156 0.5516607793815079
Ni 5.840930277987437 4.631684572186962 1.6877214969582448 -0.6927004430660586 1.87556730565357 1.137522630124757
Ni 6.567748011874056 5.682403396867003 7.17883653894851 0.9583002847228979 -0.8331353832870748 -0.29371408339455224
Ni 4.929524655675166 8.3966769516808 2.7707284691312584 -0.7012966693755018 -2.678811043587535 0.9789079336709207
Ni 3.004461842187259 7.275024667418752 4.258781117155068 0.027827306624913364 0.06295320379376901 1.456751312850646
Ni 2.7072391407816623 6.620552888484952 1.4483082087422554 1.5312721668773563 -1.321779195516414 0.7602294391559681
Ni 0.29187299211706325 1.292760663884102 8.969910602817437 0.15275129569452403 0.06077727918837276 1.4596438039070925
Ni 9.125683585678482 2.3572489798610863 0.30968352977289054 0.018957257828793157 0.002346388744989507 2.5519787817516177
Ni 2.5404804985597966 6.214090975553751 9.73113990439024 0.22687028629712538 0.3183696771597033 1.1014855339955416
Ni 6.389062670329092 2.983302474446985 4.515499812232024 -0.9141274468604257 -0.1612336221339223 -0.07783012090560144
Ni 5.701738681181392 8.723010153708737 8.262815420187932 0.3374071534071286 0.4010504412893867 -0.11213840726916816
Ni 6.197543264885075 7.718136625799288 0.35850535652357 0.177792554933868 -0.09528765426041653 2.0596919734530528
Ni 6.299944502132104 5.372122128986862 12.877971925681575 -0.46479014554019304 -0.020932636387609112 1.3168437058880096
Ni 7.80645032643409 7.790482580752107 12.480811902794992 1.5385262773366084 -0.11235720814819358 -0.5299516698391905
Ni 1.9921423121906054 0.6394301063757277 7.1916107354940975 1.5578491460349364 1.6443405421599617 1.2207142724525881
P 0.6780090031195106 3.217926374385777 9.565794692966586 0.7813947603796736 2.140579907348372 0.957432537405964
P 0.3676098713872343 -0.006416096522128116 11.176354654727673 0.4843449277436691 1.1177886420309395 0.5199881308685754
P 7.117900927395154 4.762139277096713 9.124056877433551 -0.3639198549856765 -0.3515857589003558 0.4131173997562498
P 9.39702301098446 6.830069917064375 7.6589642948909535 0.16889988042992848 0.466335635650442 -1.173256850301573
P 6.557299287839625 6.863184046949684 2.3921469697941715 0.01105162982847129 -0.6335900100571475 -0.3882291211550024
P 7.293405815787293 4.974443879321848 5.132700421924292 1.9179015476454064 -1.094030363269077 0.2126885954801047
P 6.149901947510533 2.85237070156431 11.880108490691914 -1.1491252473606919 1.7401079642702741 -1.837268152963055
P 7.630954792315932 0.6846047017020337 0.7265530079330168 0.7907875144484833 -0.2805675187102652 1.1198468101115489
Ni 5.806600092484871 7.734805942029689 10.494737708134501 -0.2533048263395702 -0.315745866383611 0.3643523145374048
Ni 5.349007717984998 0.8673488627264435 10.645187173674152 -0.04110628312200663 0.22512322169903165 -2.102648165299605
Ni 8.840144372472533 0.6990963429501469 2.8278606328847933 1.2698159150752453 0.483573082574651 0.031726384569003424
Ni 5.049773847673937 1.3316744436363297 12.862624368364392 -0.9262933927989982 0.01271564779445552 0.7978557341491743
Ni 4.205541266804154 1.5361308099931663 3.6074626639795553 -0.5647019288361823 -1.0926062292280407 2.422069937872906
Ni 3.7325985287049037 3.442382178509504 2.528480835899662 -2.4016126984598185 2.3895408548969495 1.5789365628328549
Ni 4.625286248785394 5.980776673972006 3.3287296205206536 0.2536745509741631 -0.08888509316818241 -1.2839083886125695
Ni 5.255502395291905 5.968812557552991 9.094402893493038 -0.8331832058058747 -0.3449535982958188 -0.11463263444593161
Ni 8.761830390721174 2.7101576742630793 4.826913882691011 -1.0989193159302624 -0.22290693077400323 -0.8584612636463732
Ni 7.532847166825219 2.3845728141534552 9.93121940595235 1.1111194575408798 -0.17989751709201277 0.377371352504892
Ni 7.361570410271543 7.791193505574504 6.661730402540074 -0.08897019668282097 1.421904894595422 -1.8741904799107014
Ni 1.3620571255197997 4.1591908392387 4.712540110178387 -1.3508097784208088 2.6260208963696967 -1.0179025697665631
Ni 1.6910562956317228 2.193652082244088 3.800682676432936 1.4025532295416876 -1.7386123535613542 1.5188881913907066
Ni 8.74254187777668 7.91837421459164 1.5354095954693932 -1.645684714892682 -0.3471719461033763 1.1484529038840157
Ni 8.667950897068925 5.394095318563299 3.3104794319878184 0.2194490541323898 0.0032794420822201587 -0.3379288302385535
Ni 7.759052220183 1.5009213227365834 12.199490531726129 0.17453908099357685 -3.0408930740335243 0.2597256422642495
Ni 5.233360828783846 5.126993379369764 5.338653472117752 -1.5299333934612749 -0.5923155767883929 -0.018191583307362216
Ni 1.8369923239765553 5.324518228708235 11.779316188569258 -0.0447006853414843 -0.6751596059688179 0.8831376833471306
Ni 4.476590709616786 1.0128994949833454 6.886330262483075 -0.9414862984893528 0.3447967610029804 1.544105828306915
Ni 3.015817930797645 3.221705501073253 11.099726313147313 0.17941003593263297 0.09126233515110733 -0.2850003576706382
Ni 2.3492136585132095 9.098238145824388 3.0709426673553075 0.2500256413676662 1.9887639789839233 -0.5261086419440165
Ni 0.8448696069277467 4.876214648269411 7.097266334425097 -0.8535586841384333 -0.5090388309459233 1.2856695942780505
Ni 7.735544929674022 7.485785814437368 8.844091876091628 -0.08393263425891352 -0.515498470528338 2.228617307804278
Ni 3.2628081809365437 3.6645648940563578 8.619519143543165 -0.7546838267473905 0.8832711236012014 0.6699330674625559
P 0.6281993650366593 2.5397789280113785 6.477998430183493 1.1671651355815382 0.31696276950984764 1.2958976997639617
P 0.5634649828204715 3.451727098214426 2.5566156857460025 -1.2124160369995376 -0.05605159157792928 0.8916058687191418
P 1.5278803403437757 6.114898254281486 3.1549094368721153 -0.23260898855311551 -1.4081525780063362 0.6624136191570592
P 3.641254043300937 7.826356221461191 11.04348374084917 -0.40326827487631195 0.07805483532189783 -0.37074561965825825
P 2.2806842473437823 2.898711774855785 13.124312989206338 0.25463640066680016 -0.3574902973102489 1.000031088802781
P 5.500565664991149 2.4957483603926924 2.2147122946801856 2.607026100434749 0.2826323716590939 -0.7261929183965493
P 7.9472976297344005 9.513483722021777 4.818315434049605 -0.8620710924848185 -0.2504298187846203 0.19959242441777883
P 4.114196781400186 5.515616691823202 -0.08593210247977508 0.26802413482761583 0.8848914328134437 -0.32235694394222547
