# total energy = -340874.8265529068 ev
CRYSTAL
PRIMVEC
9.15952161036117 0.00000000000000 0.00000000000000

0.00000000000000 9.15952161036117 0.00000000000000

0.00000000000000 0.00000000000000 13.40588573539609

PRIMCOORD
 96 1
Ni 3.946645429965984 -0.13446452230331402 8.792155914731568 -0.14218071926752932 0.5654879150725874 -1.7184122244643953
Ni 5.19804672494263 2.8916792313645385 4.137632443000518 1.3731542075542804 1.84222086898264 0.014031281282085513
Ni 5.495538821145661 4.686771398794753 9.081119580540355 0.03458982215972753 1.5456811432138349 1.04718872032519
Ni 5.521533542935869 8.785730510455377 6.205571182348732 -0.3831085120989854 -1.0385765531761468 1.3110001026230391
Ni 3.6883286068766696 8.099517484705244 11.273048929448011 0.5731017228641032 0.4754707651824909 -0.6647278691125327
Ni 6.371353940291609 9.093783534855767 11.33237056992521 -0.14136336557255655 -0.2926023383876122 -0.3395447685754217
Ni 3.8810357780338953 5.493258100312059 11.03742756853339 -0.04247231023159782 1.248606885097798 0.2968536574647984
Ni 3.038909378671029 6.405583071838477 -0.07002820506513878 -0.5889741711199856 1.7792432397088391 1.5229302226705643
Ni 0.47489553897157294 4.622966172582422 7.894484345573006 -1.845985735341711 -0.5995061809995611 -0.8998303135114633
Ni 7.291418707418003 5.825015966147636 7.144478916940529 1.573112757062226 1.1181077159332549 0.6179137369724712
Ni 3.106360094408555 3.0676794354515247 6.531387266639099 1.0701898092060538 0.02210428809820709 -2.059001375143932
Ni 6.79317738025091 1.3226715311463495 5.051364317017062 0.1779319087252097 0.728831641570977 -0.5056069224462388
Ni 3.7270092658337 0.3934939561591112 0.9646890395329185 0.8426399803434005 -2.459830444451131 0.7974597842623362
Ni 2.468875722613289 8.921071598958592 3.478411610923241 0.8899279667960868 0.08220870958927132 -0.40995545708850045
Ni 6.582343516203331 7.862899567860117 8.582903900033237 0.6350074592299644 0.5582782846980257 0.7244114010160944
Ni 4.379899952657554 1.0090678367653856 4.774559915893443 -1.1552673557026878 -1.5532383867358024 0.5962575921552763
Ni -0.07933702668437395 5.03098621376165 11.70685027556836 -0.16735516165062791 0.6350115729950225 0.8787002164010673
Ni 8.581317470923278 8.243028866315179 0.1779145440637842 0.06534998616071971 0.6044252155677332 -0.28975921251186226
Ni 2.9787038443767924 3.6921114892231657 3.930659317231505 -0.41052675621093815 1.1887482610689526 0.7615751545505852
Ni 8.691277525571431 1.2805010945282658 11.651148477956381 -0.4170812695000043 0.675069874468489 0.22073974791935533
Ni 7.365528395227933 0.7982147377228239 7.445119140655643 0.4916399187431856 0.007739534736102799 -2.4564419875948724
Ni 6.266825481845569 2.7923717001279478 10.540485061503668 0.27727933487729667 -1.276477386255821 -0.5398445034728703
Ni 6.019188660732077 1.9751866775919797 12.79732519085906 -0.10691675385891262 -1.7120909102320578 -1.2248920579793612
Ni 1.9589560056355844 2.847731847590958 8.484558118545756 2.6815454117995627 -0.22351268267880214 1.2359367458292974
P 0.7867781592777023 5.751345935365872 0.3579266185327685 -0.23653686285261197 0.9710408722180178 0.16412945562447862
P 3.410346291298427 3.779676513999205 9.897618554921957 0.25571369289137896 -1.2864478672049715 0.9350163744942929
P 3.152569879972898 1.082289050997567 12.233165535888022 0.12687005705238796 1.4087932969141286 0.19177909902094714
P 3.7577394601980942 7.571434436751505 2.220845958030875 0.22582564708269495 -0.8308915815582205 0.7120729340553995
P 5.849041390832527 6.7182158569489125 5.681199572474413 -0.15937651432052552 0.8055281630927675 -0.634644676573907
P 1.0697954637805673 0.6867525215617762 1.443907872614773 -1.0763517150423914 0.2790497965141581 0.06280125159693702
P 2.7658548856167933 0.39735103062911015 6.462481102947921 0.9841396143835052 0.5835404016989241 -0.4876652503661537
P 5.875961224286165 -0.11693869401811813 0.3776360767245133 0.6878426007531251 0.5542879325917099 -0.7957309744966876
Ni 5.256072293138887 4.891724850090636 6.639037289985106 -2.378805470757316 -0.6335295891328573 -0.030817756711804988
Ni 1.364796170157333 9.08167464753841 7.991690682595829 0.08923964829412373 0.5685143606037371 -1.3449962570628256
Ni 2.495035315789059 6.343334964267561 3.85184621517236 -1.5185608899582752 -0.05539853137496266 -0.1657363951002823
Ni 8.749779388881532 3.4149168924870508 10.161768161251583 -0.3739952369438075 -0.7574505908592503 -1.5325312360954382
Ni 1.2367552202259267 2.1187988139375356 13.086798126058802 0.2316815916428397 -0.534423332457299 2.2066785987496575
Ni 2.649712154010081 4.9277584073572624 1.8488191722240233 -0.7029635155549635 0.5508246566334578 -0.7326517866480156
Ni 7.511787633263894 6.770397650479151 11.206784371734386 0.020381648980145543 1.0952788909641975 -1.2580513183401496
Ni 9.167307013294812 7.486031059030607 9.067111008480472 0.5502374166714201 -2.2200820166397577 2.6739706847760982
Ni 0.16008095585887336 0.9497782546131577 3.6164785730010753 -1.2288255887058128 -0.29933502912575544 -1.713030905547824
Ni 7.676558264089851 6.985765477629674 1.954631795573161 2.3768833140339387 2.2088033584021445 1.7245566467992361
Ni 4.195042491357343 1.3284145510767444 10.44648272507359 0.345485816650205 1.187417458072671 0.8498290418926719
Ni 6.385853462699608 3.861553475973369 0.5573687857901849 -0.1922015312703464 1.1023604804013274 -0.18742724981015463
Ni 1.9258443357019672 8.796209002959957 13.046996341679955 -1.540194923288283 -0.47468760715956304 -0.19923349841646332
Ni 2.066699456100076 1.6295063391978688 4.790606481469294 0.304234780420218 0.7737223314360804 0.3301155048417218
Ni 5.622352395206775 6.292508779907495 1.8415529238814676 -2.3460372751873595 0.2540183074668271 -1.0748424774867167
Ni 7.484070921446707 6.129899796136677 4.11592895699562 -1.3250912906087826 -0.4067251230766608 0.6267444478902239
Ni 6.388280735875933 4.853987621839876 11.711354928202761 -1.252184318036411 -0.643818372653375 -0.5747156043184424
Ni 0.4171044545236714 5.167463082920958 2.575980754434801 -0.4776821710115128 2.0152075178874327 2.118383059536358
Ni 5.654044339320278 8.022751535683488 3.758635261392979 0.22999597641030067 0.743215678206791 -0.2851921619664701
Ni 1.48141519687789 7.647531740709594 1.7822056367442933 -0.9192490843577072 -1.4192399461687495 -0.6062954360072526
Ni 5.8889585851812685 1.7933701774032382 1.6993165476532095 -1.0940288206071802 -1.0161359647844435 1.3514229865247758
Ni 2.0029033894091652 4.341420803171765 12.674232214398785 0.2694269287124134 -0.39562669917065413 -0.023079507527282835
Ni 3.601175760564535 2.554480609805429 0.683897498735135 -1.2123656433775765 1.1466204786609673 0.0071204130948651564
Ni 7.640955204329971 2.9867275851407893 3.097697935001578 0.9522167975329794 -1.7644419130299485 0.9541587517506985
P 5.443018125322877 6.820161330354488 10.265289072341416 0.0836554693381269 0.4191996013945877 0.27495454339886194
P 0.5127133710108311 3.3580271049468857 4.315394939008728 -0.5508765929173157 -0.14829377414380265 1.3875796389509907
P 8.028860936470686 5.577424942641246 9.306311910366064 0.27676305736251045 -1.4233706805076713 0.17476559518208612
P 7.891074255748306 3.241618747218991 12.283651902003404 -0.24604968743905364 -0.2841315819124397 0.31591993006763014
P 2.752857524721689 5.179068196560209 5.825674535737741 0.15670770923911076 0.13287461137525503 -0.5070508539816171
P 7.245355474196382 0.4898988350576766 2.8738996843360063 -0.2500274411398791 -0.4149850490926079 0.6060231561824724
P 2.5778282299052324 7.441662337271702 9.362616404487484 -0.9563285057085078 -0.923163846031081 -0.09105201891251415
P 6.977146367973372 4.779905412594205 2.4703155993805264 0.06696541027695563 0.9465953375811441 -0.08583833592205861
Ni 1.5331481738585457 0.1872490123429956 10.252928298185006 0.7025295133413385 -0.6511894683064656 1.6548442699047627
Ni 4.52251370116832 2.5125666397871074 8.364763485748854 0.04963514652862419 -0.15844577497614004 0.4813588485321516
Ni 8.753140933242705 3.918782165806077 0.9754496452972375 -0.13674746406709998 -0.4317923504579338 -2.188869852703011
Ni 4.145233013874907 3.3066879873872943 12.036970418974029 0.4325189442113132 0.39237656766447265 -1.148569117746906
Ni 5.17917811081725 7.128882999818545 12.913125356364661 1.9387549940556483 0.16852321381680008 -0.4329676017129575
Ni 1.6662177010495802 6.885514515686815 11.673804554188969 -2.1003025478855633 0.04598675114275951 -1.4646263447233485
Ni 1.747829036902562 2.4883122270667153 10.943961980058532 1.0365487241128406 0.9118281093032876 -1.0589818563053763
Ni 0.06448761055812771 5.443411984743941 5.450202853924794 1.6959731787345889 -0.5507930320645741 0.0743205650904462
Ni 3.267576830923519 7.621591976047906 5.703306077421795 2.343743851167493 -0.03277230933501453 -0.3019326146496026
Ni 7.767668023655465 8.371014859118064 5.22293314464101 0.24332020432303259 -0.5535700805890789 -0.14849843395544104
Ni 4.713434765648628 5.737405143764497 3.9911066628912315 0.6130170710018024 -0.8760756342940267 1.0981009337940248
Ni 7.157689694684722 3.9048413742047035 5.752532093389773 1.4774283815840232 -0.9458566596429065 -1.4725283731792447
Ni 1.0337344279496818 8.331711352704467 5.402316875940575 -0.6570094174223523 0.4402024288985 0.6981691794901136
Ni 8.488870421230333 0.5343215979929602 9.348272593943628 -0.7355823300312493 0.8779754224199009 1.5534152786332989
Ni 3.1826497483164657 4.926073055415966 8.085410905766167 -0.3776783422223496 0.10834757276816824 -0.3398047071050277
Ni 4.632931731887477 3.9756994319105026 2.1739253936043337 1.424206031924773 0.009068537960171479 1.1142598029420745
Ni 4.526946909535643 6.920293218518888 7.991355444111853 -0.09024700651271554 -0.8046629868789947 -0.3337243052389027
Ni 7.4755525665260265 5.952718013786499 0.04658898975113426 0.7144172659178599 -0.17339905385186266 -0.24364287776977395
Ni 1.7395671485816429 6.6020731253422 7.190688702504872 -0.5964591666431212 0.34461498400947743 0.6860973359272442
Ni 8.112249219479166 1.6741040489922758 0.7516770412916421 0.7108362334348209 -1.1567583384259175 0.30017603696981204
Ni 9.177199296428507 1.5400910910949723 5.851051905784236 -0.6954522947795828 0.9447832240730697 1.5352278090909945
Ni 7.002243456664412 3.1459109079004937 8.149692427092342 1.1006568674466592 -0.17439329944433193 -0.1360838623411721
Ni 1.2940663457514154 2.959450530351768 2.383526386068769 0.39253031963351753 -1.8558700843349585 -1.0578623979889525
Ni 1.4787497761446446 5.423535823262351 9.770169310074289 0.7902362699307036 0.0916307742341196 0.7460531476555861
P 9.309737571377175 2.2301053182344415 8.21210998580953 -4.0926120781289 -0.9316608277584987 -1.1068380565567066
P 3.551311325953577 1.7523721595269255 2.800073941690099 0.2529042484670419 0.7563303612118781 0.6552528397425618
P 0.3662773542114625 7.141568936985368 3.718860039626248 -0.6759283658140424 -0.04243245813259789 0.013864673797234186
P 8.661051104885141 7.9045295927144155 7.161424031567692 -0.5295819452045977 0.5855222080156431 -1.7490577172643942
P 6.033276004676171 0.9510605876119699 9.054737410994075 -0.4574889838930895 -0.1125495266646578 1.5877551895657496
P 4.410630147021949 4.920293397399891 0.26168661101976465 0.3331946579876778 -1.2139278456583737 -1.1268767203751366
P 5.497242492129796 2.6425494082595726 6.4694121128065 0.5136472762522122 -0.5209818622404124 -1.42744716456989
P 8.927776368638098 8.36319262782531 11.435207264764962 0.8982192602706015 -0.2261740315610492 -0.7150047629902138
