# total energy = -340861.89132090047 ev
CRYSTAL
PRIMVEC
9.34921185345409 0.00000000000000 0.00000000000000

0.00000000000000 9.34921185345409 0.00000000000000

0.00000000000000 0.00000000000000 13.68351658034920

PRIMCOORD
 96 1
Ni 0.9181683342232158 9.256028275020217 12.505283285702694 -0.6607025500032234 -0.2914466275166142 -0.16354350121402156
Ni -0.07489092676125134 7.011656473573847 1.942608224848417 -2.3675057294737805 -0.38854845216763406 -1.3535760283120368
Ni 1.6093359344071156 3.7743516255032525 1.1878547648961384 -2.1321785706585534 -0.0812219201959698 0.6629530366002969
Ni 0.844210458806563 1.2844040758747963 4.369557045213913 0.35758928478195834 1.3278544551762166 -0.1243226080401859
Ni 8.96845586711932 4.936944819927391 5.713265041820754 -0.6288324407675041 0.05273409716892209 -0.48108399760421017
Ni 8.465028855570196 3.613451689225272 11.349697325574914 -0.8698337671493729 -1.2891434117592637 -1.0173104447085188
Ni 7.5629140530484875 7.248864677132529 5.527647659201592 1.0435788914867448 -4.5797337972867584 -0.12028237653254123
Ni 5.5217473715906085 5.248273575189259 9.188796222622644 -0.5022112665011286 0.7397004659646809 -1.174986174287854
Ni 7.5945330875919 4.307602622916801 8.740975518511089 1.8203135273865876 0.5214035231588633 1.3812364703417825
Ni 8.74448614756817 9.276652636404831 3.258564955862351 0.31625880146428764 -2.323013560598677 -2.1930152423299525
Ni 7.886022815266211 6.698345685395597 13.056538060413773 -0.49303165688438955 0.9504573916397114 0.41042365497417055
Ni 2.148121665247542 9.150821593850191 1.2189006927519368 0.9763224323319313 -0.3146914569771677 -1.2955542003816138
Ni 3.9670014852908215 7.132775513346145 1.1541611402388336 -1.8237801457789493 0.008101803171527982 -1.4828099576109108
Ni 6.033588673822485 3.2960178986124724 2.4384988367093547 -3.383834526995321 -1.9998649739930912 1.9272505929604746
Ni 0.5834917921590813 1.2889945389028317 1.4516568016182556 -0.778066210227073 -1.063924287912316 -1.0075353675996261
Ni 4.235810024969177 1.2041410919732005 7.167439586195527 -0.23207728441936162 0.09279728373839503 0.08502998108815034
Ni 1.8166827552538938 4.963328295823757 4.013320285657004 -0.9277296110248926 0.18263805595162738 0.9381842306993132
Ni 5.327844717412496 0.7943417626934457 4.0118561990782045 0.1463487346022899 2.3173386217010865 0.7830767760677868
Ni 5.329705210574571 8.808182328036612 8.367552102774063 -0.09116617589287525 -0.41463923571741496 1.1423395918974262
Ni 4.070375720934379 1.4483518552223076 1.9129693533790124 -0.0034578766416133995 -0.8190174558284541 0.6086438816347711
Ni 8.77791892921431 2.583589255715629 2.6761670214920277 -0.3885186273709631 -0.01135939087687721 2.601559420893223
Ni 7.830161274344598 0.8999326964713156 12.028030327704053 1.3997615257291636 2.320650973903771 -2.0671116629558917
Ni 6.682003263047316 4.729345570360131 6.725379866438096 1.075312989365232 1.1217429986929972 -0.9383384968889905
Ni 5.493783878888259 1.4899745464663268 13.640112125637309 0.7578691664539077 -0.8440142349831077 -0.2501667949312208
P 2.1753185225765743 2.1623885625607437 2.7364572840763284 -0.28864155396765123 -0.10944389115614053 0.5566890858340348
P 7.339542683056999 2.1547502564631777 1.0733072861470712 0.05622925480637413 -0.5656537512264904 -1.2754407174611904
P 2.141932486989784 7.798570287436796 5.258342676372954 0.09194753414359004 -0.7467152067196171 0.7217469668100538
P 1.9172989733958827 7.7760386868307565 11.01405407500345 -1.4165174050312637 -0.8109961281858742 0.27983372586803423
P 7.081841007079879 7.607350857065295 3.0646557572359296 0.5693530544549484 -0.06340726061205208 0.3419474644796433
P 3.07383387852844 0.09379690300421079 8.696914552811444 0.6868702095375266 -0.926358955929611 0.023935941990307165
P 1.8703565805979896 7.462783993923725 2.3701495534933508 1.6808694903239312 -0.9147964479029923 1.390639251712921
P 5.2474321461209845 5.063748180516482 4.306941633637611 -0.37217386746435255 -1.2381728342486675 0.14394629580838436
Ni 5.676056113500432 5.459724700046848 1.5448824677772262 -0.6562278020613215 0.8708213278736229 -0.31367844233162107
Ni 0.02782979897261271 9.423912072564882 9.415887644017095 2.0178123025001313 -1.3642504773067472 0.6570808940902361
Ni 7.69067103324829 2.3875830288668283 6.742744157643737 0.518467837569307 -0.5013088092915173 0.6928935329134712
Ni 4.138596919947768 2.864074961019272 11.673531586633729 -0.1319616126426824 0.7796811201226767 1.9208387758968597
Ni 2.1426523763037526 4.418250545395006 12.64861885764102 -0.07984458023246895 -0.8016403980025872 -1.175540247019111
Ni 6.3377372343684035 2.6601406025049434 10.332532991626733 -0.2935834713539589 -0.5117459454644413 0.1650949048615415
Ni 3.7166295914195655 5.413670482376578 10.996553285304511 -1.1842897110769668 -0.21552966447332556 0.4837443180451927
Ni 1.8563234135815312 1.8278831110738252 8.819094728130956 -1.166870744269571 -1.2928743395566056 -0.5993398306250258
Ni 0.40995172143323144 6.9174164179270115 4.270803190076374 0.004284486307966814 0.22548343325192782 0.2600310893198102
Ni 2.942290467521398 2.458562245381786 4.903912184549276 0.15132407632969422 0.07136482489623194 -0.20943717842234252
Ni 7.274958327460935 3.3993453881966817 4.644240629631204 0.13420490015090433 -1.6004921775164436 -0.5219894775693203
Ni 4.178779832563849 3.3327883488961043 0.6667474587801763 -0.5454988735451702 0.3587051435539564 -1.762999781266783
Ni 5.745745138777368 7.4534254328421286 10.483284358420125 1.7044971570451999 0.3269525337327079 1.228578248581697
Ni 6.761200436795764 8.822159399781851 13.10557935127642 -1.5018201801648263 -2.164312475078621 1.4621300606640562
Ni 7.479060971788917 9.466918447165622 8.032169695213764 0.8323622525664761 -0.018450236285387576 -1.5105567887068758
Ni -0.4380722808949926 8.969297296187596 5.6764833724828785 1.3795266867395275 1.7253536887792351 1.243166430808517
Ni 5.383631464639149 2.8408141218873944 6.065328313199017 -0.6913701542904094 0.36098082696201056 -1.2461489104756087
Ni 2.158452544363589 5.683806610140435 6.93331475271148 -1.511199307386881 0.5964478537892115 -0.651178155452556
Ni 9.204990927423383 2.9264529026140824 13.468507341768492 -1.1466623876424962 -0.6477824995074456 0.3221188597894904
Ni 5.790714847870749 4.743668562944551 11.43868125430859 1.3985824178193977 1.1993548329402053 0.35953586698536794
Ni 0.40265840125365837 3.497054001447186 7.906896800607747 0.39931237555235743 0.9352120354448668 -0.9052877370816087
Ni 3.6087583848666696 7.749047512162859 7.240167105330124 0.07875366116113533 -0.9935778769782695 -0.8490260863754022
Ni 2.875256618415464 9.354260444135424 3.5846430277698986 -1.6556364267887551 0.2369220141061726 -2.0926684283790733
Ni 1.4628618320441218 7.791090917941015 7.953776553686113 -1.6126815204937837 0.9743475679937478 0.21547875663073215
P 9.094427147852006 4.684170178605616 3.2623691501721424 1.9623973160649364 -0.2974077301960556 0.03792608562181211
P 9.582942166468916 1.2162670197682348 7.283776504096459 -0.6785442061703346 -0.6261944889240249 0.528486912368206
P 7.4522006860871945 5.926671086880301 10.380151332442807 -0.004152588715792848 -1.1072316924506995 -0.06699189263951688
P 5.712920055902761 6.812191038333248 13.350391268848751 -0.6819578598375738 -0.4164891444419601 -0.08925044692740114
P 5.905289439334238 2.9591564457343833 8.147466980754782 -0.4308209876836 -0.10296368274843559 0.33506230732403586
P 7.566728531491336 1.0364816755134083 4.454107577678965 -1.4132896421225853 2.1896530107259387 1.476965840125308
P 8.800684260117091 8.675956424563081 0.3396793053356247 0.10649046495477145 -0.12394157055168331 0.03133711955038474
P 3.8140016330427593 0.17944129325802072 13.635911524744241 -0.005394431542693936 0.34237221072188784 -0.9817438604578189
Ni 8.274996775106152 7.843652187072614 10.882199335241147 0.15183058365246754 0.8030789302213266 0.14946696851629743
Ni 8.397938911193044 2.0059762479802314 9.272429597403276 -0.1894262825180544 1.4484844448561633 0.6885116017956917
Ni 6.092544803872976 3.640844880003568 13.29609478599413 2.04949317854318 0.2755129870054932 0.5253689355645145
Ni 4.490174032308806 5.187503698036043 6.548356279369586 -0.3036485688994448 1.1975627740367891 -0.7199628783264373
Ni 7.691325478079172 4.239727344742592 1.5856048299181906 2.9099416478229108 3.325117986990719 -2.5040073960786615
Ni 4.978904082798721 8.038489762437699 2.8240584643744717 2.279055409850172 2.780136162291283 0.1070458232376092
Ni 1.3593006121631694 5.872978563112467 9.322880749415877 -0.22396545394550463 0.479014259559375 0.3479928993427749
Ni 5.078136617583991 0.6525216979992016 11.360274088963136 1.115340694711079 -0.5573575726559692 0.11681601525049559
Ni 3.8778567501129864 6.716408362727907 3.964511790169914 -2.712518206031993 -1.9784055185677347 1.537009840692082
Ni 3.0229367691096525 3.511068470039905 7.15256592503198 0.1325290551103782 -1.8060886420364572 1.238105471345842
Ni 3.305161427821064 4.075508438250859 2.591494014351482 2.647447184564273 0.4145885849851376 2.503305484915631
Ni 2.031191072392882 1.957098568325305 13.397859087353721 1.7461382296247543 -0.8533604520846981 -1.2944673950753385
Ni 3.6403306733507335 7.708621520038164 12.406147047799683 1.0437485842953895 0.020378049435719744 -0.4102999849121127
Ni 2.156750987803299 3.692069211837796 10.08995179600652 0.16748165992616315 1.032134911315861 0.9817708570410124
Ni 7.318600448468814 5.521794117649957 3.8306591238310497 -1.2350612852028793 1.8622700743240315 -0.8208807342894379
Ni 4.045291785487906 2.223672646366796 9.57717557258767 0.9630324000912447 -0.644456006237374 -1.9752307203841786
Ni 0.11099010363263648 5.576010197282497 11.48338544578487 0.9988226703169765 2.0065935509661763 -2.127641602020149
Ni 4.0500879311770746 8.94226872467222 5.277690870337352 1.7092387854952433 -1.268531134825551 2.1139335084054367
Ni 2.8029124169675264 0.5459182445758403 11.123398717347015 -1.0706641777393109 0.3342462391806437 -0.7110388363639303
Ni 2.099421620618141 0.37793815014891646 6.23421060657137 -1.1791981554866724 0.49047778011428433 1.1229611873708143
Ni 6.397628285605867 8.889127804404698 5.819722647538947 -2.2161595416568995 3.178886237582267 1.1616128383047413
Ni 3.699857105325277 7.337186681665829 9.719990393424853 -2.1481368937600234 0.8326880113370111 -1.1087221609532971
Ni 1.5217244699759154 6.651506133928271 13.321327373909334 -0.325035262105337 0.5770434811206707 0.5051744628945106
Ni 6.46877578793448 0.41104370937961543 2.207958491056161 1.3834440195160624 0.2513351042077091 -1.8965773322463337
P 0.8787455125321431 2.187509894854697 10.960852384858777 -0.619950564896842 -0.9148782089835211 0.5996023402577931
P 6.78517181602974 0.1606325488185064 10.05698834479624 0.8199080859635234 -0.06333475550290382 0.6740321772325941
P 3.401692040375983 5.08291406484942 8.805753402792858 -0.8374548365980351 0.1892211084857838 -0.6848200118767174
P -0.31441679994243865 5.050649934686996 13.405727384063283 1.4374117319817696 -1.6222339400689094 2.0476741230565705
P 3.164754963961523 5.190981604851579 0.6644260494729233 -0.11660621323253466 0.7994768146923651 0.0265263284253027
P -0.28787251760191324 6.145498739903103 7.455724404040894 0.5129589919359359 0.23383231943725533 0.8901256846291896
P 5.707301179569055 7.004523024917247 7.141222526270441 0.477594496393713 0.016932771199596644 -0.278565657788888
P 1.3449402227312708 3.8015484828322847 5.85981580772108 1.717831926480893 -1.0870816998653858 -0.3038144050533477
