# total energy = -340872.5117305503 ev
CRYSTAL
PRIMVEC
9.16254926958230 0.00000000000000 0.00000000000000

0.00000000000000 9.16254926958230 0.00000000000000

0.00000000000000 0.00000000000000 13.41031702070705

PRIMCOORD
 96 1
Ni 3.223339056348751 0.519470736649732 12.709065288599795 -0.6038084079193408 -0.6261057858649604 -1.4024655549238878
Ni 6.851369593363264 6.105583887223306 2.1531743635540708 -0.7599000808410075 -0.07161139368939924 0.6451064953371792
Ni 4.300909837800878 6.248015717212195 7.504440378662143 -1.9272120264130552 0.2193233271878029 -0.732966489674957
Ni 8.75858173280857 8.826192184625103 13.261743852938734 1.3244814249389254 -1.3260806511052452 -1.6756514364581012
Ni 8.440677919795093 2.247784099605295 7.723042314090958 -0.12318515200163302 0.03780138711848974 -1.1621473706519727
Ni 8.672114754384308 3.5039604559672592 2.9803225918631084 -2.6734456655105636 -1.592225052411645 0.5444838020170946
Ni 3.0941562727518805 7.324633593529627 11.992578666586917 -0.0592587856613173 0.7082013669151351 -0.2028440985858571
Ni 6.242765576421997 1.7273238076233788 6.644383021773427 -0.5718339118952733 -0.5146824023849459 -0.43552559224812093
Ni 2.2242455102684366 3.7324927624055277 13.328889763502103 0.6954111571290023 -0.2781105725293404 -1.1581719309439924
Ni 5.428040848806555 4.2180712289279585 12.59038370283826 -0.8738565151555209 -1.1067578381380745 -1.0689718776385526
Ni 8.752277898840584 7.244598724764561 1.6566164141190842 -0.2794012663163059 1.2863789616402492 0.15658995271432385
Ni 2.7270953823572266 0.16674282223781314 9.032318392828902 -1.4700883962791842 -0.37142876176821193 -0.12884003629456522
Ni 1.6103547023394829 3.1899690515356576 2.2983540420996453 2.868363310160492 -1.4385270765331355 0.8107145923897136
Ni 6.569978539597501 7.778005699009217 8.838645921731626 -0.12414494481174101 -1.4656833252329533 3.571483148787662
Ni 1.5525848285485566 1.8738604597309574 6.330461252717053 -0.1586532630012558 -0.3912733072979649 -0.36962924666562796
Ni 4.8119876792257905 2.0710293596686165 0.14639463259231134 -0.1423367852294194 0.8509672692621731 0.0590924352867821
Ni 7.415196231523205 5.056673560207025 0.1984388292806285 -0.4585631907938748 -0.3250427183045047 -0.19115432095275467
Ni 0.9651737883048966 3.5925348207470984 4.688274021349112 0.20535298105063987 0.8875764358447746 0.25038611003087846
Ni 1.1407740470206937 6.922984079255394 13.375745208481016 0.6148502675557992 -1.8623186681737798 -1.2890428816256574
Ni 8.254293340468365 1.303546736615587 11.418281983259506 0.601931245501286 0.5900152107899903 -0.07219580543795953
Ni 6.957783441770531 0.8318953451387091 13.435796557065588 -1.3216820078169174 0.9621386846323817 -0.27539600181165474
Ni 4.1738344405595855 2.7586603649440216 2.8107219704761452 -1.0201255455598108 -1.3145343410285426 0.5735645214331347
Ni 3.079459543559074 4.8029442429955544 3.6225293423715197 -0.2177356709857089 0.24499193559850066 0.7573585453660763
Ni 1.8791380881692719 7.115131902137157 6.89636320830977 -0.009744995201905797 -1.3360012526530667 -0.008368169459037202
P 7.106464130431175 2.910135631163148 0.08998264861832653 0.07941623444579872 0.3469276913030541 -0.7881878720421072
P 5.198564799782962 5.108936741825335 3.0265339096211634 -0.485806342780544 -0.1975748797671178 -0.06469178375143052
P 1.6158339068639833 5.290309406645539 11.83302203182162 -0.956994678537597 0.4504400474661081 0.39274269275463974
P 5.397566209595036 3.90798307052886 7.203915173042678 -0.2724302343151115 0.5168169322294455 -0.5580065190938777
P 4.155885006339693 7.087690066767794 9.679647008436302 0.17075030337510594 0.552530583580971 -0.22158769774194742
P 8.530718292474464 6.066597239645131 5.929049964726494 -0.616293427760229 -1.315125437645322 -1.81152035457499
P 1.6089070195386952 9.011422282730951 11.089701967717689 -0.1846831114061142 -0.13155409279161862 -0.27652008811376894
P 5.690062273199753 1.0979666163543642 2.931816971742286 1.2378367910654875 0.6285722451275819 -0.767795167318368
Ni 5.439668123959716 5.059321536975555 9.111800759866831 -0.807924431239086 0.5284334334224513 -0.2817304286701148
Ni 0.7058232470536577 1.3544080481799696 4.11462054898762 0.21290019727027848 1.2603887082240746 -2.040240806706977
Ni 5.263087472461106 8.233072876122643 13.016389105853339 -1.4365550404084293 1.8647529886468852 -1.117131982283547
Ni 2.0457590485004364 2.543496218039609 8.44470486024412 -0.5998733345309927 0.997541489611708 0.44577709477280003
Ni 8.016745085447976 8.894581453138263 7.54412154748272 -2.1772384391116697 1.856066516616481 -0.8273007788831688
Ni 0.504776756221737 1.0547651960650355 9.33431876889727 -0.06354121508675509 -1.3340346158449992 1.3240415091880293
Ni 6.081660470812821 2.4915170754518337 8.860813793682421 0.1007299083219104 1.4758571804421614 -0.638289729525662
Ni 1.888841227954298 6.468512467851154 2.3982075051565066 0.21794367323145694 -0.39340012383298056 -1.0494566904237603
Ni 6.312859079118362 3.3470792856186096 2.1346275311151186 1.0625577465820928 0.2856063666857533 -1.1744878944951966
Ni 5.116505007606668 7.452561107862523 3.6843371516707184 -0.7727612530743917 -0.5328716716994629 0.731742901680501
Ni 6.551800041643307 6.745835349695716 6.980392032346123 0.30586408849352487 -0.8230044655006601 -3.1051503413506976
Ni 7.388349961863029 0.6402056497255503 4.625191701432256 -0.07445066291040726 -1.4146628683210283 0.6281809232264342
Ni 4.528764115585614 0.5606811349605089 4.6769152088925505 0.9338452370043272 0.6210777365227497 -0.4212073758532358
Ni 1.4815475832668676 8.797174390763745 1.248499056243104 0.7910358830138634 1.3954145616143776 1.1437362151346366
Ni 2.66905979463451 8.341016870275045 3.765510009067796 0.012675795695455589 0.9527873253244686 0.09952637493211247
Ni 4.5445237005055805 -0.023535840572046326 10.517778384677646 0.1877931177900056 -0.8807776677553862 0.6156704494642494
Ni 0.8855750568899414 4.407543587393075 9.701586732907733 0.4668370007668928 1.273562269491555 0.5486348480709906
Ni 6.952762364714634 8.580993200879032 11.180207797905162 -1.0123551575857728 -0.6934776875517153 1.8550517021987214
Ni 8.362044921083955 6.221297723243228 11.868921816516346 0.43109146773616724 0.4349846321429863 -0.4335440430417179
Ni 3.6260056136032843 5.325740985067348 10.921509630169215 -0.6508907061191241 -0.5644005955456796 0.14600729210247113
Ni 2.435048283671742 4.754648445255352 5.9969197166902575 2.434015797380873 1.4098291943778107 -0.43858520501005116
Ni 7.32274610835898 4.567420911386393 7.939001770280866 2.239414141309466 -0.3630785900313037 -0.4805060136135531
Ni 5.973936377845347 1.859438607019313 11.056766267744832 -1.2324001934309485 0.90740221232145 2.139745584372534
Ni 6.357105030036108 2.6596132062319016 4.41519981364838 -1.1282538032283214 1.4536104532288192 -0.25059874026231677
P 0.4646695288553577 8.52288431276134 3.2622743936504417 -0.6198510632045002 -0.12503531783649435 -0.230700458676493
P 3.7729820680807227 1.6854234693448846 7.520572879341554 0.42537539118799644 -0.8282934818137412 0.5106485986352045
P 2.779294426129932 1.9083849457649318 4.304376946483272 -1.8362227424176762 -0.7679198658216904 -1.1332628264071385
P 8.201654494325801 2.511738821916001 5.469236587038336 1.120168969337658 0.5830182106468669 0.33388885584122496
P 8.583503739406982 2.868565144662048 9.806173568970209 -0.769324716589017 0.4753319256117814 0.923709434121906
P 2.4001664582122566 4.983703017007828 8.132271089205771 0.017199651707738118 -0.26356224240152026 0.5057241647503935
P 3.5536947739588767 2.5663567787229336 11.57471327243399 1.017914396841105 0.2504326469980977 0.4753054432492201
P 3.425217506663656 6.925201416203436 5.31930979166309 0.21633261999059517 -0.8393664517984513 -0.30753479132772843
Ni 1.3157512523791897 2.05014790964966 11.705718487100963 1.995245472943209 -1.4765148686308183 -0.773627714839745
Ni 6.307178298507677 8.559369584360939 1.8024805351027524 0.5789571532036158 -0.8029316060101849 0.8894934503618294
Ni 5.092636566492416 4.943571050758145 5.187258213857823 -0.8810278360929795 1.0515071451948859 1.1656430425100572
Ni 0.30091369771284066 4.42921301665803 1.0494848188619093 -0.08290959231103785 1.010864174862543 -2.7442471617041577
Ni 3.009869981078172 9.007473223951587 6.28426276252812 -0.2692598070069298 0.61847500879258 0.2858508785963916
Ni 7.415416132708136 7.318018232882989 4.310813637417153 1.1724806342571807 0.7691205709980109 0.6648242854810809
Ni 8.91864230778933 6.754622234543535 7.786660643146079 -0.14547995884409137 -0.5699881169357861 2.033515572168001
Ni 0.32187761067614584 8.871574291664986 5.417553394795278 0.04285669015421006 -2.153286813392079 2.171823181633369
Ni 8.853175892525861 7.870235920988513 10.172771750621573 1.3782604184325942 0.6386710241244807 -0.685969037879496
Ni 7.00165372816402 4.351019820316751 10.671339963388792 1.2041980199651197 -2.0751939257433936 0.05962079698642636
Ni 1.7557093855780639 6.898419284388864 9.229797903190276 1.4071490764424863 -0.38533457321602665 1.254063537336995
Ni 8.06791792369101 1.1977192913681332 2.4725945784886267 -0.5453181249929319 -0.5954096423326843 -1.0209927786561126
Ni 7.204750797545411 4.972652982465107 4.305610225628753 1.3910768534709719 -0.32518490030932384 0.08244679374200639
Ni 1.1505413246513243 6.594314270729729 4.633640488208246 -0.8639418271449701 -0.9573345783755189 -0.07615530430633981
Ni 4.7694642875899955 8.816397419346357 8.044500280005861 0.15042676132640545 0.5509915212286253 -1.5051741842387238
Ni 0.5475218815523363 4.200616572374157 6.993038182989459 -1.5570176512725764 0.5275877975927042 0.9203353754433504
Ni 3.918639115448582 2.8683177558290023 5.680945536574539 1.274997716386501 0.5556691292099527 1.0869456885081539
Ni 3.87228577817526 3.4437991567902224 9.572418609389858 -0.1466043022565217 -0.9691423696437245 0.26980873753186435
Ni 3.896951361084883 4.53480223562181 1.3427212164558893 -0.38847877527196323 -0.1445456199552801 -0.1364430454528037
Ni 5.132676907248379 6.132191930599808 0.40546754859757633 -0.10668226925060337 0.8671523636624677 0.17142521795494348
Ni 5.885068811485602 6.2820820757775655 10.984484748258415 -0.5312189665873883 2.1689018942215164 1.614889069668064
Ni 8.978583705781437 3.7050142768386776 11.965140496237305 -0.44050890439532525 1.057745412795114 0.585559746121798
Ni 3.9879171512508327 0.29002125901931913 1.7060474517264859 -0.3874253943067844 -0.31208847213668184 0.18419125937136022
Ni 0.18159164975019618 1.856983043787597 0.5238082875224718 -0.12857521266895275 0.9282464027603111 -0.033436939502206935
P 7.7674046293857275 6.050022187831049 9.555615410096411 -0.2197881826393634 -0.05762356405073947 1.0306375008347282
P 6.68073543640713 0.6055877056879804 9.458296308195866 0.00890218758563628 -0.37600866782941045 -0.2920179266390519
P 2.4149456503494116 1.7181062829550724 0.8444828554660642 -0.10529721597761865 0.2757909232572282 1.0535933382999532
P 0.8316901040327747 8.878977631557621 7.669199508960903 3.15507447987465 0.10520542759476076 -0.4408950840901504
P 9.121849327763186 5.483080282884603 2.7761104402231362 -0.2176621374352961 0.893957399670454 2.0831260361062767
P 6.015360263556493 8.6070881414907 5.926380914094409 0.2354739688057364 -0.3704023773862266 0.17412976137030012
P 3.2752082483440614 7.420904499782008 1.001027760252759 0.7706406071869631 -0.15207226734962842 -1.3326037969357438
P 7.117477514776407 7.414930517591416 13.451352733389497 0.7521942275563174 -1.117081588661586 -0.33786609532141815
