# total energy = -340890.167570708 ev
CRYSTAL
PRIMVEC
9.10497566478703 0.00000000000000 0.00000000000000
0.00000000000000 9.10497566478703 0.00000000000000
0.00000000000000 0.00000000000000 13.32605223045843
PRIMCOORD
 96 1
Ni 6.387868655852747 1.9409349254170556 11.487443382474282 0.5478465478417404 1.064463705355554 0.7406540881272018
Ni 4.677617387701699 0.29685406613799575 5.877548440969822 1.7536476506279215 0.4626841549407838 0.1489792302466015
Ni 2.967229544919336 1.7925511409813073 4.648939446618232 -0.0025384501511375637 -0.6222601868666251 0.8666921361965977
Ni 3.292723311244032 4.213245431280761 4.559201719366572 1.094605519046257 1.145838349079304 -0.2668802510311597
Ni 4.980712914490778 4.6203835122054056 2.5496334892261525 0.13132423616899963 -0.1337611277452664 -0.11570092780944591
Ni 7.243381251383664 6.044155833710667 2.670194289770463 -1.6079311502929923 0.6943564906122428 -0.6383077272477911
Ni 5.5042581061726805 4.499059714720816 11.804909291970297 -1.5259877785499654 -0.024909104536853875 -0.11734617672235274
Ni 5.729706402571623 7.700842531460077 12.480807126873954 -0.6743479087008 1.3944884502556822 -0.8569219441837113
Ni 1.480259589017036 6.52257676720618 0.4795180830337422 0.6118719016537656 1.174436472431971 -0.5591357476023144
Ni 2.7338599199041393 1.4061997189427662 0.41542725054790586 0.15078285911424352 -0.10793208249730445 -0.274800791429817
Ni 0.5379037379207912 9.090407460308707 4.880905994921055 0.7104611094835893 -0.2690024395804851 0.28685849392529955
Ni 8.78351515876908 2.3609474415869682 1.3305492096624507 0.0842347388803646 0.1152414716745241 0.2848358070683159
Ni 7.270077039317984 0.699104596256656 4.991871972366734 -1.641051586996045 -0.9020275782730982 -0.30253528123060797
Ni 0.9519160752882764 7.608672865273473 2.718301337904765 -0.888314856672696 0.34779672417156876 0.3627685149900527
Ni 7.641951550437162 3.776825749402238 3.7759635082298715 0.995160390974041 0.49793629327485855 -0.4109011088312214
Ni 7.713116038327561 4.154053986068955 12.677073066551104 0.6219704235403481 -1.5446334186756108 -1.341406225718722
Ni 7.967418001835596 8.723240221482177 7.203050762756423 -0.4804059977005791 1.0991540576488879 0.10451560061658774
Ni 6.808400155621656 0.7460507600247829 0.37501936962958654 -0.580175341881433 -0.42482003290515863 0.2714902389993453
Ni 2.070808294821947 6.514737383368715 9.484337863887676 -1.184374043260657 0.3797308538760041 -0.9463749940402219
Ni -0.2581251426873055 4.876570205625583 1.2609425830665835 1.9132265107672404 0.4579391840566307 0.1865175935116917
Ni 6.492193464226363 2.075925291008539 6.854694403149641 0.3529229896545406 -1.3120221161296501 1.0317325336711198
Ni 3.393342394621307 4.342490557381605 0.3658215234593102 0.5590030786791921 -0.010754924523658897 1.0633591594374654
Ni 5.699532514026488 5.57674281549912 4.7243250011137965 0.23028753950879047 0.8952869171151547 0.31996221845780376
Ni 5.089326166287677 3.2508768442091966 9.760760365180985 1.2640684710685066 -2.5330631757940374 -0.6396341593686985
P 0.12687601149630387 5.742162008947526 12.362818481886071 0.6263868074404889 -0.2875897156643692 0.23697523594161124
P 4.191284230565352 6.130543840504946 12.715305768841352 -0.6289499401819749 0.06668130337763355 -0.058645834667666735
P 2.250403935000822 8.559887857454333 1.2606894647498799 0.49165997334784356 -0.14527452770150465 -0.037002031145645944
P 6.523459949822016 7.707389008787763 5.7039629950663375 -1.1942031135359368 0.7783222921019369 0.6028000212594845
P 4.72258686130593 1.0864785070349736 12.75957506983571 0.09710156754070373 -0.10490280875267739 0.4729042900068953
P 4.06214836416956 6.176278132044541 8.17923706052687 -0.4889464310714225 0.214808727146901 -0.636548064244207
P 4.792704277022915 0.9633519244170301 3.581683363692036 0.5927215539775599 1.0879170512824878 1.9067925822164389
P 0.0823636076582057 5.605787687092054 3.313869616659263 1.50072411888717 -0.43078010714333553 0.9423661299911448
Ni 1.4609479361491327 1.0508416332372488 2.678110155401465 -0.41564068039873575 -0.010701959798536408 -0.5297477813585005
Ni 1.7150678001487483 6.2818047971737245 4.787610953772417 0.792844396977512 1.1122304312168716 -0.1464901452761606
Ni 6.009010628585675 5.447725313783801 9.153158950910118 0.06228188875835726 1.269121203001066 0.376683582409248
Ni 8.850901081859769 2.4869694063887837 10.596276613692341 -0.18918048505583548 -0.3603542491216052 -0.5317604409131552
Ni 2.311689524559454 5.033039208235164 7.0820101300074265 0.03661893677461435 1.7373052047141564 -0.78345112868807
Ni 0.38024380452614615 0.4074121406848152 9.453834375232299 0.1991604790866828 -0.33025665840527635 0.09787392693035403
Ni 1.6902294272003084 1.064644775975458 11.547810280012937 -0.5957461997364966 -0.13523359852573483 0.03009887626790945
Ni 3.8647524970426645 7.024078813393885 1.807452343755287 0.30532801348439675 -0.38791698923122225 -1.4722887463646128
Ni 5.699596248854434 7.651174890538618 7.81382343996642 -0.5849797052486119 0.4278361940236632 -0.16189773808048247
Ni 5.620337437814784 3.0939161729268836 4.8029355379034735 -1.6417596688066627 -1.0083110694233859 -0.33592825486875694
Ni 0.8801142391184101 7.616676138668516 7.139805782487195 0.7504623324668753 -1.0404647713377952 -0.47810048949585404
Ni 5.324307371952386 4.053088913625683 7.272599117509595 -0.5274415018228271 1.9294434868467354 0.6267750440178432
Ni 8.829267660259516 7.248580192349045 9.440201495534463 -1.397403309909632 -0.32904232638220104 -0.42828125198088174
Ni 4.783972605594194 0.23171707197628852 10.80789445242681 -0.4898882261594015 -0.3410786887214448 -1.4333938690716281
Ni 8.213598327268114 6.87285427662679 4.804507967158677 0.8626593608881209 1.345058734869645 -0.21751661299636732
Ni 7.5214836206421465 6.124224987562785 7.07870502392961 0.07677262617536455 0.2761493350379115 -0.22488153800187077
Ni 2.125246942864 5.464205319295779 2.4062055429120446 0.16851781450016137 -1.908988047205861 0.8418480805697244
Ni 2.400617819496188 5.263777495353697 11.768623233425055 -1.3186097966494967 0.13188370821689543 -1.2958915291163746
Ni 1.1733581825019865 3.2826349984775836 3.6410769393581877 -0.8204158788378775 0.4755923783620196 -0.3124240010992297
Ni 3.6018463317618012 2.403176317589484 2.450487590871992 0.3930435118245102 1.504048812385029 -0.47910553372160064
Ni 1.2193747282796308 3.3179805130618365 8.227424232444877 -1.1832088193079622 -0.005276675017907042 0.8109123102228163
Ni 3.5376926749455597 2.799962041460471 7.136034501667825 -0.3822078546615869 -1.605349505608745 0.15539284708242918
Ni 3.78787008458789 7.0007700763161695 6.015486087105077 0.17931310534345246 0.23427326362941586 0.15888054852071348
Ni 0.6239976540089733 7.746868182213142 11.66001544461341 1.3587894541921761 -0.3629978573920394 -0.2888158747619865
P 0.2997148494152684 5.569959608810488 8.072949219452491 0.7656287557946685 0.33524691253101613 0.09389437345731572
P 8.549990749171727 1.7870153159253501 8.005811862190795 -0.6591969119919744 -0.6484625562936057 0.2630685905945534
P 1.9262303901121691 3.3507584245773727 10.462670204364848 -0.5819956829196234 -0.5522657599553586 0.42715639434781916
P 3.803211968172245 6.372544982219234 3.8339849641000807 -0.2565174197395969 -1.1909190434680266 0.3958907514653182
P 7.058258891124252 3.91625023802374 10.445612032913637 0.27720734398878066 0.16326247963849302 -0.8288802075551467
P 6.407289568425703 7.842015175362406 9.857880406503979 0.712003771380361 -0.9499053757909834 1.3705342534329301
P 2.607227921749118 9.03407497737909 5.846245535472486 -1.8562884028192999 -1.2074388954999207 0.7496159253061799
P 7.0430171622695275 3.8153215854821516 1.3744488486547168 -0.3523272650520706 1.1102709934976556 2.4267817415262782
Ni 5.444174373369618 2.936363678242206 0.579762951921215 -2.2042375934083327 -0.8779887921563395 -1.2523344704610304
Ni 1.4611482456083944 1.0904209613922589 7.326770079274271 -0.17837748090306055 -0.07034332561025305 -1.0717944346890123
Ni 6.8459217593315245 0.8513543532561534 9.403462009213257 -0.003451963104342442 0.1879188447345925 -1.4233843073544261
Ni 2.887724899543319 1.5446317652433807 9.408458819724292 0.7458438598582574 0.21849208953575922 -0.3572334441044364
Ni 6.436461909674531 2.0257477714635055 2.6899702963848364 0.2222055338316044 -0.3086298241641201 -0.3895856351828968
Ni 4.066336652863212 6.577862177962385 10.550728063651336 1.828382420437651 0.8401208134659726 -0.18352714342480006
Ni 7.928840220976894 7.315219507455214 13.465575774476218 1.5843659613785424 -0.014412318770588083 0.1253533632975454
Ni 7.7060505774008785 3.918790526166194 8.045377532882673 1.3275387237080103 -0.5293274059916303 1.1886202201315206
Ni 3.1396868843681616 8.091354927266007 12.376210990232794 -0.15440554346849536 0.20668764070166337 0.7773815254552225
Ni 0.052688671766140255 4.8121251895958705 10.27569225011464 0.767245208352169 0.4058730594890107 -0.4926357069975516
Ni 8.779600019338057 2.4625862822113933 5.847338132523003 0.649386610769772 -0.020769628447183584 0.05753203277819769
Ni 3.663505225312693 2.81154357019596 11.751299196691553 0.1118429875159364 -0.3147166537881483 -0.06269712191890492
Ni 1.265455008885222 3.1506856946767083 12.66045557591027 -1.4203084966425796 0.5271424825251695 -0.2899792989424683
Ni 3.038812861679099 8.440967773480883 8.037927841993225 1.0538159958337205 -0.16472286623410343 0.34940083543389505
Ni 5.75822318559014 8.05079226176553 3.5634797863328656 -0.09091832154812729 -0.36748828906322517 0.3972403235146772
Ni 3.1099227197169705 8.648297168792071 3.694314641142213 -0.008213646159043918 -1.4554328511495387 0.1055872364142117
Ni 3.3503122807817443 4.404604699703546 9.206489523443437 -0.8421355299031562 0.43159386129388244 -0.09490198878622366
Ni 7.382541695717957 6.1398946502622955 11.280356179509292 -0.8089371887743165 1.05731398168465 -0.6128188389480671
Ni 0.329103889079115 9.23854541040809 0.3630299379952371 0.37019977445711727 -0.28094855619876774 -0.07414907250958842
Ni 4.682934693347553 0.1750595414241421 1.613465379426007 -0.1924182752668428 0.2465813915728076 -1.395193960963139
Ni 6.056529495307782 5.779437778321028 0.38679392384400085 0.15655884236607231 -1.4265218245421432 1.644497636563116
Ni 7.745120026932313 8.860115316985803 11.420853234235386 -0.4183220838856408 0.3528494561041278 -0.17814093941222223
Ni 0.07897655680160029 4.816814251937677 5.4747288498873505 -0.19584067068483044 -0.5260852449052489 1.1416757330611822
Ni 8.022594152886748 9.184188707144825 2.439560709869271 -0.07245368708503652 -1.5038652356193134 -0.14316673732988247
P 8.610511520794995 1.6654001592272898 3.672006540863264 0.8013485777937812 0.8156999614194468 0.026216767604683885
P 1.75577614525596 3.3587161730953112 1.402767143209056 0.26466370299581515 -0.12257014412545342 1.3202673868575778
P 4.939075861890626 1.231156566474382 8.291642534586607 -0.8531041130995178 0.2774703678421802 -0.26296857468157936
P 8.375457475326916 1.6717918519728192 12.55059585297824 0.9497241130181129 0.07112776918476137 -0.4874546770172443
P 6.290317949192343 7.733838962385716 1.3737295555964593 -0.10465392596666492 0.5835895097693046 1.2852685021848897
P 1.8814612259671992 3.2603915435241233 5.855053688694744 -1.5757337396248412 0.08627079547378691 0.4882866860002365
P 6.99372282534033 4.232893968239241 6.007890716608894 0.9895440732285281 -0.3379247164734954 -1.2115151224518232
P 2.4023750797524377 8.60638696692929 10.280622594305102 0.1802405022537283 -0.6870920957403458 -0.4284622576434363
