# total energy = -340869.04601672705 ev
CRYSTAL
PRIMVEC
9.24972466271404 0.00000000000000 0.00000000000000

0.00000000000000 9.24972466271404 0.00000000000000

0.00000000000000 0.00000000000000 13.53790702037801

PRIMCOORD
 96 1
Ni 8.067646653587445 6.548416413568914 12.907283774067704 0.3720103453032948 -0.07021168512839521 -0.5512334620361022
Ni 7.227299938684656 6.430676671199566 1.716416790556987 -0.6578776789599187 0.019589749206469487 0.4006429214383229
Ni 3.87422858134312 8.465394054139283 12.65233824424956 1.0940514463149995 1.7297294492494273 1.1041399408992532
Ni 7.903103305562595 3.8917105605306497 5.322455161659412 -1.1807734703935922 -2.0613053406867596 -0.18220662484116362
Ni 8.41970041541632 1.939038233354632 0.4509601402703233 0.26594822613519364 0.5630741634247721 0.8595390700915843
Ni 1.5880111909383583 0.9718962958578425 6.69423739435912 -0.7091493326507012 0.1313067526675029 0.3188836406816443
Ni 1.3866631893753163 6.29352175723518 10.35989671427057 -0.22279328801427437 -1.317194661469525 -1.1054661159098444
Ni 2.51189216723934 1.1704786298139684 3.700031295922489 0.5274327600720787 -0.5555254045432368 -0.6715307509669789
Ni 7.689434671048342 7.5206272000576435 10.792879090123495 -0.5527900078899447 1.7424281277630187 0.8407612752634488
Ni 6.496784451756855 5.918029193680801 4.4861783255092735 1.5777993639046182 1.7693750886655077 -1.6808908304801695
Ni 0.312008929820106 6.9815070111977615 4.975559971149524 -0.9285958156799297 0.5923430875922185 0.45094938300235893
Ni 8.124125471004938 1.8823281728261951 3.67399794649217 -0.3497484485813009 1.2659554036785747 0.5633749824946426
Ni 1.9293167729704552 7.531329131232232 8.25366878672942 -0.022621594054257812 -0.0976417563148899 0.23841299682940228
Ni 7.258628755355642 -0.00542958824501588 5.274625761563751 1.4701112790973196 0.48029569737496 -1.9715851532117912
Ni 5.860819648032721 3.721996616545043 3.671331250936739 0.8904275321403247 0.12711945405903272 -3.05400184350134
Ni 7.6582630996928 5.221182703706761 7.028515960735786 -0.8933061392397003 -0.5688789430320074 1.809841167100354
Ni 3.809942996500087 8.717328798652908 7.373230991195673 -0.1622713193698173 -0.05744538660166235 2.2481538351753088
Ni 1.1786646359414628 3.625864230462504 1.1595732047017475 -0.5630008869846755 -0.8590811566185593 -3.79935745086927
Ni 5.206540389921651 1.3520784697022084 3.5038270661193334 -0.042986273753538876 -1.130520230664995 -1.4426881498893604
Ni 8.186570360684838 0.21349381472237827 7.9731505437579635 -0.809873841655973 0.8884457258236055 0.24261186540209828
Ni 4.116589861063574 2.579979388826328 9.71673747487868 0.7696041955026487 2.715173384266653 -0.9339699355076496
Ni 4.892974731478654 7.306209337863924 5.651020173250818 -0.2107733807352628 0.23932291023818136 -0.26557618750775547
Ni 1.431801844632007 9.240650458172947 12.500537316610288 2.17815092362361 -1.0799803129339143 1.0846538071501837
Ni 4.453141084734617 5.100825289321503 9.955857651156112 1.2720633163485253 0.6084189101081586 0.04220645816472086
P 1.3082810244890055 7.6009240579025885 2.3377799792835368 -0.4121627491524643 1.8624505657659536 0.4035297560678147
P 5.944844144826118 3.61166590345041 7.875744470620333 0.030740880727282545 2.068302597940199 -0.03447309407620515
P 7.088766815779029 4.712706851909465 11.855415285692683 0.5160653987754016 -0.5042460375429703 -0.5453842023441768
P 3.6822967992578057 5.3870672617751 12.325587103620414 -0.06462776328271451 2.2183526926534767 -0.8179687028489655
P 4.1162013726371836 2.9392016870945334 4.676494180735296 -1.4598222384664858 -0.6258964980676318 0.15097877717513353
P 0.2536551932590639 4.90841252156542 4.670469835208927 2.1213043469482114 0.05287653628405732 -0.7740725156866475
P 0.7153847876923717 7.285832194927348 12.080754297530168 0.04830537197360713 -0.6277412645858544 0.8049278105046074
P 7.56518312267475 0.7166732743065637 10.055523431973908 0.14617364247700632 -0.5943130668343959 0.5519119761603656
Ni 3.88324706267002 0.9498819516957681 5.644143003131279 0.6099826550508527 0.6724967144246741 -0.35802431543684793
Ni 3.5030278899279033 2.8626232184736025 2.1082582420552582 0.21360262265394184 0.09777879611338644 0.6122804499460939
Ni 2.8154496238405855 8.226760413367282 10.775537706747421 -1.1159996684513167 -1.6851436922192529 -1.7212352957354875
Ni 3.732929790830577 5.359780574683453 4.707739749886342 -3.011789214689032 0.1575363757879932 -0.929682106765573
Ni 6.511029027391139 2.695536196228344 12.776764612415027 -0.45401645196345675 -0.26492904084205987 -0.19605921445353977
Ni 8.124264216871504 4.536360855501922 0.3910450502241727 -0.45929004165757026 -2.2597639086104118 -0.1887202575899653
Ni 6.9206160752234185 3.163368758845743 10.154431660360245 -0.6089444435943254 -0.32999954808914783 -0.1271117407495488
Ni 2.5301696227285246 1.3522264652932139 10.952992745115061 0.037998076510328105 0.9391237117944471 0.684773217799182
Ni 3.531008306352389 3.517438960602068 12.985844458635665 -0.6610879583671002 -4.048537456407188 0.38033120646416435
Ni 7.135311429150273 5.723627735170583 9.800077492063677 -0.8593421235894299 -2.3406058197591433 -1.1769026745842763
Ni 0.08874925603624935 2.015320710793552 10.030587099861917 0.10490126609078063 -1.6900043627456636 0.3443686723266263
Ni 1.7145196720747846 3.0235499242432557 4.875433554054723 -0.3401980858887044 -0.25671333780048694 2.0970719567634077
Ni 9.165191206208995 8.314420051864753 0.7610479023246884 0.30667989952660085 -1.7363053026947324 -0.8246530568476766
Ni 1.355241875459952 2.894312774397665 8.12569514924204 0.7738783973979704 0.04957883936939203 0.6139488387874523
Ni 0.12819655584633322 3.9759663004349934 11.102613512704336 -1.6609992337625652 0.25529486018640546 -0.5033060422272042
Ni 5.6865178407259425 6.410077534876482 11.843204724462284 -0.6250937996606782 0.8368071757117072 -0.6135449184808143
Ni 2.3300980831379055 7.091893222639022 0.32627570479304036 -0.8021787870045604 -0.10222783302367555 -0.4556017941727057
Ni 6.2165825493611715 0.039754390661420363 11.848280973233773 -0.36879672346200354 -0.09592528784441544 0.3694559543125573
Ni 0.40673073292587275 0.029076508770370393 4.090871002264141 -0.5864758301781641 -0.4801864254906053 -0.8321750762563346
Ni 6.257975066220535 7.95668695923104 8.852409924398328 -0.2042705466197385 0.4605766216794777 0.08596689108012291
Ni 3.3697671099518494 3.323009752918535 6.802811584783006 0.6427788756452673 -0.6918679198624343 -0.17421949287062902
Ni 3.5168654776869217 5.0497668104245905 1.197810640555361 -1.802510951987528 -1.5159568766765248 -1.2055277945201368
Ni 5.828306866633691 0.7995110314545855 0.9293457134988612 1.5746111959846236 -0.19589003586552714 -0.20970560159238077
Ni 4.783023257085974 6.9158894660356784 0.6173312338440926 1.263264744220289 0.9581861277425369 0.5139606937275729
P 5.833643957634328 9.148541702220871 6.782761882091529 -0.37460690238587746 -0.2986853113568985 0.05198204949424596
P 4.297671716383294 7.236170424420551 9.427838981566534 -0.6182934889093932 -0.1374318917286343 -0.14021305401819723
P 8.555023883942015 1.844219308142268 5.905153577263319 0.4731552296754367 -0.5927477792298049 0.05727389402080459
P 3.916647817615084 1.3943127114854155 0.6947421776644297 -1.817002974956116 -0.2004066927889581 -1.027589458037024
P 9.182414193112265 4.640318508458878 8.716638769209844 0.27050139272351476 0.6166500397686994 1.0682679095929923
P 4.922231609875563 1.856438194124663 11.531480686154863 -0.22437503067909745 0.24794613313081817 0.43029622552838154
P 6.6454830218196745 3.1595948712751016 1.5498597775220169 0.4035523817756341 -0.43771977168596227 -0.2476849090496315
P 0.2714229889317232 8.29518987475847 6.867292338811677 0.9806830232934725 -0.7077269983818779 -1.0778015601150406
Ni 7.159702952492874 7.416077564736665 6.671006711433468 0.18187418120240934 -0.37883199621081853 -0.4900358074808593
Ni 8.317111721676167 4.353373556948005 2.9599007204415466 -0.5116202185198544 -0.7069921770983824 -0.825350082914701
Ni 8.69532370421527 6.960815377630299 8.408109585723256 1.182774817094337 -0.29762961639887453 0.9418938183404166
Ni 7.698240408713171 0.18930671028985352 2.2208532876922757 0.9811537922823039 -0.049672941745095095 0.07709735650463496
Ni 6.186576443284798 2.1031190951575907 5.519634312418316 0.13950085844252103 -0.0671495012633037 1.4854903326565514
Ni 1.1345249509240594 0.8368003705533197 1.2822467500862427 1.9030829945753356 0.18439437652110177 0.30543728536875137
Ni 2.5181634804082 4.1490286446671005 10.724093514341451 -0.39882900815803574 -0.5415671425909319 0.32911328882945257
Ni 5.603557062242897 4.797961562053096 0.09081379453077669 1.2063009252407353 -1.024802639320506 0.5031980558944302
Ni 0.37101384698157236 8.475467004052097 10.281958536157276 0.9664496533029098 1.43189414459765 -1.1907781470147878
Ni 5.3414198716743275 4.511469847039677 5.689671071786804 2.2081287009326225 -2.056846790694774 4.577641176423787
Ni 0.29681810737583064 5.8609121452771 1.6001403545937063 1.4525832975158854 0.5377565105955899 -0.3971395362707547
Ni 8.2549443237294 2.7611722408393025 7.9705911450060105 -1.5626496527473732 0.033692507156438754 -0.7086525955199408
Ni 2.2417632147564714 8.316769481871965 5.390591406785919 0.5307345707518021 -0.8334372307982099 0.18584833535880896
Ni 5.01725402902556 5.861504127641122 7.583624298286485 -0.04793847555249163 -0.20417104492739677 1.1509795269606111
Ni 5.383709611804162 1.6209587093859676 7.947699001994784 -0.04646189100696514 -0.8238575575295747 0.011386644570386842
Ni 3.531332046707713 8.780347171247955 1.7674549200601362 -0.13307155787740954 0.6652816847334736 0.28996155833065546
Ni 1.2624856387972274 5.135086268639286 12.623353307751126 0.7711725684310331 1.1240289665136964 1.4133595761285722
Ni 5.876359185088303 8.162696821910757 2.7172610240155137 -1.8697476136479994 -0.4805998588789401 0.9587247738548264
Ni 3.136054322580782 6.574648632074648 2.746232085927293 -2.858051386711523 2.8540319811394848 1.4597281360907828
Ni 1.8214557363007278 4.287006784106457 3.070939037455674 0.270183861483096 2.935016845623984 1.349518313302895
Ni 8.530095876582019 0.3204733526531792 12.254756413765161 -1.4815663150117968 0.5103866032230694 -0.6792304336040819
Ni 1.0303823034783457 4.934552242826775 6.772675982564502 -1.0594726798988656 0.38042119507480937 -1.7402264921260093
Ni 2.593650481545465 4.942368259976755 8.343046099055 1.121290741646927 1.290729525299461 1.5718140928554607
Ni 4.533114202224238 0.25952044352510234 10.01028025483107 0.8689634487292777 -0.36590140419207956 -0.6575382933426288
P 2.7903273722673942 6.3408248480103255 6.4728119409312885 0.6665350975246004 0.04806445960739464 0.46402112858465244
P 2.7069133572868953 1.2510529793920493 8.840077266805348 -0.6096419838819823 -0.8679411781123505 -2.063187645311137
P 0.8480970590092616 2.281796022123471 2.7359029186475494 -0.6084433355881907 -0.21599734813836352 1.786837764226645
P 1.0544315870167467 2.0740194620761256 12.422017330829851 -1.45365621886509 1.7214756938810674 0.2800430136653628
P 4.035284783254903 8.525156523732209 4.050988040433035 0.030983078645075674 1.0650455460009527 -1.1146768358748351
P 4.833942990116318 5.622972233837936 2.7134566123542276 4.821602356764928 -1.0554422185832337 0.38007512458930026
P 7.8468187323583 7.641992834406627 3.562432395185085 0.165671860410934 0.08606459300025178 0.6495383058562879
P 7.070609606707537 8.229322587036565 0.23222913157123629 -1.9251687707307814 0.954777359171304 0.10977324947110127
