# total energy = -340891.4953320882 ev
CRYSTAL
PRIMVEC
9.06603831537226 0.00000000000000 0.00000000000000
0.00000000000000 9.06603831537226 0.00000000000000
0.00000000000000 0.00000000000000 13.26906348374673
PRIMCOORD
 96 1
Ni 6.489814533333806 2.0761227095145016 11.715932157349679 1.148763236035583 -1.2945699820914736 -2.1108278728969196
Ni 4.316658018754092 0.17081322257625642 6.1046049235461455 0.5826641697415579 0.7797705945126894 -1.05468271470939
Ni 2.765005609437905 1.9521990356439611 4.644676340819351 -0.03296437074116258 -1.2029158108185862 1.9935277189211535
Ni 3.522726936144468 4.449457343858758 4.799260448713066 -0.22081430991103262 -0.5003132781474674 1.1327722599239651
Ni 5.012231654745713 4.328072160637405 2.817526074365802 0.3082955807531529 0.5941546868796607 -0.49123342733338626
Ni 7.2883874274162315 6.093329492044733 2.7879898290586964 0.09117671741583654 -0.3251856716402722 -0.64490389240807
Ni 5.02719968353789 4.485794024294278 11.57062260636353 0.606382082183788 -0.22170776825957947 -0.5535294571591305
Ni 5.64262954331943 8.064567207557605 12.470105943374001 -0.3365039248665689 -0.9502090230743313 -0.3126780260915647
Ni 1.7941870587700386 6.618842386616821 0.19774660836414149 0.19720206980873137 -0.9056834298581306 0.7424039809387729
Ni 2.948783266401086 1.685829772201841 0.43966204742035153 -0.5606002479629829 -0.40692386935102814 -0.570425718693837
Ni 0.5522395746928246 8.959385161396389 4.4859517733560486 1.5797534023071953 1.2520732463798436 0.05974498126911646
Ni 8.62231893337438 2.397350569093182 1.197979919429474 -1.1689795630824575 -0.256177519901675 0.9611410966058028
Ni 6.746020768141142 0.7344977636817059 4.9404966288110685 -0.039030888650216644 -0.24311451607012965 -1.7540865379375534
Ni 0.7537141378960593 7.4575234329564175 2.262388087313887 0.8339630213946928 -0.4814904890140094 0.6485317189686444
Ni 7.622806372332657 3.7441830471720263 3.992077538310877 0.20680359745423738 -0.2336410293620557 -0.7305676504254772
Ni 7.748171546250415 3.81284015319453 12.676081794460528 0.7478619187295508 0.6079941638659141 0.5659260310512705
Ni 7.808370038788302 8.877818017215157 6.829387520871887 0.8413284606208283 0.6370003212902772 1.069672760360319
Ni 6.959634756270315 0.5605857693058336 0.45610512060046704 0.47880291487951726 0.9179943860149997 -0.6061887352260592
Ni 1.7116770466333946 6.530765827128029 9.136373262476795 1.0600480927863614 -0.18396397385190255 0.6917558197646023
Ni 0.20142741980546414 4.974870512012485 1.4040926676902967 -1.1655222006614765 0.33816151507464987 -0.12780979525783795
Ni 6.275330205553483 2.0894225873086403 6.798855824588777 0.6426194672492674 -1.0871596042911729 2.48283718975895
Ni 3.437116339000602 4.281082885513328 0.84018510204924 0.3934924264364707 -0.20199100655694247 -0.8957255473144704
Ni 5.947320949526258 5.576991427961854 4.856569594929895 0.16640411059126825 0.8474877953540051 -0.4203892508273147
Ni 5.496439680040298 2.722730674090891 9.517607414587067 -0.5730546716762519 0.21976761381407314 -0.27546362182479656
P 0.03049905854619098 5.558795889629996 12.440715661279222 0.5214546881117729 0.09080442167808232 1.1384659678746327
P 3.7042834137896095 5.9310836754094876 12.717070259010686 0.6698356226527431 -0.4039632440608075 0.315177909695283
P 2.63597775615489 8.52629145853081 1.339139944808001 -1.4237090376836963 0.237484571477862 0.7832726941286768
P 6.176165881550559 7.74296764041958 5.6501661407361095 -0.38770744432357745 -0.16643162139509401 0.30716146714870973
P 4.847383885195049 1.07062656337112 12.637004450727687 -0.6245752081530469 -0.6849938184504203 0.1537663672225997
P 4.044622481541463 6.115767936175949 8.490554949813063 -0.27127632321632633 0.5772018610754059 -0.8937740800150542
P 4.722680532053687 1.1123212722840337 3.7320436222460875 -1.4244533720488888 0.041068487905535724 1.110307760272862
P 0.3180048830580149 5.696300488473692 3.58215572205337 -0.6051582370790158 0.4299118456057693 0.5697466903489413
Ni 1.3234783641063141 1.1515046886618574 2.4044474636652686 -0.27291951524670416 -0.19995494996352015 0.25543755641185684
Ni 1.975471555274196 6.50441992060467 4.908491701347628 -0.8259244673609325 0.520413134221136 -0.9670638898481411
Ni 6.184969004480421 5.593255900192723 9.148182683618339 -1.0324791820291572 0.11078754966822854 0.8756254341304855
Ni 8.793993429563754 2.344531831514005 10.065459933475813 -0.1791218152682528 -0.4418435640463487 0.9236526127420415
Ni 2.4245033530014615 5.244748332173304 7.081155023458357 -0.10079470012157479 -0.12165097474529371 -0.06827538733763079
Ni 0.5395661601267533 -0.0878499085379717 9.23687301388195 -0.8340285845253055 0.43346613861593086 -0.5746932357209393
Ni 1.6953581781743288 1.167161736344528 11.447233828736927 -1.6365768390541429 0.14115253511333112 0.7165127149943079
Ni 4.187149665455339 6.783517901444862 1.3818001867714094 -0.09517915370701027 0.7619914161523974 1.0523800347181425
Ni 5.5715790032562635 7.958014062557937 8.072446501211923 -0.6310556736710681 -0.10854349082905825 -0.13659602609090024
Ni 5.378164147864201 2.86066137672213 4.898553510456057 -0.8253122876982303 0.82713931360464 -0.8673760496374997
Ni 0.7657755948949156 7.179078206854588 6.997440134867151 -0.7290905516593186 0.577708111287863 -0.05544609678344645
Ni 5.231956152509003 4.836151064072391 6.994402105522355 -0.14105431897256995 -0.907751882351385 0.3982713358823528
Ni 8.152625634970331 7.005119069080945 9.492595122258335 -0.00369647501498073 1.0637132003427745 -0.1875357503635609
Ni 4.4578071648869795 0.3694274507801383 10.513768261368059 0.48045819109475324 -0.7843114198058364 -0.28355642613526005
Ni 8.260892261158201 7.342547938624264 4.880507561751739 -1.3231477937291665 -1.7638263909331366 -0.17428814132503534
Ni 7.341215231033441 6.535298846144436 7.090748704904681 0.12323066052758777 -1.604985951621739 -0.022277323340961632
Ni 2.382446002567235 5.305590513411522 2.733784894264302 -1.312165840796366 -0.15951869632534463 -1.2615847854147046
Ni 2.3790915684950935 5.1063371295263265 11.116940837729235 0.21055406563560514 0.06105213011631421 0.6186475298147023
Ni 1.1210428008716011 3.5475769463924123 3.8274745517870983 -0.89808453446495 -0.1750486736401437 -0.18274887049787883
Ni 3.332122552542578 2.553132300611032 2.5854237148763106 1.0086897929190435 0.746904697022604 -0.37205302561577214
Ni 1.1303626879693343 3.4878770859463293 8.130074771967509 -0.6754951349313657 -0.4462956862804314 0.7223414058609431
Ni 3.626560269734292 2.8327289135430282 6.985618021272361 0.6334928223576509 -0.47537049215920063 -0.008214417489992305
Ni 3.9490029784093696 6.78064396738846 6.106184227371461 1.5199811673445693 0.5912773653318656 0.09931168781814509
Ni 0.7989491346607869 7.287344833042458 11.369862446957281 0.020020408985984874 0.4918216957366885 -0.6217390242558324
P -0.02713918485122996 5.470791858445466 8.296999570831492 0.26337018099537224 0.1268823983475621 -1.765745205222404
P 8.672381595391581 1.5955229673569764 7.939145824204044 -0.717226453231881 -0.49716701920900186 0.5953973010375101
P 1.8566701928921958 3.176368019138826 10.355601255243775 -0.08889717735304045 0.17184610754244597 0.005555125490274304
P 3.9581596768225116 6.230444251253019 3.649920729933445 1.6242193459300545 1.3044862127639212 0.9979731778324877
P 7.032498503940045 3.9107896281010563 10.595399774419324 -0.5087799208575818 0.7611833184288053 -0.8753528971953893
P 6.187444032863381 7.837154709542488 10.255127795348914 -0.009153127254177783 -0.5823839194969777 0.16965784164187556
P 2.1775082128354653 8.52155898667768 5.914989644693634 0.603556954030167 -0.9579066488289051 -1.2360017947392778
P 6.925482991000703 4.009373725669881 1.738472628643181 0.25599240047406235 0.8993245775196383 -0.31419780517020085
Ni 5.5907446076576335 2.865393848575259 0.3765869010146518 -1.2223086135229013 0.9449012377081727 0.8650317177750393
Ni 1.6489491294843517 1.0622042140386356 7.143479501914939 -0.5187578580059 1.5156306036853575 -0.19760984677011126
Ni 6.716238833203347 0.7175161678424412 9.332317542480013 0.9726642667540539 -0.018449464954439193 -0.839246124170503
Ni 2.6996757393734443 1.5107011155219647 9.344206744756244 0.7551139723062738 -0.034262520727295825 -1.7595796998416406
Ni 6.143772927659312 2.0863854645676474 2.621117613215304 2.004471876637483 -0.3495484167553528 -0.5695253183667546
Ni 4.148818456652599 6.6035570464934965 10.799982175460208 1.1390524365057222 1.9305940555114107 -2.0207158493001716
Ni 8.253195194868342 7.377914552990274 0.051831446037403306 -0.8725881899660586 -1.3990940673484937 0.5321137104875159
Ni 7.559099323076071 3.7066859138683057 8.339208324100866 0.5201969044452719 -0.09380129952287718 -0.20312049217569536
Ni 3.1095422527989514 8.441052568946288 12.433483682740446 0.3754995894034759 -0.1860941328210279 -0.19660943053005495
Ni 0.1528171370811198 4.910320321218846 10.417169626128421 -0.7017237296105915 -1.3866514707097668 -0.4923446581196939
Ni 8.921534452609388 2.1802733544354735 5.76523501526 -0.46706994271330526 0.45390846563068277 -0.16186997016634058
Ni 3.7421069244625116 2.5998405285560917 11.505684389142088 -0.268558410064531 0.15465545469577235 -0.18617280857776325
Ni 1.4838747089828668 3.5343858610546675 12.731878725533482 -1.2310611629045507 -0.05468530735802195 -0.8871437191827302
Ni 2.965627965066055 8.328144131285619 8.006048651867198 0.7938949497292134 -0.42806682197723056 0.8752515957308347
Ni 5.459731292045433 8.200312995022935 3.3955929782065084 0.9487697195246435 -2.0293372724205954 0.5074054091075585
Ni 3.039706561832182 8.728554767042901 3.6755703647358833 -0.30218869652446667 -0.8185248324627515 -0.03615973775000869
Ni 3.6438582703009015 4.089000737712089 9.069935522564725 -0.8026207596379854 0.20918263920937522 0.6637565063381987
Ni 7.058762816121108 6.045950377285245 11.52235048685781 0.10021903012376289 -0.05424821982060335 -0.6298693666724506
Ni 0.7308323645050391 -0.166202235632767 0.203124582125207 0.966182515684452 2.137015329925565 -0.037097161962613534
Ni 4.671502747358449 0.23288385196792033 1.4052331752748246 0.08707400810137261 0.052390854896890424 0.284000198540898
Ni 5.904311665098585 5.522250690319721 0.2705586796170839 0.4508138858657591 -0.021917626008697736 1.2611764942326924
Ni 7.866492408616676 8.74939758848034 11.36060058250296 0.469928752318339 0.8291355180990623 0.0030429005913818565
Ni -0.03720158046385068 5.032312928988397 5.76774358798368 0.41928547624017465 -0.5250922848643602 0.3699400930378274
Ni 7.968702921398625 8.807238911129696 2.4523215841013486 -0.4725641330586572 0.20347864684606248 0.7930647405184341
P 8.473545249255896 1.532677191713507 3.5975616404825312 -0.33181577536228013 0.8627262095703142 -0.1591093767020679
P 1.4628868309369014 3.2948339381136127 1.5613974935976596 2.564977250893815 -1.038930594081456 0.8893360988483587
P 4.711846616604473 1.105367621112865 8.057969851681126 -0.5142867096084239 -0.08257303490722553 1.2842027799245366
P 8.679208322030291 1.552803796146355 12.464520357341984 -0.051662461371298124 -0.3922744948689696 -0.8842599698770319
P 6.510766147227641 7.55513746445573 1.2546390307193511 -1.3817203519567365 0.09549128563079039 0.840733507349307
P 1.7729997278873513 3.406708847438542 6.011999878059962 0.23229917062218056 -0.06991600826484734 -0.5241571746446005
P 7.143684394374481 3.916174854692548 6.1389053718394955 -1.0005784766658188 1.1615251636869415 -0.5813127979199859
P 2.3328457084897076 8.42408094574886 10.224516317931116 1.193175700712687 0.2478021513537861 0.456904057923897
