# total energy = -340853.92637727526 ev
CRYSTAL
PRIMVEC
9.37998200499846 0.00000000000000 0.00000000000000
0.00000000000000 9.37998200499846 0.00000000000000
0.00000000000000 0.00000000000000 13.72855180742575
PRIMCOORD
 96 1
Ni 6.490112681914676 9.397147303804362 4.012127813798899 -1.9507746442243437 -0.6205519459262668 -1.762767353541003
Ni 7.17589254130044 7.34869994852321 13.099743217672433 0.483573082574651 0.6461465065659195 0.2644598145151252
Ni 3.078941550846517 6.7451731507417705 9.939320577734994 0.34411464733429126 2.4440233022155455 1.5117441241467577
Ni 3.1265918590857655 5.790328509497179 2.6650554758717355 0.597370622713797 -0.6563000500601536 -0.5248945670312574
Ni 9.311048449605924 8.656269430521482 4.391365173497114 0.8458155498579046 -1.889953913392545 -1.821116225793541
Ni 4.565255968633591 1.458831070712074 1.236374481099311 -2.6953460651280805 -1.1167910540043604 1.5754349774374998
Ni 8.116817289350731 6.844460259543433 2.288179057627029 -0.3752000558851861 -2.491047236373568 0.8754804239121889
Ni 1.5907605166540086 1.5791387190342392 8.353123422293267 0.8584738620518635 -0.6528874248341788 -0.07412284725734332
Ni 4.879869942777809 2.2709592867873414 11.837540018311785 -1.893980518053435 -2.7524124711237694 2.093045352102518
Ni 3.001969419072645 7.910073107480402 3.5412527205685316 0.04404274004251124 0.296724845196418 0.7088174032325794
Ni 4.017146104135119 3.629546490540194 1.8185524399924577 -0.5596761934868167 0.675769471638675 0.9910553676667317
Ni 0.8133316677577669 3.8706776861910512 12.954164960014174 -2.861246496610053 -1.4673743397821308 1.6881819648249443
Ni 7.156504118636952 4.4711466098610755 2.7640790071809724 -1.1983613586786845 0.11244154033188378 -0.12021321385750262
Ni 6.583096442854768 8.229902351581515 1.3463153733848585 -3.150233863952897 0.664602656388578 0.3738108888471433
Ni 9.181576558931447 6.086182519767677 5.394318804097666 -0.15838586827248205 2.6142071915642204 0.06387982937309644
Ni 8.5078124564068 7.474054027127406 7.549001020801111 -0.6383087556890555 0.5747256316207715 -0.5486482178074292
Ni 7.550360180183762 0.3773247813812888 8.53929636577787 0.9904347033635975 0.6083551467497588 -0.6805247269354732
Ni 0.4858577383781137 0.7650529007287489 1.3469710341222447 -0.1890449879192357 1.1594613391793773 0.07229864956441097
Ni 5.951654818829232 1.0046898652570646 13.496758457135577 -0.5166464680898522 -1.9185458660976247 -5.187845460567142
Ni 6.223674294998171 3.7752082300376917 11.000729317767865 4.117680076841122 -2.7271207864365166 0.6941119787016046
Ni 0.35952438965970973 1.1979925330118737 12.535417240401516 2.630394085736728 -0.8949894404793942 -1.5608881899715763
Ni 2.9735199338581486 5.953699654891468 12.10328334856677 2.3261562199927166 2.6249222639888794 1.384074968231842
Ni 2.64447954749504 4.657827010368461 9.25465037021236 1.22699676302719 -2.523588146424067 3.1701082342793208
Ni 0.2527520552724334 0.15821872131637185 9.855878134421076 1.8100339998374504 -0.009406380915564444 -0.08267022260672213
P 6.125400224245689 1.4437386797756664 10.354293792616259 0.4322019271915266 -0.8931935249212358 -1.025734407106156
P 0.5676680648350184 2.293339923688689 3.8628575952502913 1.209723320658723 0.027315142875185217 1.801529561910865
P 1.1204013224301685 5.075133026757421 8.161267147753122 -3.8551671016397218 -0.022956608796173367 -3.497878635927634
P 1.1696180876528726 7.705870900714962 11.051662619685013 -0.18595940701537653 -0.20284538413743772 0.4301941527328784
P 7.884869096016059 0.20311319086257076 12.81731946553913 -0.5573367467203627 -1.039590596262958 0.1376126402808727
P 7.443025046880273 8.202212644903904 5.362633225114952 0.09451040977475982 -1.4663636391294295 2.418688422995183
P 1.054685168980528 8.829770956407579 7.601787807148984 -0.10923023248343769 0.6303583904937273 -0.6073714426802507
P 2.156260867663419 2.1358125070410643 1.0971051992917833 1.6632435497120517 -0.7973775089611751 -1.6460845214342616
Ni 0.10255321851207674 4.5383354204748025 3.6710697945782855 -2.3363958954428536 0.8603811063769053 2.1745999730475583
Ni 8.894305232133176 3.1427441879810387 1.8487831837767634 -0.9278195996355375 -1.0855650061105433 -1.3175157922543697
Ni 2.384306988512357 0.754881248316418 5.847964746506409 -1.8581015447686389 -1.23459900085448 1.0785839468070197
Ni 8.115813631283487 6.3417870275471095 11.114127671395337 0.07334123189631239 -0.1272516087615228 -0.5296259110686555
Ni 5.799680351488228 6.89937067380181 11.365140678016678 -1.6615504782803447 0.7975204622969426 -0.5827431026086093
Ni 6.5329698193841885 1.141787681246209 6.041001960772404 -0.1398045057258689 -0.047782923811233835 0.7442448908022538
Ni 5.604088968140825 5.6192845388785395 6.770688577606417 -1.7519522652033697 0.7956839233088362 0.3936677756720704
Ni 8.183274461373383 2.4437197941004274 13.124962237107875 -2.942854853611164 2.5757059501652284 1.3139265322412146
Ni 8.054862508657772 2.9755460099565103 5.175609517268678 0.046349790909133076 2.538610845085144 2.8436485810226317
Ni 2.76080070349404 3.077806573032157 6.557896183383201 0.44779643919567397 -2.6270783910999334 0.9273539728530288
Ni 3.377074896727673 8.0146880460222 7.938809620142166 -0.1438208259741136 0.39791960896988887 -0.6251778747340523
Ni 9.417220465149242 6.617389656815928 13.319495558492799 -1.438865947929793 -0.9903897090582748 -1.213620341720284
Ni 2.520701305856237 4.652846239959988 0.4021048176620853 2.4561110866180154 -1.102667727229101 0.025001921360976294
Ni 1.8501263971901218 0.5240370788557146 3.6171714803708945 -0.8722855711239751 0.6608120789978942 -1.1074540928741508
Ni 0.7567384847399162 3.4959005079038135 9.616452219486339 -1.8919645160646708 -1.3627600088041496 0.6104107437272067
Ni 9.029977290867917 0.5879513377752843 6.116701228997444 -0.04760526058278898 0.16084127179151012 1.3058445265640284
Ni 2.6692239398444766 3.8747298383877746 11.79481701458397 2.2118655422672355 -3.068628849385896 -1.3267956748943988
Ni 4.324922071447366 7.453033487606904 0.22199040451050134 -0.2359521939937356 0.020880700103751135 -0.2048999526736213
Ni 4.953005661939505 5.087927322119299 10.07571395708068 -1.6568882969179854 2.3548762136352286 -1.5165945102605236
Ni 2.245033016713861 7.391772825577271 5.797498567689715 -1.098288881435115 0.39528808488431283 -0.08711206042815965
Ni 0.6476933807293388 4.225822562284441 6.156157185016652 0.3173018980168213 -1.164067470492821 1.0827193091316323
Ni 4.819631698779294 3.613863160741764 8.006683169437284 0.9745774246163666 0.09567846194093199 -1.4924698492981783
Ni 7.7007400505955 8.842499591895898 10.697617077474622 -1.778109383214712 -0.33226366153297615 0.8973736244408546
Ni 8.055059488278445 2.3608757936340807 10.656555268547825 1.2601082008691782 -3.004929768565038 -1.5844700910565745
P 3.9146885614387985 5.743944498819406 8.237020819873397 2.804394777728332 2.5794160520269642 -2.3284378169380413
P 4.330840840049524 1.3928991776778856 5.760816272329237 1.6700955396368784 1.4080137384356266 -0.8560094596717709
P 1.8208045736554979 2.021836346526279 11.052692541701681 -0.5750609034730032 -0.41031335464855145 -1.9426597284266933
P 1.9799734871420736 6.644882383872864 0.2396622904795454 2.1836721105521555 1.2766787036333498 0.688432411818324
P 4.249797796115056 8.757845254915738 2.0930819993276986 1.006061354157261 0.33259610517173044 -0.5493796966568151
P 8.207746834246652 8.98053540607873 2.447745682347728 0.8548861447006051 0.7269115417301287 0.38755960589180355
P 1.251261450431301 6.428645660282433 3.700599853711908 -0.5986746862372013 0.5194847088695956 -0.14770010642386175
P 4.238757557375371 6.196584907164519 4.7502301504266615 -1.147494139515172 -0.4769229242479851 0.7485067514024012
Ni 8.76201934687764 2.330315812483791 7.570719430977715 -0.8365917172667916 1.5541724685142975 0.5240358185753878
Ni 1.1329142183339396 8.599379840074427 13.344495086350918 1.1680531946134463 0.3350275974313585 -1.757745474846379
Ni 5.90317907217954 3.5169491873701277 0.3239939560810781 0.2606545818364221 0.1946469074870454 0.055904010256471466
Ni 0.6773125496913613 5.237950753217436 1.528303906927427 -1.0844473475663323 2.171418489995783 -0.04918134682065723
Ni 0.6503263416590153 7.8703488839778 1.6826946576153663 1.4839235023900637 -0.9459520475701902 1.980573729863647
Ni 0.9714659692367069 5.35449702878292 11.257137689999285 -1.34820833624222 1.8138942541238052 -1.927335953585429
Ni 7.951260608165154 4.952761782409147 0.4504295466025938 -0.9205768020301952 0.03212336289710596 -0.6443410779260644
Ni 5.686914208643299 7.076811792101389 3.593105260715493 0.6012900123728613 0.05452975561676415 -1.2191896082779452
Ni 5.401359418539473 9.161812936990483 8.901167626918182 -1.4487420693929243 0.8953578795624064 1.8069342778662043
Ni 5.587542680004205 3.3694395914310684 4.770397111590911 -0.385237128406214 -0.7532270396962061 -0.06537903962644225
Ni 0.9527060053629872 7.050397762967191 8.898325492391313 0.11136784765173079 0.6482226723686578 0.93490633127899
Ni 3.8875616536773996 2.812681383586812 9.854835080429698 -0.824422171783793 -2.0691585181825913 0.1139338086066941
Ni 4.2980578031802 8.595252648022209 5.521198067764795 1.1171286398494373 -0.3726929731926162 -0.03584169228895762
Ni 2.4603786420202907 4.184175442484784 4.465952913862636 0.7690753195823723 -0.13982301766863017 -0.2374010106251202
Ni 3.722492731552539 1.9413654814899581 3.651739527802804 0.6337003103827666 0.28890946291705727 0.4737383558724163
Ni 6.136281003292447 7.950013070567552 7.2153147293846756 0.7941443467358581 -0.4775433314408034 -1.1747648023056672
Ni 3.2596281428962497 9.47753374900325 10.17227993312246 -0.6620091846297889 0.1944589598459554 -0.21115338978250087
Ni 7.290393980803689 1.2495449137368557 1.3072036627027337 1.7319570530283657 0.8995258948971669 3.0828143968576587
Ni 8.121572940192719 1.526451360494897 3.6898916663327883 -1.207513714601914 -1.781682702388267 -2.429255142767436
Ni 3.0623202228544013 5.173885476588683 6.30463104309882 0.47542037156052963 2.840628563249385 1.2285131996717165
Ni 6.9602373765900944 5.342059172734644 5.03202169177742 0.9806989641330724 0.19732702542236982 -0.6903440270187401
Ni 2.824556440718877 0.927088336695229 12.540784466065789 0.8801485188118197 -0.12418531113137322 1.4516250473676742
Ni 7.490356435733669 4.39403377835815 9.44078204177644 1.6615893019380803 1.5290119100882698 -3.130301129584712
Ni 1.6320793370858766 3.4909572574230885 2.583383973147497 3.3724764216700236 -1.026018514005478 -2.544925474449262
P 8.41060770359512 4.136684593938462 11.608108474130772 0.7485473748323495 2.0038486412311873 0.9003404203786624
P 6.906612019857066 4.036572046726356 7.2133383671905795 1.2673142316993145 -1.4126556080830124 -0.42223478867648573
P 4.411095965501298 8.75350232327897 11.888252890653419 0.35591986749933546 -0.24521999244890674 0.7626699302766607
P 3.866831893596939 1.2665039210786986 8.111034530486657 -0.3864643159450957 0.3464188699874357 0.6031736025488192
P 5.785235179305464 5.946364509016844 1.3110597732769769 1.070672405269427 -0.19064035743081362 0.17569864851931674
P 5.83325130684025 2.635118325522054 2.576176395027214 0.589706678410636 0.10239469761884301 0.868552586444104
P 6.732857234458674 7.088827548962507 9.33343846648921 0.49038316351794903 0.1625744524325329 -0.1781360543162158
P 4.851260997870386 4.307081345803459 12.258896310901081 -3.4428966232647995 2.8764715410899235 2.831139135701711
