# total energy = -340863.6305516026 ev
CRYSTAL
PRIMVEC
9.32554096639888 0.00000000000000 0.00000000000000
0.00000000000000 9.32554096639888 0.00000000000000
0.00000000000000 0.00000000000000 13.64887184444997
PRIMCOORD
 96 1
Ni 3.67959725093652 8.677294403130912 8.18918627657538 -1.0229699569871413 2.089040601818499 -1.1666056635336426
Ni 0.07059527576542317 6.117405500284719 8.279896743662718 -0.2941110617226548 1.9562125274104631 1.6402578874501557
Ni 3.0251587801910738 3.2170038037767976 10.86682225414938 -0.29074368791231864 0.2506213659701361 0.44198626027180005
Ni 3.949898048556207 4.206415696999358 8.782925735361994 -0.5958295034789223 -1.9358789580594338 -0.6400334516896461
Ni 9.172657800362588 8.650800541960045 3.594116547082067 -1.0216646079121565 -0.15464028518712075 -2.3873860133374754
Ni 5.03931704040473 4.497689635686723 6.548278120702908 0.5387867516323173 1.3631793557297556 -0.11529623617185951
Ni 5.268557482256968 9.215182266022266 6.3260877876310895 0.6241100955911703 -1.4136441972485267 -0.6955078306078667
Ni 3.393088663554438 6.470759563510787 8.90168463125736 1.0637545951036713 0.5650405431225236 1.9647797002541838
Ni 0.9124659242303297 3.2763235682639054 2.7461395345570816 -0.05179847272853014 -0.004008349828444709 -0.7466013068495723
Ni 6.5824235880303 3.2279613141167367 8.165450910347966 -1.1635087697758737 -1.0512500348787572 2.0292022895046276
Ni 0.47984849514439426 4.498267819211044 6.784662859296787 0.6972284128433992 -0.18613064248591818 -2.2265252011619396
Ni 0.3074929190986184 3.142558012250216 0.09030014329588369 0.3183437090177743 -0.6296824474726253 0.7808854248434229
Ni 1.6678076780644346 1.2441203867670316 10.413734330640294 3.2914794730006673 -2.3423929935665533 -1.3827261675134315
Ni 7.695231035991646 2.4459307953108262 1.4676629232425018 0.503573436955978 3.1866723092855893 1.5901162335987582
Ni 5.45633657009102 8.856372761478017 3.675217977016831 -0.6140144019180651 -1.0385043051773148 0.4425022806762702
Ni 1.790205399946732 5.555112697342624 0.29809277405805795 0.06151621423692631 0.4919934454278624 2.1700110681252953
Ni 0.36683319977529916 9.118140689343623 5.660200350550032 -0.27711221317181306 -1.068399035854218 0.6883233970442856
Ni 5.338144667071117 3.0400609942533907 12.536352359583846 0.6701017318299363 0.35043416179441583 -0.5446342115520298
Ni 3.869418632187123 8.946699948841973 0.36302464894735775 -0.8230147499133051 -1.2926118299238385 1.5611524993765566
Ni 2.0053642753195597 9.135346311962506 12.389121655331996 0.42516713183193233 0.4579229861067145 0.4305106555320328
Ni 8.198894164459531 5.083286964875208 4.556143057441423 0.6415493741135402 1.0794956599880117 0.5936733763678679
Ni 8.966964348815324 6.612321271562084 1.8879939524366336 1.160756146731401 1.755129891600403 1.2429445446056981
Ni 6.398495948511478 0.7350214006164648 8.29664354967843 0.037720140258593104 -0.05665657215177985 0.6255563411193936
Ni 9.214827895475102 2.3508196055601553 10.531469282165173 -2.3212613537942604 1.2375588548137526 -0.8889252365631851
P 2.3600985185714234 5.665704284679931 7.397252033530309 -0.06916961701712603 -2.0257572683788205 -1.1360391036006952
P 6.159277178094358 3.6311137647600584 10.473406600566424 0.34366161895727265 0.6487443492000827 0.09828813164963718
P 8.330179126643072 8.506394543990723 13.51271036091377 -0.4048297058261609 0.690197988359179 0.2815923604303538
P 9.243317422358944 1.0346594167709722 2.2154575169760853 -0.6329325789788067 1.2944159730121125 1.7794610121465997
P 3.475675652125077 7.558126936402044 4.209530427598115 -0.529154884969508 -0.10235818795395274 -6.151627851450535
P 4.382164837311264 1.8747041243639126 7.978174469158444 0.2501793933367111 0.4134752973163008 -0.1652450572861606
P 4.774378428696076 6.480523404639226 12.55439541575892 -0.37630537313422285 0.9554728425764318 1.7243149631020755
P 5.645756953090885 7.088819099927635 7.371577887388279 -0.41229053297958024 -0.12709477146868436 -0.2534868604433892
Ni 5.328837777437705 6.337562865480702 4.736471970798388 0.8653618474209483 0.01360164994383464 -0.6046712701402682
Ni 4.45398082635626 1.4744985445864809 10.149054968963513 0.3559540631713805 -0.27477199507441064 -0.4802116223015859
Ni 5.248013316062171 8.158523898704983 9.598678341946844 2.046727185762269 -1.3656471005439577 0.4033153260641635
Ni 3.202838307430953 2.9820188288442164 6.357125984792297 -0.9400932747965681 0.08968753446481972 -0.9102013723331421
Ni 7.426468952589908 3.3084407304858203 6.123429799586508 1.3047628634640756 -0.6040151246135081 -1.647128389317744
Ni 3.6059721069928448 4.5676311910480365 12.75495235948045 -0.5913971787391815 1.414248663601745 1.419373643533136
Ni 2.056365657489029 5.295359086271422 2.816376709559055 0.25184495396459206 0.760195243483923 0.07742028706169246
Ni 0.3602605586794787 2.0183361024539046 6.028979790672518 0.7774743422793449 2.1715879256941117 0.07606377303379802
Ni 2.7652373093870057 0.1395669748923924 5.7461613197513 -0.4841798629207145 1.8979677848359573 0.376313600664339
Ni 8.190547805519747 4.557009400173832 9.56425590606022 -0.7466794683856754 0.32085850501982804 0.4458508854335289
Ni 6.770146722620065 7.027317158913254 13.243008263007978 -0.48359725094436706 -1.0788708819198194 0.7181636203341697
Ni 4.225803496145514 6.05165111270437 1.3358137658457125 0.45408252931470183 1.398396784171153 -0.7744718080075952
Ni 1.5746082241603065 1.282149941802156 3.9600423717458115 -1.1822616249033446 1.4642648476188718 0.5295549486214041
Ni 1.5773126309676109 7.639277791702596 7.19145413592704 -0.20854654828727306 1.284877694504374 0.37792465390520075
Ni 1.5377909894181114 1.0330367726865897 0.999490937627161 0.8860545998836096 -0.9859399008170375 -0.5444930579884751
Ni 6.842149222479358 1.6410620272942684 10.9867272589986 0.31047587623392336 -0.10432842430644612 -0.8528835124482796
Ni 1.1148124392150365 6.9570865117897815 4.571757742814354 0.711537887487536 -0.3256944929558907 0.09267412789696942
Ni 3.8642149804682413 2.1592170460330182 2.0503609418227424 -0.5457801522310148 -0.5877189585566459 0.7354308920550495
Ni 6.6275405540087045 5.817505436436124 1.7125105900350999 0.43068909009142603 0.6404317155693293 1.6910811407496102
Ni 8.793546593682128 0.6519354956175827 7.658491203237384 -0.5777312512163147 -0.14624229093141264 2.142889786428471
Ni 1.7657351811109874 8.16281364743381 9.87830281517323 -0.034347110021302134 0.009995420649815043 -0.4863046225732012
Ni 3.5970662156101714 7.442145186531558 6.0383836659293655 1.5663147603037864 -2.3779063559818145 6.416037015233383
Ni 3.119113602893104 5.277099677551764 4.956274032893136 -2.2626507432399032 1.5600767498138746 2.2128327912765116
Ni 2.4912715742663867 6.886445540874855 11.99990995550329 0.6914038357418222 -0.6751151258841277 -0.5074892270706163
P 8.730944238863396 4.818488236277278 1.0203204653678315 1.5372039589807591 -0.4822510213291178 0.6989608221534737
P 1.7456852685740776 0.41471145835936796 8.058894484477971 -1.0880592332873067 -0.18422519793308917 -0.4398324471535909
P 9.049075734809506 6.747923959096597 6.285578571319888 -0.8901174570990734 0.23407040358999043 -0.9361461172233618
P 5.4017541802870515 1.1420243670209447 0.7794314906086839 1.4599829324140663 1.023047347192296 1.9499966284077384
P 7.394696835374442 0.9706582308450135 5.850711821813533 0.33744726261644464 0.12620619821614393 0.337561933817438
P 2.1713122723401677 7.952653261884137 1.2550107532138237 -0.628040283883512 -0.9652918855493827 -0.8180450646128556
P 3.2901719962254456 4.229319224995009 1.3760516089221115 -0.35833927557410544 -1.5762320194174984 0.301475729617842
P 9.17984779225373 3.2216665741342188 8.297176038053248 -0.1108615974392736 -2.0273300121825795 0.2941804815080095
Ni 8.358230353113317 2.6271540280223453 3.914550519030671 -0.3795981849528817 -0.7947269587122054 0.45658549824221367
Ni 2.0761637804266377 2.5386453210977824 8.431712816284056 -0.22455217968691008 -0.22450872804348432 0.06566340363608046
Ni 7.156671734168823 0.3955428094200108 2.102840422195514 -0.5409233383593458 -2.570618508339992 -0.21264668649857568
Ni 9.256335877196863 6.510523669118871 13.01179640184862 -0.954817211270304 -0.9415778297618945 -0.278359712425669
Ni 4.939841497599513 0.7779291459995229 12.487570456104509 -0.20733684424988807 0.055259177583620964 -2.8245175166201357
Ni 7.505847955154641 6.643375322142506 10.930985704483776 0.5295690896887912 -1.6725512002662228 -0.1127780977356961
Ni 2.8655521508565585 9.278194944632451 2.827650355729227 1.3307945116411468 -1.9020725510329497 -0.4027949347843192
Ni 7.291034124788262 7.54887600001292 8.789750166057116 1.2703679309239735 -0.18331502741399397 -1.3993097829037255
Ni 5.420041565628857 2.2079802984309254 6.055526807425459 -0.245204565829939 -0.6909634057702939 -0.3525491512548896
Ni 1.1804176181439479 4.440486768941884 11.97573815397042 0.31917700355234707 0.43013038937447856 -1.3006377855521085
Ni 1.4687726625875681 4.673504054783634 9.464837249053366 0.8134456181676313 -0.7910435963233474 0.14492640033346654
Ni 7.349188196686015 5.2489178935115115 7.298597138307999 0.27841961912932695 2.328684385731209 -1.2170692195008328
Ni 8.196767941176548 4.004368531871598 11.815841500319674 -0.5069184421688109 -0.11547107118682695 -0.5858700782733652
Ni 5.86522422827397 5.469476256958234 9.083337771395835 0.8252575232008948 1.3496707797203593 -0.7090855692923014
Ni 7.410932601758982 7.767998230189556 5.180797616251808 -0.1824231117273439 0.22973860898385595 0.10870264211474182
Ni 7.70854790813244 1.4435377494132065 13.244128260447829 -0.306320202194337 -1.6270185059417464 -2.1314918290041747
Ni 5.599045319650243 3.770884968994106 1.498796240919001 -1.6762114227266292 -0.7644416774651028 0.7225846322200007
Ni 5.945293320851601 1.9287269817249906 3.5533881805640672 0.30245017771596944 0.39160909337082883 -0.22921024728421172
Ni 7.0943491455715355 4.449905565063874 -0.046786237766360816 -1.5085449004831697 -0.2909092669559054 -1.1923668316581464
Ni 2.8910948068745097 2.5781856137287114 13.554543804006478 -0.0030734967190011583 -0.60065186456823 -1.1173669811124887
Ni 9.179959698742309 8.265954127739958 11.541840328144337 0.3628063102065236 1.406621228963474 -1.4430092806742052
Ni 6.5213226452666575 8.650175730732151 11.61785094540287 0.8594233704493264 0.7175758661514997 -0.06418270532549591
Ni 4.631679004677569 5.237251642077244 10.934328910830047 -0.04548924268105069 -0.5332239128325591 -1.489644464034241
Ni 4.413041702618106 3.95766622397167 3.9864122032251696 2.1682940854341886 -2.023983721418166 -1.247353215196355
P 8.10505124824608 9.268981310406188 9.890232046855655 -0.9756464893108294 1.1920446724320375 -0.35473664582451164
P 1.068175410100113 1.7749208387151063 12.315540341429681 0.2138515054399543 0.4975159179079883 1.078118577134827
P 6.595246206513208 4.046193581977662 3.600613651298097 -0.376863559630538 0.11672654086048284 -0.5653177080433104
P 3.7417333287195107 8.764786626117555 10.771034030142811 -1.9926175484020585 0.6956602970253309 1.749714891232419
P 1.4363291064406338 3.8841156843537137 4.882569621853384 -0.3362028486863823 -1.221286342905974 -1.2730339077919108
P 4.024325189001359 1.322025953898819 4.291055237081332 -0.57525039377599 0.6640629818350241 0.24728330273583862
P 0.6102214194460241 6.329011344645193 10.575622919787733 -0.6739149349284393 -0.23843382276500874 1.0412947234382581
P 7.1642347476885595 7.51647907156956 2.9029783434074323 -0.1438010284797717 1.1069671259354033 1.0083159545193927
