# total energy = -381177.5728604623 ev
CRYSTAL
PRIMVEC
9.16361877233110 0.00000000000000 0.00000000000000
0.00000000000000 9.16361877233110 0.00000000000000
0.00000000000000 0.00000000000000 13.41188234608635
PRIMCOORD
 96 1
Ni 0.018002845571515932 1.5623970120856492 5.6357401313508815 2.26693060156218 -1.1339392836488729 2.980192413719358
Ni 7.262140439219007 3.150497975015288 5.181372171189277 0.3235453078233718 1.3543471021501063 0.8917830177269545
Ni 5.072695317203758 2.988338576036592 6.191313847058396 0.21212912343220888 -2.2037133454737465 0.32151413632595593
Ni 8.55400909593344 5.468921032192447 11.526869403388718 0.48577420399102794 0.46001560696968513 0.18927998674817725
Ni 1.3463738615700651 3.7190088878000016 9.048487132116158 -0.049168491304850806 -0.39643839643867207 -0.2510288858211999
Ni 5.893425674918943 0.04210774492806315 7.476775301480451 0.9219834525697348 0.9896731426072245 0.1197586428185873
Ni 6.265037909705509 6.112381183463075 11.247767566231534 0.044690400928839163 0.011247804999677403 0.32068598399770576
Ni 8.86659846177664 3.3280339264061816 7.134088945921743 0.2685141870901569 0.37777912946627196 0.4702048887978611
Ni 8.38248447850107 2.4943370480335116 9.424168013667334 -0.05967144771870369 -0.822708788637112 -0.0475389261212278
Ni 0.325548555605614 9.02031816780442 3.7897960106091464 -0.18152142584868092 -1.3761045484318557 -1.106190652780695
Ni 6.021175685156399 5.873284040710355 2.588238483002685 0.24432216322498565 1.1266550912826336 -0.4971140544838793
Ni 3.4565170261507734 3.1957662520809955 12.94882387678272 -0.1287474765807589 0.8943543779985565 0.25247076047404904
Ni 1.6487549560263832 5.079962066943253 6.864134233089859 0.20499894014533082 0.8441962690869267 0.0943402027454827
Ni 5.723238945837098 8.662442197657835 11.940867040754176 -1.2877239057039178 -0.7198901161069731 -0.884705799165199
Ni 1.2967528655557319 6.443444404886127 4.651200923265942 0.15635649654727912 -1.8843455660668322 -1.2884787815920713
Ni 4.340448863000004 5.009970346249352 6.519864404195736 -1.1332407149199515 2.5795870303871897 0.08051795215040972
Ni 7.484944667675608 -0.036010272952451475 4.98352047683185 -1.4720866576561358 1.4205476092365792 0.6869334586752943
Ni 4.6629807552837494 8.970587208364018 3.321921792640427 0.3919849886530088 -0.35494901894563385 -2.2704193314417283
Ni 0.40828503738109145 7.3707476497013475 9.914493097792121 1.400888183134439 -0.299356112171678 1.1251229709088235
Ni 5.494240111045189 9.107619964485593 0.7183617389385799 -0.3413795077913153 0.012199113169353184 1.146286492360316
Ni 4.168493555482191 7.588090361329779 7.8635075073517156 1.3337957603613158 -0.33445604119860467 1.702348229022997
Ni 0.3739443757811444 8.129284526354802 5.9675630167757046 0.6521014385977737 0.2716743299856934 0.6088189737600547
Ni 8.519892942995053 2.9565683095210438 12.010796448839969 -1.1049025300968907 0.7068386822396536 -0.38102900386213734
Ni 2.2257697070938858 2.909064109458569 6.337651341749308 -0.9547717027443492 -0.81045979606643 -2.1271021845769105
P 8.074174522655781 4.727969140091441 3.859094961718804 0.9123299886403707 1.0858689105042074 0.4760567195929479
Ni 2.701773887696754 5.452307391236955 0.7119801947789527 0.6049152678302743 -0.8306558113983308 0.501070468028466
P 2.9730078417185903 4.687337654158375 4.298816709889696 -1.736344126352468 -0.3047718838706106 0.6410413241288702
Ni 2.8784851133921183 5.738349753302958 8.823999546878795 -1.2164855790832212 0.3921698509703052 0.49678032529354443
P 8.800977787269042 7.377959417727808 2.2962351868817743 -0.27627943285787254 0.3856585322143487 -0.9964482565475291
P 5.232307230145153 7.241109933983015 6.028251831624038 -0.07565805295494711 0.34143118696485714 0.1947212123684066
P 5.595791335021337 3.8888290721282788 12.160352206467213 0.13993434643551383 1.5813701119750119 0.7724177536920439
Ni 7.898590422077639 6.98765340050925 4.1879140128881325 1.186399558331118 -1.0273071509099145 -0.3006162098310242
Ni 5.128391792508489 6.45689659734209 -0.07117474388604367 1.3908799069688176 -0.024828629007905625 1.7907196157795544
Ni 8.496003388681228 1.8769199015039233 3.722427833988912 -1.8256020294790367 0.7350297999618889 -4.254962330365768
Ni 7.32606584424135 7.469650587832963 6.537849838891457 -1.001211225153811 -0.822438565694861 1.1464947517163804
Ni 6.604898205214203 3.9201411577018663 10.19222589029473 1.3430525030728933 0.3703810372299879 0.5890996409542565
Ni 6.744350156709332 3.598910499293289 2.7169653350083998 0.6303743313333273 -0.876718410084348 -1.3919376588093706
Ni 0.43145891306357476 4.996261572465891 2.2418225345764173 -0.36004006031529606 0.9022024132880655 -0.2764370414816594
Ni 3.481258797016646 3.3887429012159616 8.02841965742971 0.7123634687126248 1.2270880371894157 1.2225886066571652
Ni 2.7916598248905844 7.362445411033022 6.081913067184579 0.6591876560205937 0.1008054987548522 -1.249448407162487
Ni 4.272161575410196 6.534265031201557 4.202411774253649 -0.7984347465810959 0.4555958806354347 -0.8650916244786974
Ni 1.7241807026919374 4.470104905956015 11.223210900466214 0.21913203711260323 -0.06397675996227692 -0.4885108861959006
Ni 1.570039470197552 9.076390351481558 12.567402904390663 -1.3560455728984517 -0.11593721218996808 -1.2712421059988106
Ni 4.764293725170077 4.290103941097373 1.2931625596945286 1.0426535514589979 0.6656038439595827 -0.587381115601253
Ni 3.0983203293448147 7.487941171036031 -0.15554876434808831 0.15017402188565104 1.57751165746087 -0.060553850323657
Ni 1.491296493512203 1.7309984351083112 2.7047878019329707 0.3548587732246727 0.41014289050895814 0.10422506595936244
Ni 8.62146249420888 2.67414557689653 0.9563665783256659 -0.04233269932994 -0.7436152276380548 1.6227579308931797
Ni 8.658987513355452 5.133615055246839 9.043001789879007 0.046370873955055625 -1.2301211675887846 0.32583384674723237
Ni 3.1616317719049305 0.5377312334656844 1.3134856335561331 1.2771903531624453 -0.8336717154065192 0.17754418636848776
Ni 1.6518064410998408 2.103252123213621 11.381833142572974 -1.0279419562804362 1.7352812323055922 1.842458696025059
Ni 1.078704555276682 1.5234149775436412 8.005284268946351 0.296650797425373 -0.04448059891087823 -0.5042761194499573
Ni 1.8420156773453646 7.209907811835499 2.433652814994598 0.5755447850879573 -1.6024313035206852 -0.9532159282214552
Ni 5.993437410930103 1.8619373847018117 11.43371022154552 -0.03517346257733942 -0.18831659439364343 -1.0734026597163966
Ni 8.592212222874114 5.5470683736532465 6.142427773274967 0.44836696698716333 -0.6747490007939605 -0.36687276696641336
Ni 0.7494465667649549 4.234059248276752 -0.004541489496713477 0.9631108187376639 0.5268187806371637 -0.4619945850729269
Ni 3.905818421456178 5.692568313582255 11.543875247230527 -0.6742674331718517 -0.6704822550978066 -0.4196356604907418
P 1.511511436671505 6.394510680284735 11.965732520474376 0.3970834862218387 0.9492669708760361 -1.3695114685953704
Ni 7.14453455503656 4.814061339085837 0.5091095863832896 0.17999444768119324 -0.2907076924680606 -1.005261741074101
P 9.307487654987648 6.78915108921424 7.8772281938396675 -0.01732203621821533 0.6290844088773102 -1.0713565758206454
Ni 6.762026777450172 8.447646972066705 2.7701702223507483 1.2615187080634598 0.6128615192605446 -0.8774473178305727
P 5.058555853334854 7.463465145116496 9.970768713807491 0.18735654447321926 -0.33776505096717957 0.1248442848716108
P 2.7761916362899948 2.044870707589001 9.53470874772475 0.6779603086424066 -0.3442439738233039 -0.7187961117118459
P 7.011817863388252 1.4524977313469796 2.0764677817084882 -0.19021612540920146 -0.8551928773077465 -0.5440197178964825
Ni 2.957814561683177 7.771665137535712 10.797839379397528 -0.18904164548512606 0.16705151436728005 -0.4266385741711362
Ni 0.8877475677338784 9.219242005566036 1.3018863248294585 -1.517643263240012 -1.0872987009721984 0.9498428979841641
Ni 1.5538565193275036 0.41119723544819303 10.012802233422956 -0.8492921955525954 -2.1633480542828227 -0.3221967642152774
Ni 8.444476359948338 -0.04578968697765854 7.84270517622482 -0.250943010975613 0.27740300493935455 0.7948092340133667
Ni 3.594264544541809 0.9543909021039318 12.07104266089837 1.4667166515934738 -0.6298454554130507 0.23000651793326196
Ni 4.0972189281508 3.480754797980489 10.516968047442491 -0.5211677529989733 -0.7106773392594535 0.21423228581814074
Ni 1.9372165134659385 8.118123238608641 8.038397921983728 -1.4479092890789838 0.5356638897326194 0.7989116862175144
Ni 5.820382469151584 1.660374424714504 4.2100569814512045 1.1919372003198956 -0.13835517487385204 -0.34635150708461
Ni 5.529492552719638 2.4318869856442813 8.685105659770974 0.2985091907903504 -0.0009047712024565063 -0.2971375072538044
Ni 4.787156954173912 2.1110137083704332 2.209728792315845 -0.5361696257244444 -0.531764040457581 -0.44263494959939254
Ni 4.998268404991678 5.11081597157488 9.091915354518953 0.6257458314223804 1.486289431519079 -0.4045291438666065
Ni 7.7868217630957695 8.112157722744314 11.335226977156742 1.4084127736462582 -0.2389128192839563 0.37956836015621076
Ni 4.995106956492149 4.127431379463681 4.062378849324115 -1.3743703393495685 -1.104683214997233 -0.467073285147415
Ni 6.350864363753568 5.52970331595294 5.188239387147382 0.1462363773941417 0.19702929167629293 0.7074552327777299
Ni 4.571848565927786 0.5278418560144067 9.766639940545206 -3.2472338729187302 -0.4524694191913111 0.2367474362015213
Ni 0.868156667017527 3.65332406796053 4.083180264089126 0.8928651950475397 0.17039549113884847 1.5065939474043861
Ni 6.678390428304684 0.4966067448390687 9.681809571864967 3.606329052822254 -0.7961806604395966 0.04457804372069096
Ni 4.626986060483325 0.21753881307158981 5.527412411243137 -0.5405543850557013 -1.068894744543714 0.6005703605980173
Ni 3.476612842265165 0.983705318770571 7.428278681497689 0.04201902474426312 -0.04412295846114336 0.882810381914699
Ni 7.39898075934496 7.43456309129762 0.4039442311369567 -0.1112169238961633 -1.1678889011214402 0.2725796154087822
Ni 2.8290840442299263 3.644334557879263 2.2917954135541763 -0.7350413699261148 0.0895792910217296 0.59265779061916
Ni 6.773893663846952 4.6040495225287765 7.526547497205631 -0.45626411034705294 -0.7185017203998788 0.12580510612298335
Ni 2.554496205712938 8.763535240692022 3.696596508843057 0.1896201436964154 1.671352037751799 2.009473957837765
Ni 3.476823605498467 2.054629961652762 4.361571004424388 -0.9986398648822091 -0.08368452280384941 -0.12254700419700186
Ni 7.366037549617992 7.031858697789609 9.175484809246914 -1.8353141145604779 0.761672599360398 -0.4213053348836808
P 8.455316921035125 1.0148982772992488 11.264224509304874 0.35250467117019935 -0.5921150307418125 -0.8182867483100166
Ni 0.7283849052249101 6.783323027632501 0.4283093772685376 -1.4952155303641153 0.4359611371236427 -0.24937618070912534
P 4.120412047432845 7.063784745825424 1.8878970005114155 0.3317288720754287 0.24760006264530907 -0.11578217466934253
Ni 6.160948363310899 2.322225958995431 0.19950939300544016 0.21518693642192618 0.5881673589479741 1.1191549262508467
P 2.198407141239999 0.4115976855914666 5.739708717976813 -0.5095890470224386 0.6129072848968153 0.029174821791743306
P 6.961857813476868 2.1589852529937086 7.108874332323766 0.6818213342597097 -0.49596014338509425 0.5055426448672067
P 1.921894942766776 1.8773597552082055 0.28978111855240163 -1.341420109675793 0.6592789301828194 0.08481400842260231
Ni 8.047911591062599 0.4412108362322642 13.456678047385038 -0.7114571548482715 0.6107416447040642 -0.7083561473254446
