# total energy = -340864.7978896297 ev
CRYSTAL
PRIMVEC
9.30209195617894 0.00000000000000 0.00000000000000

0.00000000000000 9.30209195617894 0.00000000000000

0.00000000000000 0.00000000000000 13.61455184773039

PRIMCOORD
 96 1
Ni 0.6488143925890936 7.770772157809245 9.572949193627226 -0.5001497559864096 0.4600462030973045 -0.09498477830801706
Ni 7.137588070095863 4.730922969602696 10.09569419627432 -1.425279724604926 -3.0824043059034336 2.4167724369193926
Ni 0.020218096558566104 4.166881330345638 10.49349722250732 1.775396098048607 -1.5591326407330504 0.6260260816669605
Ni 6.2595636237360495 5.381511271100793 8.150745864661612 -0.29131035904906605 0.4477077361366096 -0.4860552255665565
Ni 8.291345122017681 0.9335114240326209 7.838046746229241 -0.5302301203115578 0.8529745295001889 -0.09611092149266029
Ni 2.2565944532516915 8.222091048459584 12.301291791572009 0.2958195597733292 -1.0053874680186878 -0.12286607809931743
Ni 3.4818194765834303 5.9279440505532195 11.467360190621564 0.03145590451643615 0.301037613639159 0.18166309363286778
Ni 9.092757540194219 6.844469854932773 0.6388695262303343 0.8050190846668329 -1.0826182647773936 -1.3459385663714367
Ni 2.215767572278355 0.6889612906507984 0.15708907551542908 -0.1843722650339147 0.5915763846295231 1.28278995873741
Ni 5.23057552932058 7.634096522780484 8.59358682883232 0.837644584011338 -1.9203944892705898 -0.24112422511297826
Ni 7.032176765655251 7.991473588197347 0.7106956281751093 -0.24329834994616162 -0.12324248760212969 0.6355209085312732
Ni 0.5704247346600885 1.5996714272279984 12.181701308578727 0.559416769177843 0.8543762949437222 -1.6291509789037169
Ni 7.096156553154591 6.937630304453839 10.215324678262402 -0.759881054677614 1.7415374976279492 -0.5343199741102153
Ni 3.9347011186585856 6.5592677199037235 0.21601224590447032 0.7076418948672394 -0.6801403470128609 -0.48006301253886363
Ni 5.342740152418435 9.09424587488452 6.294456700340989 -0.12709528568931658 -0.5464877198210008 2.1130894152375865
Ni 2.800450553271533 5.75516699719283 5.305481553865097 -0.9755716702088358 -0.963754880079566 -0.28479621207963207
Ni 0.39105993987675136 4.648813405157118 6.7654523058062965 1.2395504313224845 2.140210696934411 -0.34533335023274075
Ni 3.1300515725306415 1.783676105408351 11.938354865877688 -0.1439897474518101 -0.09424455770788286 -0.756068108689427
Ni 5.003716114151354 1.0453690781006022 4.487792335431749 -1.2829753352753388 1.244246294136257 -0.645931562341636
Ni 7.443375734310146 6.560225835360606 2.7231687744776214 0.292263981211587 -0.26085744187584753 -0.22131696057906403
Ni 4.572508346003717 6.70352455976121 2.7646933123370365 -0.3653663576242159 1.0969891887870848 -0.4004444322742716
Ni 9.19093181720324 8.774793437794905 6.415367150162731 2.4889034505576877 -0.9665396419135547 -1.1301253092194214
Ni 8.786960573888122 2.687030147778735 6.197520531752463 -1.6218886409143485 -0.08824617403260286 -0.5804363088523036
Ni 3.0487047796138436 7.780092853807259 9.782845314163739 0.42901735881595787 1.0189760053364 0.9228360303780171
P 5.999356209412254 2.238492582580898 6.637271341022432 0.8802917292579033 -1.245939879788596 -1.555349262431218
P 5.727976982819381 5.643383759859363 11.829806896077265 0.3299257574284189 0.02295738012712175 -0.03748848386376124
P 2.6675608696112274 3.2971636519760708 13.45739855188614 0.6625907681648718 -0.22902718473912817 0.8823748370391772
P 3.4709546333442285 -0.00907139993738839 7.84200943734217 0.33734981780663187 0.4640213856949686 -0.4596394545771891
P 1.8127730486037477 2.602809008491292 10.184051975791622 -0.2042836592458611 0.3282509408291573 0.25723167219780213
P 0.8692162956207722 6.88890594753009 7.42627476871858 -0.4434178505120041 -0.11177768149563976 -0.5178363746328953
P 9.301924376732483 0.18782411707933902 13.557356970105161 -0.23790597528599675 -4.737522398294873 -0.8093097416223869
P 4.882295909698185 8.968490895645846 10.235079530648612 -0.24250362195900818 -1.0072718295255942 1.8774598946905923
Ni 3.2728944944323404 7.208525822272364 7.483306823841757 -1.6698829094054404 -1.529229939636347 -1.964037936992153
Ni 3.818787752559532 2.071120044564666 6.442800879341715 -0.11761562833365552 -0.9918755495751821 0.897414504981119
Ni 4.963531077513211 4.289687546479151 6.53419486162723 -0.7117903698179741 0.27247471439980175 -0.46771040451078155
Ni 1.4208666183718872 3.825885248613908 3.6360379265649403 -0.14055501073864826 0.8941438046496472 -0.23395573238899708
Ni 8.520223091110626 5.998519021148959 11.963569115949761 0.7456412569291481 -1.1617881875403409 -0.7965010198934928
Ni 7.324308959086016 5.137694142553944 13.622992529947462 -1.1226331146074342 -1.0133825704090227 0.8511554740135792
Ni 6.130711047923186 0.4187913359937963 8.705008214794207 0.5879994659115422 1.2761619118979313 -0.43049780001622634
Ni 3.699032622541138 1.361956470911386 9.445693786978895 -0.7688400636431145 0.8276247378814907 -0.7008099595470705
Ni 6.105800046044263 7.891252850989161 12.276023589367414 -1.165497260960812 -0.18632578921585974 -1.098591243166882
Ni 4.132649632468701 3.516739529254632 4.303110464967309 0.6085304959853584 0.22433157903567172 -0.1446122115271574
Ni 5.511368472829609 1.6888598835443231 10.947066289167559 0.7957988516201455 0.7230937106459352 -0.008289236591985723
Ni 5.923720900869489 8.696897720941244 3.251985252451965 -1.441603144355298 -1.715494022376336 0.1205356301939279
Ni 1.7515652844650933 0.5498215315004069 2.534362356502683 -1.326841697640986 1.680065763475713 -1.4672257300194087
Ni 4.62465587271516 3.964253864352887 1.4191261969934157 0.6253984753852907 0.960205986386043 0.2290354122692443
Ni 7.204832891822053 3.898162502011681 2.470469078457216 0.5962475648529473 0.4467872812048692 -0.4728762649824372
Ni 7.922182306271992 1.6775950503571029 10.058771403235482 -0.04309785963073868 2.5649204295139505 0.21190955122223504
Ni 1.4918322768238315 8.15927402243704 4.18196839305939 0.2088249987596404 0.39808853044758535 -1.0821402966997105
Ni 1.4120854436991075 0.8884055808246673 7.720349238920189 0.7566340084952259 -0.5633130189084558 0.24206344909779604
Ni 3.042304940445547 2.3984885617883225 1.9423195604659638 -0.21355762834861933 0.10875175018512238 -0.29986467637698033
Ni 2.5172297637989485 1.8449210779142626 4.3366156694735425 -0.8445554521985583 -0.814542707886552 1.1831334859853366
Ni 2.5181320667049443 9.082422916188436 5.9264417627251955 0.2831206241494221 1.209261036310324 0.20096745038843453
Ni 8.568249791148297 8.176575913211797 11.646309181900795 2.138314508352962 -0.03594505063604132 0.6237748237389387
Ni 4.228107698667921 8.82162016798852 0.9322695947754005 0.9372252092201536 0.6126159789086417 0.1568905146738782
Ni 7.088528837866796 0.7600115981382536 2.045804401691817 1.2384122039529832 1.535122136751066 -0.6140573393408586
P 2.4207763737755896 3.742938495905036 6.054785514115812 -0.256367524425294 -0.2456478240149447 -0.6912860792170352
P 3.334167373213695 5.066719182010186 3.153525401224243 -1.896509969343508 0.15688125870249756 -0.5277852583154911
P 3.9859928529231055 5.605942840306463 8.894073230921585 0.6983514707042489 -0.5590401025647147 0.91465580856007
P 8.007696436321634 3.887083710660748 8.101447568672915 -0.49043509980180694 0.2377519662066357 0.30653000421229787
P 5.80440296916637 5.947013338772709 1.2787967002999643 0.9269135428815004 0.09834109637475967 -0.6231544165461204
P 8.100363874976539 8.965290976061699 9.676297294103408 -0.06261124707331797 -0.9480996900408122 -0.6692512109041829
P 8.06269040312828 8.514539513012037 3.6353988728572917 0.182413341535331 0.37070525333862603 0.3186959501508705
P 3.3259257198661496 9.146756183176723 3.4609418617152246 3.076477141785721 -1.1712112806264539 0.7898310640724849
Ni 2.2032934671552646 7.628198996570164 1.3873232752892144 -0.4022053808294363 -0.002700429650298575 -0.059140772026214275
Ni -0.05488606254159809 1.8441490042936688 1.032172200443534 -0.9523741490464501 -2.747464383089875 1.2204522770404531
Ni 1.7153336368480634 5.093397581333842 0.8225104926207445 0.3998227395298727 -0.06604289846268625 -0.21680184631752986
Ni 0.592959982289618 2.835054334821046 8.402765577770387 -0.49605347442984893 0.9761049170044866 0.9231944421587005
Ni 8.807313550777996 5.8097702761432695 8.96297661561828 -0.5287638201786764 0.21862578690014609 -1.750893484921552
Ni 8.902111168458395 2.094914795425863 3.429641252969 0.13476411508848404 0.006724206097711 0.24106714662279774
Ni 1.5865089673106436 0.41892435590674204 10.501135170096113 -0.06195664420845459 -0.08035160177587453 -0.9723657616770286
Ni -0.04954480142177814 6.858636940766082 4.970999727030981 -0.589354694387856 -0.7155439233231354 1.9292318850565615
Ni 5.551572113651382 2.8187384657786145 8.562409007698045 0.2609518013618667 1.0183208882509043 0.9685774982791899
Ni 7.414529947593737 0.5560716069904922 5.190465839626132 0.12819314673918566 0.6443894146654967 0.19962302054539813
Ni 4.8194323732165705 3.319897964370428 12.61027379411535 0.034558968921792096 1.4862331243598468 0.18143555100309397
Ni 0.06993033563300319 8.537804044639815 2.0289899405281346 -1.2185650873200693 0.4550852595476033 -0.2340313228219389
Ni 1.8178891991016592 5.777519923822797 9.262292814557295 0.736477588152009 -1.0687240232938044 0.35932426519519406
Ni 6.878608531891566 7.25883153480456 5.048466617451998 1.0704448626396532 2.021982888938053 0.3017657500544351
Ni 3.7134880732206925 3.753291724094446 10.533837604078766 0.07371018519995692 0.15710365912594879 -1.1227210463355504
Ni 0.10365320908769363 3.631722686172247 12.991018644379132 -0.6371273337864447 1.7656878696219078 -0.7363215221901189
Ni 6.61598257369603 2.499769737463348 0.2910085007395876 0.5326258742372441 -0.08631990354416746 0.9000843385037982
Ni 7.644877647193357 0.7396381566463872 12.174513582233754 -2.439430540638541 1.6377868002018439 1.808687770222201
Ni 4.01171313678988 7.605036787952345 4.8929068058308545 1.2350520292314988 -0.017271642596254126 -0.16467787192878092
Ni 6.615126781249107 2.9286147742901316 4.594393377415421 0.4930990197872154 0.20841953579110561 0.8207580926686445
Ni 0.959864250142774 6.215955417310212 2.944636697231229 -0.02216830856692311 -0.7603687929473099 -0.6141177602651489
Ni 7.7194153089020245 7.721796644406507 7.684433862424847 -1.411205505900047 -0.5505521196983615 0.9694704424071046
Ni 5.957757254818324 5.370981303166909 4.402428899269499 -0.6645170386533071 -1.469376200703508 -0.13472297743790346
Ni 2.9807809051852034 3.70376738727466 8.161365132676913 0.12611903781897635 -0.015085947798844986 0.40041203637443945
P 0.1032225222366876 3.6809307518703442 1.4849664028556337 -0.044548218924020055 5.015878511176116 2.867043562907804
P 0.509388129010819 1.1843237256238872 5.226354240055211 1.2409694231571984 -1.0399731764133575 -0.341622734150373
P 1.3268038659448247 6.324827099905775 11.750174478681858 -0.17811985636629968 -0.05533708200940792 -0.639113510978538
P 5.532502825431893 2.254417763767125 2.7344419795474746 0.2262989871746877 0.4789530673041364 -0.9156922202443843
P 4.857822106134538 0.443478157459993 12.59449465577061 0.04476676269272935 -0.38423876904868665 1.4538894179218187
P 7.18422875845319 3.04778387252422 11.928906731221817 0.9886369880332263 0.18493430818497184 -0.8693974509429027
P 5.559906787917071 6.683683197921125 6.49596512468847 -1.071741984184522 -0.8053466432095806 0.6145486771549803
P 8.326804696014117 5.12926644737011 4.340917886937696 -1.2350355741712666 -1.9328856797590646 -0.5629661770919981
