# total energy = -381168.5373120142 ev
CRYSTAL
PRIMVEC
9.29112429432617 0.00000000000000 0.00000000000000
0.00000000000000 9.29112429432617 0.00000000000000
0.00000000000000 0.00000000000000 13.59849956598038
PRIMCOORD
 96 1
Ni 7.8122372842989405 4.302691691578999 10.211847540382625 -0.6356368652838471 -0.4872662151555221 0.3920276689654861
Ni 8.103263164093732 6.670543956418977 9.08765961939604 -0.28981809077425574 -0.5623568256427735 1.0700828513145442
Ni 7.02040123393623 9.027181834485264 0.38325329393759566 -0.3037280159871285 0.22533739459236676 -0.7997382958838678
Ni 8.220349909845224 5.685972827983822 6.078556268730151 -0.6546386031973306 0.2571961909741764 -1.6138305464965625
Ni 6.84661075787833 7.844328826897389 3.979927331901085 0.7910813915398183 0.7934678894941238 0.26587057881972276
Ni 8.998444387682426 1.4777068305067445 0.8446542325756989 -0.7744265565919566 4.418068744042372 2.5315115150362018
Ni 0.28129063997584197 5.0097183612704175 2.1203190660114855 -0.6805465813123441 -0.4064852391517128 -0.5700793910980118
Ni 2.201141625336803 0.8331109400093084 1.1178002731763816 0.525377677315263 0.5369769521170882 -1.0132535010303259
Ni 1.3340010142443797 1.7331569961702513 11.709313804486392 -0.13333869549586716 1.8050182917904138 1.1346928739854458
Ni 3.421140547026762 1.0324389997342887 10.738517696623461 0.9206590773313564 -0.4599209903733498 -0.2966238008421795
Ni 5.980166981092474 6.825055349995179 10.81223440424661 1.064150287880193 -1.048250328820485 0.8078313573046474
Ni 1.0406151889313457 3.2795716893045372 9.553353986475008 -0.45681844018862616 -1.635070172601629 0.4399610023116552
Ni 0.5144913507868573 6.609928662871703 7.528183464019456 0.24222440015569252 -0.07190424233946971 -0.6386951924941968
Ni 5.9661002192239 2.2759165919935245 13.547124164154155 -0.6498262694103518 -0.3895239287070259 0.9566617206782104
Ni 6.438191525237156 8.493416046778753 9.242682024797059 -0.7047103230427412 0.33447352470010133 -0.014297133348962474
Ni 2.0604368421547212 2.442469282387211 4.366164934895606 -1.8520152293652425 0.1000609072793438 0.5147291964624813
Ni 2.741058137189281 2.987412292371062 6.524900011671946 0.37714920919175693 -0.5180654599245659 0.2089360704162079
Ni 6.590686744886358 6.680011611864206 13.142541236648738 0.2671723283502818 0.5472251122076576 -0.059679418138503665
Ni 8.02990044829832 3.715483358120815 13.241225982032399 0.9326185636860777 0.5273952219659239 -1.0548557499521445
Ni 8.41376323997606 7.078675164213435 1.367791903438444 0.6418831033038752 0.5528301170992608 -0.6088847940009837
Ni 6.443162276624003 5.503216417181422 7.551232884655887 -0.5381696868736087 -0.07554389597458602 -0.14284046433871528
Ni 1.437727123557953 3.3218184305306946 13.56021907444317 0.1508705337320434 0.12801239818694726 1.6873142175080103
Ni 3.561492267493516 7.97668088952475 1.945211108557969 -0.32550088888784584 -0.6823556094966248 0.8784155952811131
Ni 8.544275660034083 4.3510519924547735 7.950403732380298 1.0251638793146667 0.3584722016075439 1.0070008352523947
P 1.9024877326661198 3.3401776917277224 2.429942988892356 -0.11237906252506452 0.6130214418771766 -0.9991319740272793
Ni 4.36415247741824 6.776286239659552 6.702170013700639 0.8544534280385606 -0.21783620111931515 0.8389604746092841
P 0.8387618016793653 9.262981272703572 2.4278627062091505 -0.15025064075985736 -0.7428482675650432 0.2998453931032707
Ni 6.574566644594432 1.3304425137188423 4.761895279370393 0.7002504874991747 -0.6167922217735184 1.3727392315040488
P 5.278538454495931 1.6990214062725382 9.07661711841797 -0.5605259430816217 -1.499556323831314 -1.0933739606320008
P 2.658859562386595 5.208622745737006 7.686619428410246 -0.040607746219033285 0.42670208041922 0.0016766163714745316
P 5.467278349210721 4.715329094555926 10.319316114478669 -0.5476552577665408 -0.26270092284248947 -0.15960071451618965
Ni 6.828781090754293 5.48384442345885 1.6257961991136223 -0.9973972507243597 -1.82512097607756 0.742689887610308
Ni 1.1824349070039348 5.493813799604807 9.439302650962924 0.22920407663662462 0.27021162939723786 -0.13837420103724557
Ni 5.985741655545013 5.892337985092724 4.873892347346716 0.5529661284564927 -0.6016887904731767 0.6217408240280454
Ni 5.8518472663191154 4.413441890702771 12.505424701041791 0.28131673817146385 1.0431829415999068 -1.2013024435848794
Ni 2.214139907935306 4.903009801124735 4.219042772306244 -0.6980506516343784 -0.8131008332337029 -1.0054283485589524
Ni 5.915036201238645 7.642367662605992 1.805908356000701 -0.628868179101446 -0.48317533291560016 -0.020893555619557563
Ni 2.3867504112340847 9.098565540850025 12.396745493477136 -0.3014289355403067 -1.2628505395010057 0.7002116638414393
Ni 1.5753937091634007 7.447198310022606 0.7775853242372036 0.7335935817359946 3.066776626668505 0.3790860212031536
Ni 4.023456248251326 4.747095447811311 5.5785534968454416 -0.7017877500793075 0.6290535556393747 0.8609151245035043
Ni 1.0297724471211576 4.550839033709679 11.601668699032684 0.4810426028433135 -0.7408955147140466 0.7047848850344185
Ni 4.854584462380348 0.580761222453822 1.381798273000448 0.2680076797673836 -0.011272744700341876 -0.3784028790931999
Ni 4.587520391607385 2.9166418001960808 2.120332073585208 -0.2832316958059896 0.8417902307485954 -0.28299695408736425
Ni 4.534477364191478 2.6311441392333896 4.500178250509824 -0.5026383267362182 0.14936412438984598 0.16638302754534573
Ni 5.634044735458422 8.985984990281002 11.887046504494647 1.4338643809501432 1.0787222721570968 -0.2000732207089393
Ni 6.654916285703693 3.629559042559016 3.6750623227778645 0.23922623675931703 1.4677044694280401 0.4199333942368187
Ni 8.083445196414957 8.476589821056175 11.24788963803807 -0.03405040471648975 -0.6593280382532001 0.19903295236988303
Ni 2.099682550300595 7.589770609146289 8.960350778923411 0.6930678537078063 0.5273522845431304 0.5411449674518487
Ni 3.8786726615948037 8.006644764707145 10.657837291496683 -0.8387966953379103 -0.23194847215098122 -0.06122362269717198
Ni 3.246402376311931 3.2958683209541264 11.01821119236865 -0.12585369997273163 1.105282796254445 0.06723203367478098
Ni 4.489656981593065 4.007986526645531 7.9436314320328725 0.5457451852280213 0.38857184920640175 0.7435226679242485
Ni 6.6524448466964 1.6375884938055596 2.5780983244802558 -0.9229990383184425 -0.0749394296213677 -2.3122138988800116
Ni 3.908487878791799 3.8465439545000044 13.502697725217056 -0.876314232667394 0.3371965800582193 0.35634564218284437
Ni 8.595460462632477 8.223127955947405 5.87992318508692 -0.2213557842367994 -0.10314288863877719 -0.14444714670420283
Ni 8.565700992180009 6.029270571895253 11.640396891566878 -1.4617965885840372 0.9421694405993064 0.32912588723494285
Ni 1.394263245076325 8.551857217289536 4.554653969260033 -0.1515588180483196 2.68669456010067 -1.0148743244632004
P 0.5582293174290687 6.087813944770999 13.407766593964771 -1.2874696236012666 -2.5645990416187896 -1.2382234849809448
Ni 9.058827403127511 4.058493077185533 4.292026410238883 0.5599651854821452 1.4724766940057028 -0.905848494681085
P 8.739695872967834 2.5166867815986786 11.225356803900908 0.6617451323351248 2.2010393981860092 -2.1710060850487127
Ni 3.1267977359327093 2.1720882803149877 8.72233540761022 -0.40531075922763743 -0.46477471892122535 -0.05180567181738174
P 4.893059007226954 8.70720481203362 3.612508900745926 -1.0216023872156534 0.5219681374130817 0.3375668189134444
P 5.837585390844704 3.7078460541208367 5.828058272205316 1.662296355307434 -0.06288635511157557 1.1661575202526302
P 7.076175851833881 7.681975724591282 7.361221035053507 0.048909838326825446 -0.4605395977939552 -0.03558715307599032
Ni 0.09484286557345278 9.104957834222269 13.457754699780688 1.3118765916907213 -4.2146996261909795 -2.6717860184199536
Ni 7.816920010839072 1.3077907531933592 12.480199299144052 -1.2086840807609314 -1.042527824514411 -0.8085268407097753
Ni 1.269474157456242 0.1668277076666786 10.152041503743378 -0.4464664075303407 -0.8591762874355268 -0.9481320859406447
Ni 8.278410144268417 2.797603918386201 5.937009709705735 -1.3608959590122176 0.4233583607579677 0.6287239402140978
Ni 5.496972781794578 2.1992555271470273 11.060719943294076 0.9545557300788012 0.8611395818094847 1.140421548939107
Ni 7.808167771948586 0.9866987958512072 9.66018333123383 0.519355382380583 1.5289787428574895 1.0692711540465263
Ni 0.9328846051360318 4.42435896150566 6.450869264054639 1.0699093018511574 -0.08150885530876929 -0.543471044481864
Ni 3.4080586443114713 1.1078550539530523 3.193988357996752 0.22491444812233524 -1.3936255880347548 -1.3573007854617913
Ni 4.310709931666567 7.635185623686304 13.116460122222534 -0.6069243278405032 -1.1172515385805468 1.0580475174165649
Ni 4.676139133154579 6.461558702317382 8.95549523747525 -0.9382122557237712 -0.5537433729421496 0.252072753704682
Ni 3.392951276545091 7.125502429614762 4.643615553286058 0.422749266419059 0.5866262397130995 -1.2545029388672588
Ni 1.9145569028558664 0.7823563164561681 7.065331251798875 -0.8258491340383067 -0.08624534155249017 0.5765372309082135
Ni 4.197404673418714 8.945587182748271 8.40154727002573 -0.38478204314666636 0.6884349829214853 -0.5264804234611384
Ni 5.090170204744641 1.770395821513211 6.830145027770348 -0.49966767414366847 -0.20130837866762105 -0.03767026085726415
Ni 8.963128825025592 1.8653418185640356 3.192098543357341 0.834423763081195 0.4696659855752557 1.392757840717821
Ni 7.974311652882421 9.084294374251526 2.501797755248356 1.0132406455145195 0.10641127497740384 -0.13511944154537375
Ni 2.530772125715427 5.688221280013012 1.8401080546546185 0.024773607400254107 -1.354370499188874 0.2452487888043131
Ni 7.3670252002710095 0.7957253149057651 7.206348216750299 -0.5480406661304175 -1.6316035542092675 -0.9350294871204156
Ni 1.402439434273382 7.054787684184307 11.336279817932708 -0.24675185571240082 0.8659866254891407 0.23451237622341548
Ni 5.7957474590784 8.597485927683568 5.838298020062221 -1.1239477196537997 -0.014231827328665812 1.0144616624058143
Ni 0.922738697632411 6.524673308244209 5.124920867056951 -0.5057388200384129 -1.2809727030230131 -0.3150694091418767
Ni 3.3011921350563007 5.7406603843632285 11.413845838265335 1.1311591498005744 -0.413607709129107 -0.11728961245280446
Ni 9.288104472236347 1.907839420140557 7.835754048476976 0.8496758041442593 0.4499024297950832 0.6806566245276472
Ni 2.372720813861862 7.8074802287661065 6.659048977697841 -0.5407842416783203 0.31434924314640056 -0.06565003389964179
Ni 6.938704379834272 2.8038196804007813 8.22619495600871 -0.9248080665027234 0.9035671548460762 0.19209251649630787
P 4.150661028134176 0.9110058661346343 12.975851037618554 0.3706453466349681 0.38183427337225206 -0.437429237028737
Ni 9.140840155448444 8.761641508062661 8.342706581179183 0.41485906503770487 0.018636641264580808 -0.11027384325660362
P 9.113161896791588 0.9538175077053154 5.320657907322087 0.2714907532199776 -0.017855283013866026 -0.0728501511925068
Ni 4.369021026440124 5.346530900568729 3.2958274400081407 0.7844042366299587 -0.37247982874054564 -1.5133258668115808
P 8.02074869107207 6.155165303281757 3.623864512605748 1.023346880710586 -1.571402973459971 -0.12096783263534004
P 7.5583201541098815 3.4171639459172845 1.6338190847632346 0.22021395732287236 -1.1028435906853329 0.823656497262362
P 4.454713063899734 5.87522373452343 0.9737832042570833 1.203710795916056 -0.03991380547580223 -0.4686180039267155
Ni 3.3574127269101552 0.5009551121036842 5.358338990171615 1.5033474154426303 -0.5665986316382629 0.6144879991203739
