# total energy = -381171.87298181764 ev
CRYSTAL
PRIMVEC
9.24298687671840 0.00000000000000 0.00000000000000

0.00000000000000 9.24298687671840 0.00000000000000

0.00000000000000 0.00000000000000 13.52804558950612

PRIMCOORD
 96 1
Ni 8.816977684936925 1.3321270087179757 2.524874395668692 -0.5155054125068735 1.6701855282475235 0.012171088144895169
Ni 7.214456335877465 4.24138488133379 8.520869354890442 -1.7076197618345819 0.013191816099925667 -0.9422817978074547
Ni 0.07581005469497558 5.958463810696537 3.7678851456732474 -0.6470445929001566 0.5462095264589496 -0.06658925788445952
Ni 3.3358864214345014 8.154847071526705 7.207336463027084 -0.26992597983601896 1.752626665562575 -0.9630002613017286
Ni 4.310559395694755 6.356032408533012 10.803998048280427 -0.8549452800733147 0.7905106066380128 0.9597208192195084
Ni 2.226441454403373 2.0941465821360703 11.975053069149668 0.09501280333247508 1.5102374576942443 -2.5981532234251516
Ni 3.24655295252767 8.836332499617825 12.339106596292282 1.9472301214061947 -0.14656984947416046 0.14329195005383707
Ni 9.121303030385182 8.276022630488791 10.19580396093942 -0.1280861888476762 0.665462433285712 -0.15857355880325594
Ni 5.954452354358661 7.374369253162213 0.44273260498799594 0.08311348079172783 -1.016166560912063 -0.6363817138696717
Ni 8.948117183835022 4.0713508933348175 2.0665987838194724 0.9124091786177384 0.7684839658552765 -0.22530602713379907
Ni 5.675693110824143 8.472131084683953 10.61064123130136 -0.5372574594719843 -0.6569495107186943 1.4784722494675053
Ni 5.600584598838948 8.562083833716677 8.28632024225383 -0.573935017398676 0.896262907875179 0.928984052257284
Ni 1.8220885041429336 6.791395580022879 12.112241178710223 1.406060471363998 0.014672771520826342 1.1792266947317627
Ni 2.345232322731422 3.755915477568297 0.4840293463981182 0.16272743307062942 0.24896043332794546 0.6962033140129946
Ni 8.874145559245123 6.033747939433851 8.646572128862417 0.17125938180104053 0.8987987869231554 -0.3926462763860915
Ni 7.841602243668195 8.432839147144072 12.242624601275514 0.21075101213775962 -2.587101850706996 1.2109538506317143
Ni 9.083286625044904 2.145361972846133 6.4996980033506695 -1.208031791888913 1.0752379131529224 -0.31608139534615887
Ni 2.352220020868366 8.40405648577047 1.2168087305884054 -0.1565084487441111 -0.8570903514407755 -0.9834690706790415
Ni 5.084872141761177 5.159758822059485 12.880998889617514 0.6673244261951152 0.8067669205958752 0.40774379414916234
Ni 0.23193519592612585 0.44831721770537897 5.003266734246275 0.40616359414623593 0.009468601612067563 0.9221814275131537
Ni 7.280802496230619 1.6051925722890583 4.515756478961421 -0.19405298265678836 -0.36734893527188345 0.6228456270564499
Ni 7.508281648146399 8.371881648184885 4.415093880945526 0.7781250884894664 -0.5695934526005286 0.5944441930956214
Ni 4.497360162027611 3.2985262681679304 7.019824910997493 -0.20627600708554153 1.74181903342411 -0.4772957342063715
Ni 7.235927794570746 0.7990377361673818 10.998125730371425 0.5633441292567072 3.010611135220531 -0.7650482007008501
P 6.600232123847909 6.725825830573829 11.80840109007703 -0.5030486748007594 -0.9747041800022181 0.379060824392173
Ni 1.429048969913737 1.9728046494088196 8.045926788966439 -0.020266206448203806 0.0894525356358782 0.7423152778797086
P 7.185969450086378 3.1358774267449077 1.2729229043838914 0.47708773196062354 -1.4672833227302213 -1.012520222408727
Ni 1.4883150022604108 6.07749499668538 1.1836254831261792 -0.10670283807589365 -0.46066635317980664 0.3941943375995018
P 2.0520909914970553 0.7447213233343768 6.3613064568887525 -0.22089761365345825 -0.5432440160727225 1.0604322155986576
P 0.24087778580376262 1.8223657937515425 10.939846849031397 -0.7524099431115493 -0.26966038487945815 -0.19764172844931122
P 1.4982234842747018 2.654890871651925 2.53259875986584 -0.26123565115087266 -0.0035977446535873526 -0.8308069922642144
Ni 7.9204634083565635 1.9199440070210112 8.987736323113062 1.2723314824082474 -0.6199780757006678 -0.5544357710234838
Ni 8.958460086236133 4.796814453351307 6.390188942521454 -0.6602955443727918 0.009814672097576645 1.8225341891869904
Ni 1.0446146565383698 -0.07570283604631346 12.181667102316325 -0.7128113548833208 0.38462314897129896 -1.5084448845701957
Ni 5.692506104092795 1.8832585918020548 2.303798785114386 0.8490350852364669 0.14808551478773851 0.7117235211357806
Ni 4.2988300452505985 1.0847292199171228 10.539186472058935 -0.8030663318158363 -0.1714424443461241 0.9836061104775383
Ni 3.0531619364968754 0.7348396459822513 2.7787552155188213 0.39822762712861093 -0.4231758124335163 -1.308749101805333
Ni 3.6584759091031325 3.0333727014291543 2.9886292501840237 0.9575654634394024 0.2581107323686458 -0.5809111916061931
Ni 2.3427182302800347 4.897294964524216 3.3513970778413875 -2.052183838001466 -1.7906316840514387 1.4664040054490615
Ni 4.678818481901271 1.7197224236314843 5.059813479831192 0.3090465999865645 1.19338935938539 0.26102224958848597
Ni 7.05546771728808 3.622067783492785 6.0754180975168985 -1.3517436030889882 -0.5005500767486218 0.13481553715170974
Ni 0.4417861231239443 4.615873740747052 12.968039173461149 0.9523762059289792 -0.22745161272189215 -0.7583309365816747
Ni 8.924029959833863 3.894440123042345 9.901420372258485 2.3581661972404095 -1.484017604765767 0.7018062620220689
Ni 3.843002900645396 1.1752920060887866 8.02246901237682 -0.5001422997872419 0.11611513252872906 0.10892632808977369
Ni 1.9575722069092378 7.032018259386721 9.69864864876845 -0.12176564594628707 -0.006290975215034326 1.3057023445592093
Ni 7.231269329146118 4.691712448701583 11.064223254375527 -2.1926141502367913 1.1016009765274835 0.0736245674646861
Ni 5.525309713088587 -0.007219697109480172 3.804235040465787 -0.8722863424549235 0.5772311716514447 -0.41374397759665527
Ni -0.04785279205633177 6.003283054434687 11.057039604915166 -0.41228179122883196 0.3303232499771537 0.17317536787683077
Ni -0.08806533109679322 9.206088949710828 0.4736198944909404 -0.2620157238500068 -0.7726164999664114 2.8812226826216634
Ni 4.256441707081253 7.620500752750417 2.705325229964405 0.8705477624972621 1.3708831521319165 -1.54379601037598
Ni 6.741427992551556 6.713283097277754 7.333093770622083 -0.21690571888524582 -0.6798883789030549 -0.467963143951536
Ni 6.052002838667269 1.7883978166969532 7.551314222506414 1.0510844558351704 -0.7227661521031875 -0.6517363419488712
Ni 0.1052646812201074 2.3817698501591202 0.3325192285529152 -0.8675531986453123 0.22524689176108947 -0.618768885883915
Ni 2.5192500381074088 4.419709828630168 11.331997207915656 -1.318596169802742 1.5343922005635768 0.17753415906615877
Ni 6.931473047305136 0.7782114379634634 0.18036395021834883 -0.4745626515459246 0.8888023378320759 0.27381143093335425
Ni 4.206575792466421 6.401452446423148 8.247846309059346 1.7265757341117942 -1.4609645796010453 0.872187354983214
P 3.6076949387798907 8.446426337965908 9.596754884890332 0.7286478076949451 -0.32357924638510077 -0.5484335306934619
Ni 1.5423217750304694 7.460014770274546 5.664070979028649 0.07106734826047115 0.6771175010261371 -1.3190332573401606
P 4.740219644234233 4.6261704282133955 9.652977201633174 0.5016160561192909 -0.9808745704789882 -0.6104433967373551
Ni 4.715984532441815 5.048759791733346 4.241218507568624 0.604111026761424 -2.157293620558627 -0.34335668612234416
P 5.266958984747683 5.572615320317264 6.40861391271482 -1.0847936751621576 -1.601589010125048 -0.8053253030533422
P 7.778306269009738 8.334891214396459 8.531962787832189 0.5673468226581971 -0.3491758639072825 0.5334614827646619
P 1.4299825115960534 4.657513396973155 8.923517898356632 0.8419990043252918 -0.007622292431948163 0.1713506559632662
Ni 3.048558928993968 3.037827821140804 9.538422394225975 0.1725351631896706 0.36515552716499045 -0.9381891157953197
Ni 0.8365882949651979 8.596994595440536 7.959509482443477 -0.16506765116803185 0.2173821443010321 -0.8281543851327157
Ni 7.125899277874738 3.7866761381499763 3.6918172116422654 -0.44069402382293776 0.15627704945959536 -0.4573018075829479
Ni 8.099453850713603 6.649229197689101 1.8512455064881586 0.5529437598589897 0.12260742512129208 0.7121343834209541
Ni 9.427107253746021 3.494033928211106 4.393029946788516 0.350902359680086 -0.7715803453924132 -0.1144876242276351
Ni 6.008024706741899 4.807721177956591 1.7801151760878056 -0.3053940908356418 0.593947455964861 0.22711145577365402
Ni 7.2142345041905775 2.967784466006198 12.459844037672767 -0.2585107960205419 -0.9066658483760579 1.1217831079023133
Ni 7.784961219616352 0.19352596364031757 6.723046464396873 -0.24016160408939283 0.5009763656527629 0.10079315745967804
Ni 3.8024261879189614 5.544627555821673 1.9036532425152388 0.8004412354881634 -0.09110215542415924 -2.5151299883543845
Ni 6.480535442798404 6.577660749707145 9.600664668371719 0.7652824281988433 -1.0932646887476463 0.20607417548738058
Ni 7.014465827161779 8.616672914664814 2.192436505400969 0.18323506610567797 0.9684399442600612 -0.8186752419976868
Ni 4.686748964707484 3.066407136801427 0.44351548598296836 -0.03894449958399744 -0.45493639267456487 0.06314217987612351
Ni 0.45599259407167314 8.648062098359341 3.1019131468851002 0.25291299021779023 -2.0352932328937143 -1.363076254492988
Ni 2.201725707289367 7.11131384446191 3.321297290826892 -0.3779956163524522 0.8606137912130016 0.5192306838772606
Ni 4.726419864712463 0.03480816456867415 1.0355842582846735 -0.603438940395064 0.751633469956841 -0.433246309295641
Ni 8.545779204730474 7.217266203911368 6.199754758017126 2.2639347521586495 0.76249663792359 0.4269147106506582
Ni 5.8003810048286075 2.559475517329605 9.85415358557501 1.4652935459937022 1.0692618980751456 -1.741826746733594
Ni 4.377127387734796 7.14092837466134 4.897923487637063 0.881348966877824 -1.2077386861285264 2.0912206401889533
Ni 2.192538178257459 1.4229023835895733 0.418492871702102 0.869819883192302 -1.6264456641574119 3.4171699079226574
Ni 2.0665470230925322 3.4657226591721377 6.355516649860999 0.05510336873204704 0.8082717872761759 -0.06546465736171306
Ni 5.542936089209158 8.836406443513454 6.097658572724723 -0.17071816458558986 0.6204048788254413 -0.7939913660977616
Ni 2.0119486991574416 6.331658651936291 7.590004441595612 -1.4516803260856417 -2.5039145792545394 -1.0931531028704464
Ni 7.158397620003701 5.954554027215151 4.964955477622175 -1.4065556658328615 -0.9225817482753659 -0.33909636818409344
Ni 4.555350662174685 3.3400734945244954 11.49563227604663 -0.16978845368246887 -0.18893468759361653 1.5950365537185112
Ni 3.332993366518015 8.988666167600597 4.8265362021993985 -1.3791891008944506 1.2415980578801327 0.5231050792310024
P 1.3517775989813925 5.296564271960158 5.310691253220086 2.1833376100308723 0.3219723069092971 -0.11474781986755722
Ni 7.67411007708147 5.349887063695649 13.56944151398863 -1.5510166964941352 -0.14083423254196392 -1.257714503826021
P 0.04475269423208437 6.988918211221946 13.41060910187876 -0.32250452526368323 0.14074398682100275 -0.36020178270414094
Ni 1.9357217857508573 0.727785398339241 9.939501478507438 -0.04838687594381989 -0.7090202632720047 0.4143960093583573
P 6.035568807863716 6.552214806623803 3.2134112985067356 0.8241959147055999 0.3308495547942689 -0.5296513649899524
P 3.8541499429114734 6.869313960041977 -0.16513982640702535 -1.2518387617715345 0.3629850018762329 0.48264362878184613
P 4.983162313323436 1.2331623474054625 12.703281206563988 -0.1042435779021237 0.20294565716072793 -0.6596098311596769
Ni 2.204822107918833 1.8623971702477127 4.5211811880045065 -0.5081435728251635 1.1289395164414364 0.7370805118433307
