# total energy = -340892.1849218897 ev
CRYSTAL
PRIMVEC
9.04815003821930 0.00000000000000 0.00000000000000

0.00000000000000 9.04815003821930 0.00000000000000

0.00000000000000 0.00000000000000 13.24288218195931

PRIMCOORD
 96 1
Ni 6.205320974971028 1.9135842494151418 11.522394087496089 0.6523140688292121 0.39375545028987025 -0.44032635607087395
Ni 4.30111060922073 0.5135024329381576 5.930109722350392 1.3865455412595216 -1.1178755453177909 1.1501320913586515
Ni 2.8195393419113968 1.6404024968968456 4.712943501811384 -0.8283212497278831 -0.9355491070693114 -0.8364297377676305
Ni 3.3242994520725544 4.0785713536832535 4.6748960299864155 0.24440623829835972 0.8894039759718166 0.1824645064882406
Ni 5.013417189945768 4.497048303006624 2.765299300388935 0.44624400710688955 0.45224470477501466 -0.4040583748777751
Ni 7.01290457788796 5.881704832927792 2.6550919254602086 0.7978176818223873 0.6459230777012037 -1.22487688847071
Ni 4.728038530882868 4.573885194977522 11.449451519395218 1.0753420428309546 0.06180726311478387 -0.8562747975180156
Ni 5.728972056612581 7.882024650693503 12.349742469831444 -0.8578732523533871 -0.13852075391743887 0.37958455810612696
Ni 1.8632674858435252 6.478195090380632 0.4249273756406166 1.2185499178114174 0.33019135238497976 0.40835288848807094
Ni 2.871303809523916 1.9139371272751118 0.2043153761075913 -1.2418960487365256 -1.1234484114198782 0.11504863893742767
Ni 0.5286508460961509 -0.18972613863539664 4.928113943780668 -0.1540810702495411 1.3493866728210373 -0.5190483926631254
Ni 8.714662581668303 2.366670373466337 1.2323698274135608 0.4147551924699889 -0.9272375018798225 1.1027188921820106
Ni 6.74552268968353 0.7859675719562071 4.8066235254831575 -0.4855849707983572 -0.504137536989564 0.02272829483545118
Ni 0.6957186068613728 7.595704984004017 2.426532935557654 0.09335058513870374 -0.9223256664005018 0.35554062978304574
Ni 7.765945931063892 3.9115515481143865 3.790205900220967 -0.05670182356741848 -0.4744500372274604 -0.07947691248040506
Ni 7.679545144272781 3.6933735010001287 12.769224668648215 -0.7806712519500878 0.6193458414333076 -1.2483220068675274
Ni 8.061847588874102 8.766879456793605 7.09642352882265 -0.16237004973121066 0.30822898918127556 -0.07982118319370125
Ni 6.844038949666943 0.7624387620314397 0.5164485106613941 -0.6183076299767803 -1.3410269880024324 -0.5254129014285726
Ni 1.7476592700272073 6.6171656301570145 9.261317437143129 0.6810798281079947 -0.8501476015743552 1.0968315801632982
Ni 9.254267118463932 4.700505009654956 1.2414749810158119 -0.30743297564254146 1.0114388164190904 1.0852181642940857
Ni 6.448906228003125 1.6888643896660558 7.087431477098594 0.29909000299448496 0.6522919573420249 -0.5717302964378734
Ni 3.5391658761932483 4.217994300972417 0.3665957605725538 -1.2817859429529281 0.5227518096566416 0.4175700362109648
Ni 5.814784713637076 5.49894998081369 4.87271845347056 0.46616234329737133 -0.20402166383372605 -0.43577473214444945
Ni 5.465182284059639 3.1866408940832405 8.966041006515583 -0.2450317876975006 -0.7801963691961983 0.674783967796954
P 0.22012701867932297 5.669236168624843 12.476596631600495 -0.8196877424226011 -1.3474035809527374 -0.24477776270516555
P 4.033665383964509 6.103104021533058 12.744579316981902 -0.9678447338782235 2.132280900564373 -0.4272163010514771
P 2.486504075452039 8.260210186928507 1.5107479326236712 0.2884242957505226 0.7481228857004213 -0.46471069845250934
P 6.62537230243888 7.774179747796524 5.6653581314252754 -1.4918453283403017 0.0759925534762304 1.5232462112490863
P 4.667044950009596 1.0793266995445816 12.595928161247011 0.042282048597662665 -1.7996889091577006 -0.031176425602804373
P 3.9923515298972556 6.157582934222269 8.21189849345354 0.6581201339880279 0.6096882637388854 -0.3134730111890343
P 4.754251022173459 1.1354704718808304 3.6880233297539684 0.9329996011745803 -0.8347958017086332 0.9502992687952925
P 0.2461748336352607 5.658794603229834 3.3552432211318193 0.2591700268710956 -1.5137956073591476 -0.006601307366601534
Ni 1.4941662924651846 1.0372799453066206 2.4969058289859234 -0.049746732405824 0.0077017395196318965 0.6078059591145081
Ni 1.6812367990005508 6.586320485935536 4.95871750239032 0.5291034629062823 -0.6656048724008472 -0.9339511664545721
Ni 6.140391448736552 5.556740516496466 9.089066895911476 -0.8117985694825116 1.2131035499848655 0.34356186015461476
Ni 8.255704208101198 2.4810299445473762 10.417196011925554 0.8495415925592401 -0.3252900584286204 -0.3139358097580658
Ni 2.48405202673276 5.236191697389891 6.973767708772213 -0.2808313138946131 0.06226671924970567 -0.16895747314074128
Ni 0.5422140233293559 9.14387968534512 9.367895599004317 -0.1935935265218666 0.11129637098384704 -0.6228849649348176
Ni 1.2046978694867356 1.221065973299189 11.47343454646282 1.1963281302987399 -0.03903011731926827 -1.3960825342156795
Ni 4.410909912572927 6.846418613184176 1.8902364024954872 -1.3593556111082912 -0.8225738057211446 -1.6937414611905928
Ni 5.68777582849865 8.114562112263462 7.9279973973273865 -0.0956092992658934 -0.38899582411769784 -0.16648869988527457
Ni 5.230536603480116 2.796728955116927 5.319480825308088 0.5061936481876442 0.10788168887534323 -1.4661270976385912
Ni 0.977978368531153 7.329734607239467 7.267839830600732 -1.1268019012731434 0.3273009182110621 -0.9273544870736609
Ni 5.225578217140026 4.716574524508973 6.969941246029102 -0.3750771571540766 -0.005758499750332018 0.9506990753368724
Ni 8.18876599250997 7.12684793405724 9.358519905709423 0.9487782041650756 -0.3120136530346884 -1.050525755118223
Ni 4.473812653150139 0.24386574569002123 10.126130590426987 1.1077070894252212 0.14189584103725889 1.4743877949854867
Ni 8.309233065013567 7.054417491260839 4.591373459791625 -0.9529865858194685 -0.6152179353078631 0.08321581069754701
Ni 7.514099716848396 6.160641209008675 6.9372312780399366 -0.21255386967445328 -0.2759001951415829 0.08890206244904689
Ni 2.482160963329332 5.076573278730138 2.4335389183005964 -1.0051527263000624 0.007317359597019655 0.41298987303945006
Ni 2.3160278764855176 5.30842308088067 11.581298450475336 0.5170527023893353 0.261052331495473 -1.1891375260875716
Ni 1.158335147576834 3.211975714799034 3.8271133051137243 -0.8683481837427819 0.33607583619021475 -1.1612816802175678
Ni 3.8011912594463397 2.6167793428327504 2.5493344308272063 -1.2519611462820117 -0.16916753226901832 -0.43877932329872815
Ni 1.2839777620266573 3.3831395731849847 7.9697781359478315 -1.5966450358562114 0.37798841726360066 1.124771501106676
Ni 3.6622478641207254 2.9291757785589922 7.0925699216287725 -0.15256180539153724 -0.4932008354724021 -0.05274078203714142
Ni 4.1685461598253415 7.0211112501698265 5.984366050543314 0.045027215442967616 -0.03575787432589971 0.3253144839086526
Ni 0.8396556763130752 7.402707939051207 11.471646631972305 0.45706655164369026 1.1429029206000638 -0.806478957041811
P 0.2955379221699327 5.340643543941004 8.128083668005491 0.20659713787038614 1.579720492186731 -0.21827663109084341
P 8.450257534897979 1.7681623785064886 8.200230903698893 0.29083084830948625 -0.7354386053645334 -0.37143621796737963
P 1.7445648026397784 3.1730053316479907 10.346531768059053 0.16353630212516998 0.05193011321038798 0.20911913296129148
P 3.643002448526978 6.090816633485899 3.973698768145253 1.4186768745764278 -0.0601347605083674 -0.06207568628482212
P 6.675680017860241 4.003815536271151 10.69432909166049 0.24938775067335114 -0.21074612704175316 -1.0034005194956461
P 6.363500737740134 7.862154912732117 10.147477891325119 -1.1243794078745795 -0.3462368358836166 -0.1505900263771471
P 2.3024375548015454 8.424705558576049 5.900962011116872 1.5838301434797304 1.0264283478493872 0.680996267255253
P 6.854145733502493 3.8169712334921764 1.5436298154676942 0.7983807534147089 1.8659971454666315 0.5631389552244366
Ni 5.244126925164088 2.7571704421992673 0.5337739087708945 0.6029540303388454 0.21185298695268676 -0.11552043636752363
Ni 1.2313718164403635 1.131733585825251 7.024038326777526 0.5323667070385862 -0.8978253672662926 -0.14500379053862125
Ni 6.710605877847013 0.9590496381963532 9.30546879113055 0.17896703485794338 -1.0719484437683733 0.5653932984762521
Ni 2.6447019345216565 1.7237269126010384 8.962888630966518 0.08833899085672528 -0.9938974651012173 1.4765950870494506
Ni 6.614234029474186 1.993958968135996 2.4844709560895963 -0.8710295872296869 -0.7646275682236638 2.1784656266505515
Ni 4.026743549018945 6.833298795313497 10.318126005146496 0.6553289443961359 -0.030791788569876 0.43158177710902446
Ni 8.22691299398775 7.362226514807471 0.13948176026582526 -0.9035386156009859 -0.13851561171111626 0.9068473682592446
Ni 7.699885386047462 3.931719875034209 8.198893587091108 0.29374467952217154 -0.9102443097559356 -0.344978023775851
Ni 3.1025202411565513 8.595941802164045 12.384531702749355 0.09643256649813714 -0.6623007477282786 0.1526350818316339
Ni 9.204321329052798 4.685828909940306 10.398774882820097 -0.17375258053653947 1.025688384359569 -0.9055474185008985
Ni 8.70371431985898 2.4750491172283984 5.786159985488331 -1.3676399626042706 -0.5464339837649299 1.228372560328794
Ni 3.7025483253593476 2.5643272158008026 11.275559643707192 -0.5852802672081663 -0.41960172192901285 -0.738966930232766
Ni 1.027227450372604 3.5045386051649126 12.409905430511248 0.2963008702851219 -0.7571281745228251 1.1064978996084687
Ni 3.1051623010311986 8.44185180331049 8.087468331137973 0.5728749515652779 -0.3798038732057846 -0.9985509047128288
Ni 5.535649278250568 7.523935056176277 3.7761287880532417 1.1196300661150522 1.7122413197669928 0.3261791459017931
Ni 3.248141171370829 8.240883337982458 3.628603222210152 -0.7411037740701107 1.233554875860682 0.6184277004944123
Ni 3.3910657528089256 4.316347694251228 9.28506159304398 -0.4742183808326284 0.3940698962064955 0.1742349194895967
Ni 7.234014225685046 5.983867497464229 11.273546430275312 0.05527074754784675 0.4571010044260515 1.4134071415370562
Ni 0.8764897911887619 0.1330765746998574 0.23848571554801742 -0.35265379515355394 -0.6618531186678989 0.8731193798791801
Ni 4.373912026177613 0.35379353277584813 1.5151978129193955 0.584897944168083 -0.42979408908098243 0.2925786842385284
Ni 5.889115267987162 5.452985377515036 0.27416438163605883 1.0454300857628704 0.40072288274663886 0.7727990482908627
Ni 7.891154234301445 8.783600438466028 11.366935103508856 0.2742009530622891 0.5141884934676628 -0.12393617123504463
Ni 0.23563283377241398 4.7354670622427495 5.735280426970815 0.047615030774801864 0.9471550667393559 0.13062283922660087
Ni 7.828450553029857 8.849941476140383 2.6566283013736163 -0.14909390144759482 0.27067597062816606 0.23373410329649422
P 8.621032322822936 1.4959940188168241 3.9523252276113787 0.12086833094299829 0.3192793334581663 -2.7220719111586993
P 1.7996861339971397 3.084622999950895 1.604335665162837 -0.23359834904957832 0.551310852241257 -0.12245213049035042
P 4.627821218651395 1.1870630246384923 8.236357453224587 0.8311173244157815 0.42753100407841854 -1.495017041200064
P 8.400429371440167 1.5076299400455775 12.504539129219966 0.03980993290808627 0.6667819234280838 -0.3802844123866289
P 6.3264847550443095 7.7402491843378725 1.4641327673216373 0.6860006624483798 0.055065830625892265 -0.4361069186728876
P 1.804943109295667 3.0432548569821067 5.911159276454978 0.17502373393947923 0.9726971768745185 0.5491125590383575
P 6.995061625583838 4.010963574973108 5.9045640797336425 0.7386121179965085 -0.2637807861702296 0.4123344988436383
P 2.511015514494569 8.586495533297157 10.167819037914823 -2.251729725452025 -0.3393956445920671 1.2598305217277592
