# total energy = -381173.0583786797 ev
CRYSTAL
PRIMVEC
9.22749283661837 0.00000000000000 0.00000000000000

0.00000000000000 9.22749283661837 0.00000000000000

0.00000000000000 0.00000000000000 13.50536849565698

PRIMCOORD
 96 1
Ni 1.0082512113451965 4.527515403717326 12.645198130541461 -0.6346819575697457 -0.2850983167010832 -0.003956927765218992
Ni 9.329271888843135 2.3595529167524103 13.363615643406703 -1.4946966817461675 -0.2588157288554704 -1.2945998068881448
Ni 5.09731307454417 5.131676257154035 2.7741921442526265 -1.177573732509372 -0.6106028051333549 0.08699713211685017
Ni 0.7518920879333997 2.084619773395555 5.8423952729055815 -0.5980036283121056 -1.2182676106843082 1.6476973744473367
Ni 1.5627127893961013 0.5272533932379488 12.605370426787244 -0.5616096630641038 0.632183359517608 -0.17280152947717983
Ni 7.520904790252665 3.735316705161437 12.206300747626885 0.8313368966257553 1.5652819481638978 -1.4157316759051746
Ni 4.128380209359187 4.170014656173287 7.164895205520053 -0.9261033882753792 0.6903594536377078 -2.1458655812273433
Ni 7.299666426596885 5.115389732635664 3.050012049652663 1.9675405508287727 0.5400581621455731 0.4139231834869968
Ni 7.745474278753279 1.375357778732648 1.9659625227246325 0.28047830143056857 -1.37628092610872 -0.27262203861094336
Ni 6.691436248903746 0.4118183829986496 4.607356283827921 1.0282016376997258 0.7061241726711324 1.3783023274141228
Ni 0.7464506355206614 0.854748180199077 1.578979936179917 0.9769850056165948 0.7085893463821732 0.39221227417246646
Ni 3.3439049221471366 4.911286822821592 12.12905002470173 0.9167381450103953 -0.4380200765352004 0.5662759581915215
Ni 8.57602243674166 8.751667759238646 13.629077688312764 -0.29782682001134514 0.4848300949102038 -0.214808727146901
Ni 4.083700689972246 1.9025613435103141 7.531998081910447 -1.152204657616964 -0.38474244815798253 0.9408764328194957
Ni 6.094924986869717 0.8156365298741108 7.992031036728324 0.6843109334507828 1.3163698515753846 -0.6099664571009366
Ni 1.7112292835168792 6.241125380336608 10.963874227937662 -2.3912822630680886 -0.33886214068610027 0.4231346747829358
Ni 1.7369001680551834 4.463245917445116 6.764703463254065 0.3519570261968455 -1.1589417192304814 -0.7101458922360157
Ni 2.9604011003295745 2.588099454583005 5.50485543745114 0.4251558189780226 0.5554503283309273 0.2807333548641681
Ni 0.8385216343828988 7.586632220362781 8.696862912172381 -0.55871100136007 1.5246204658887936 0.14228639160745818
Ni 5.404736219503961 1.9870390386750065 5.679614920654211 -0.2513140211617865 1.3697012160086732 0.21786911123977964
Ni 2.7953766218669465 6.457371670471459 8.144452605736454 1.3963298743397952 -0.8089508156210714 -0.7299315595033751
Ni 5.6032195862972465 4.9888531259952025 10.61363920810227 -0.9346705611191 -0.9506114007190726 3.237224311201528
Ni 4.869357096242852 3.455723678018872 9.15784168498637 0.3265912937385472 -1.6639750285614376 0.7193010763727224
Ni 5.874646282449014 8.983766881737555 11.194208131093587 1.4271512305960259 -0.5776029531685665 -0.07309183488966767
P 8.371393559846824 0.8217091427837651 11.68341288115927 1.3660440788720605 -0.6923715989717302 -1.1218419861647067
Ni 8.574490672962595 3.54305266841086 1.710239173556074 1.684163073473538 0.46942970119473343 1.0255611147530854
P 8.243657379162517 2.3014381680743945 3.9024708889265236 0.9499981926151059 -0.3697107506358407 -0.47913741540080057
Ni 5.572630448179174 1.340459401549375 1.2013272674485305 -0.8170125095832833 -0.5904160457728348 0.704164220731284
P 2.1323997303112048 2.4320625539565772 0.18716123331790877 1.3676533323407092 -0.17982938285823866 0.25491022315347717
P 1.517405800509303 6.027555063068798 0.5650510486102713 0.7725303680105083 -1.1872670485377357 0.27954344832112504
P 0.6051832596217711 6.2739660266600525 6.9893523081914255 -2.2109592284028827 -0.6262219997278506 1.0298561425840134
Ni 7.401150390706256 3.1351421285473546 5.684098559330401 -0.16863120014957408 -0.5448895220959454 -1.2751252431033009
Ni 1.1059703584554195 0.6944029632567131 10.102636352161376 -0.23367419659283625 -0.06647535801441454 -0.09062804400121811
Ni 8.159179683997825 0.653035190980052 6.686035397458645 -2.505045864645505 1.180636944815728 -0.7451473480118651
Ni 8.137587351208596 7.701938968454314 2.5417774415052605 0.23122650638329206 -0.5625694558742117 -0.5253514520630178
Ni 5.890868214518869 8.591312392054373 2.932893022005657 -1.2328856177077994 -0.25381313343455647 -2.8585452956288058
Ni 4.274995839995101 0.7910489529723261 4.132467065851643 -0.4016726482544179 -0.4262508518144143 0.5482191006898107
Ni 1.7197647142134758 1.9902317511301657 3.423165392970363 -0.5810482314046896 0.7622415844899905 1.05417929271041
Ni 7.331519731207319 7.170093974876228 12.386272841425097 -0.9223665469407664 -0.5777474491662308 0.36798168375987594
Ni 4.030476512396064 8.419625663902078 1.0282416514112576 0.3277740011927387 -0.7051466392492114 1.1538244526085741
Ni 5.376370907113326 7.918978822956634 8.473241087166407 -0.672006662162133 -0.4752920735127814 0.473041844026024
Ni 0.30759939006931025 3.8714129941820863 4.713630239369295 0.023553361839907826 1.5999447896534056 -1.5354370968883233
Ni 7.735065667049754 6.464024692668481 8.125545473306913 1.6289177798469885 0.3799650813739972 -1.1569254601314012
Ni 5.261959225808353 2.621982807575332 11.852797349896646 -1.4098057973390432 1.5053755016162524 -0.15172285443000968
Ni 5.62775548924022 5.496263719049409 8.324735666036803 -0.2559525483750624 1.1256973553550549 -1.0041911337177414
Ni 3.703288078190749 6.537327894240117 10.29961286940574 3.0856184419653565 -0.044475970925187916 -1.3469675218565835
Ni 8.996048674448009 0.25940050498757855 3.8335664330987456 0.39920233233705443 1.1519904847236289 0.6889749145853553
Ni 4.379201914434737 9.166720378409359 6.49447541839688 -0.0026050417230148682 -0.594225392216596 0.3741675008556137
Ni 6.340320926270025 2.916044543185208 3.099711325038467 0.20338274469814652 -0.2786875280787329 0.41564068039873575
Ni 2.645457548864133 4.820562115136256 4.150726428297508 -0.14188812772777498 -0.24018500112816052 1.3624743592429311
Ni 6.209788815314292 6.544294651187068 1.3381026999278496 -0.020076716145217034 0.862857850052172 -1.5452124311075324
Ni 8.56233806514917 5.8717857597290735 0.6094103740024315 -0.1329733417366484 -0.21682498624598143 0.5093386215745292
Ni 1.3454422475776582 7.905949603341937 1.383166083008821 0.06416085094862498 0.2909529757096473 1.219572445538661
Ni 0.5322399302632902 3.337796322016167 10.523234694411714 -0.33924112129207384 -0.5230143192894089 0.5078057298697707
Ni 6.67822247943615 6.776089266428692 10.104149660955152 1.183718154844213 1.6035345638871932 0.5942001954056153
Ni 0.9195011870858834 5.1367329231234775 9.038076212448786 -0.5253226557076114 -0.5606629828801183 -0.273984980396741
P 4.444431059942024 6.344436387989682 6.4793626309429495 0.21224328041256998 -0.05597343004182618 0.9004291234377267
Ni 0.8865498108506986 7.52399600028873 3.9418925830043605 1.3173242450688538 -0.6828736867836239 -0.6235161707609133
P 3.2021983175983455 8.506668602022073 10.745262931437905 -0.15800174546018594 2.03357804997482 1.017120697295216
Ni 9.148329985567935 7.7134733342605255 10.962861049245243 -0.7554574716886215 0.913678275138149 0.3032240797675165
P 2.6606460017577525 8.67603922952048 3.2312538464388245 -0.04871392026593546 0.6764446433288286 -0.058771304501937495
P 8.526452346252887 5.42885688527791 11.122764269289915 0.6037775546814054 0.496671567629822 -0.2801486860052917
P 3.126782020211013 4.299513287952784 10.12804056216224 -1.472561283299709 -0.2959226610100968 -1.2354780610253238
Ni 7.855355261169572 9.016709030480095 9.012213396063467 0.624497560837576 -0.7576863610191402 0.8714324790950605
Ni 8.595916910884213 2.2086188195586502 8.679549367722625 0.4668331441121508 -0.5198351502304789 -0.35710823138048176
Ni 6.522360901169977 7.708481260739597 6.370766115502836 0.1103023825016939 -0.0636995950414903 -0.8487417223657641
Ni 2.068093334068415 2.777069276459328 8.412750259132313 -0.308731639849307 -0.2255425686246374 0.6318748271382537
Ni 6.934746774966291 1.7080181160764298 13.016027991211155 1.09735145722251 -1.870724632849288 0.1541350634159281
Ni 2.2249514815402454 6.575206751547714 5.794559028284798 1.810726912139417 1.482392667567834 -1.9477176025655747
Ni 6.8024983503785945 1.9597533429238325 10.333307981548108 1.6315814427220803 -0.570915770956378 -0.24730310023018054
Ni 4.655122399504604 7.1874785710193505 12.452570530580672 1.8660002307904253 -0.6402242275442136 0.041638758586708936
Ni 8.602163923404857 4.143098060127912 7.19017668986874 1.4291880585203967 0.3148326105407223 1.8803431297756585
Ni 3.426251066510841 6.669604001305749 2.832251527974772 -1.393506031737755 1.051593277150789 0.4251987564008161
Ni 4.1704114383570206 0.5370308444445581 12.619861281236904 -0.6384776771667521 0.51208738796426 -0.5438484824259407
Ni 4.523907454093143 7.726179591632649 4.774269630034974 -0.004716688749378973 -1.5424775486748723 -0.7859659246901238
Ni 2.4631407491848334 7.701966650932249 12.767921014471757 -0.4415954525912846 -1.0442262952627566 -0.40981070398052005
Ni 2.112025426551113 0.2703784529872983 5.376689255609577 0.6841384124286605 -0.8994811577021606 -0.5952579472461684
Ni 0.21086666192283446 8.224519559416851 6.042071754497862 0.23331707036373367 -1.3473210485412603 0.685997062903954
Ni 8.013763627405757 5.556832980770986 5.588534954502042 -0.5115875655097061 2.1163827412768774 -1.1386284615944262
Ni 2.8696302551810136 2.49251185827377 11.406971965504228 -0.8406288634506425 -0.17893438184779506 0.13714212840235737
Ni 4.1504800542438876 3.3470330421537806 0.6308762901424232 0.3749925678600703 -1.161607696098419 -0.7090865977335659
Ni 0.6751156581301986 5.435500679982288 2.8174091060553392 -0.1713696821266597 0.3761621626881393 -0.5383861737597889
Ni 6.528534093749461 3.8593526612951115 0.8632291686890682 0.3526692217725217 -0.6534119298790813 2.0319639114101653
Ni 2.503880129212372 4.0375724542400455 2.0014551504342415 -1.362790347821453 -0.20139528195447248 -0.25209872184661103
Ni 3.059476688858608 8.88507884789961 8.611725451283574 -0.5587696225121473 0.5383373227997246 -0.07597327020252077
Ni 4.6401646339271085 1.152393873952259 9.816066417829953 -1.640949771310858 -0.611572882356108 0.5814616647930244
Ni 3.774035264299727 5.692652445012287 0.8103048846238476 0.2883304504851357 0.936216051229349 -0.5963637787158375
Ni 3.4901329980919624 1.3338432893229322 2.133254196130129 -1.4430241930725407 0.024319036361338763 -2.1257256159443583
P 6.6233834906470985 6.934672955025132 3.9981424554188276 0.22910637471649573 -0.6003024516486112 1.1287623674336238
Ni 5.526908222123351 4.619347410520059 5.048765390240457 -0.13030787908934335 0.6907466617737975 0.5554256457405788
P 6.209262848233529 8.65100504197468 0.22267508426060142 -0.45806388255995306 -0.4260127676616792 -0.0820431305456845
Ni 4.201175898835348 3.1474516037357434 3.5479819949818023 -1.1681339272527107 -0.6075305939659343 0.3177559548351043
P 5.541229290708344 4.728877748215842 12.897005331831494 -1.8351588199295361 1.6755989859536111 -1.943791528038291
P 0.6610206631150083 0.6232700679551751 7.801618957751594 1.6474076111210596 -0.4172676744791975 0.977183494780646
P 6.574007177503868 3.0070368481572487 7.674398593906139 -0.029627850168761877 -0.2582284888934327 0.47575487208181283
Ni 7.506537584204448 4.215810702170269 9.341055396950761 0.04351257857065409 0.5547813272883606 1.0223729468330907
