# total energy = -340855.4328672424 ev
CRYSTAL
PRIMVEC
9.44277554378741 0.00000000000000 0.00000000000000
0.00000000000000 9.44277554378741 0.00000000000000
0.00000000000000 0.00000000000000 13.82045649870807
PRIMCOORD
 96 1
Ni 0.35928250663701067 4.687988748345008 0.37240607629366157 -1.8999439347257214 -0.060085909548302965 -0.45508757354044854
Ni 0.7881129448002592 8.631537389464956 10.969600756225356 -1.0050208287078886 -0.28264985516059066 0.44625069197510886
Ni 2.880556495927467 8.533002025119616 11.807299604739102 0.787861856161256 0.9409057433955345 0.7453826039511227
Ni 3.261978534451788 5.1079184261410395 2.6903733278264856 0.8470255110056059 1.0750887891695677 1.5682911673038669
Ni 5.915691229931906 9.039739139851603 10.385575466732451 -0.9193992367823264 0.1358804880811144 -0.32089398624345383
Ni 4.040592046905961 4.199532847352606 0.7530793027056121 1.0376499275968192 0.6346739871499456 0.28786353815104615
Ni 2.073463571986419 1.8290373232006878 11.660554149098589 -0.07321396228982874 -0.7181438228398277 -1.8501254685416977
Ni 5.468471930386184 6.53412693832379 3.955801586857802 -0.9887693998460326 1.2471418705164974 -0.343640278801034
Ni 3.8346451090648634 2.0887986397101215 13.58278600271326 2.579641537774209 -0.7316200029493916 -2.19793453400844
Ni 6.954604297109953 5.412315743346248 5.347839526644148 0.3614472250754679 -0.34967851457531396 0.6186537004622894
Ni 4.458576512909453 7.015859583023533 11.220621839554333 -0.3559039266597354 0.9801423202986539 3.019081891695704
Ni 7.678950177662577 0.7585627225499185 11.35147321515018 0.3224834422177607 -0.8005561637994729 2.485207232653023
Ni 4.4776037059287015 6.240116674379709 9.29554204479098 -0.7568736353098579 -0.2536994906748276 -3.0959527340118296
Ni 0.9187443037224846 6.446743492070626 1.9648546545329237 0.15544761157976453 0.3684887053032815 0.10528641734434124
Ni 3.2986165041364948 0.9583945188529188 5.603821844321669 2.2605954033727715 -2.9056749021267567 0.7911081310126957
Ni 1.8001141012562916 9.077821854217175 2.183867561098951 -0.7227119018264844 0.4085158964284964 0.2643101763111384
Ni 3.2258882457572136 3.281827248956235 5.741224617692581 4.196349405818567 3.033438160417376 0.028247939102099738
Ni 4.9035295462891115 5.117795569514803 12.710812711270497 0.8881415643196252 0.14699716681956618 -0.6657267426906922
Ni 2.3553681974934393 5.8230764859454105 13.912639154628785 1.1020282938728891 0.738808807388347 -0.3908321059954882
Ni 7.112600819987406 1.0171852403109045 7.672025790247681 -2.474912021374602 -0.9722138094801968 -0.042900141797635793
Ni 1.2982022449028832 2.5808144671383824 5.417770834863479 -3.1639226742938993 0.5442192355017983 -1.8404763754877078
Ni 3.370400484946583 1.1761449263089343 9.564184291838677 0.4389184199797538 0.12295066739332372 -0.042509077006804216
Ni 6.499859105337759 3.3992576074611356 10.99031726181589 1.030791252803773 -1.2878758579007499 2.2420009282000355
Ni 2.2744624953649426 8.393362258187285 6.674382374231236 0.4980193399069682 -1.4649886131587737 0.6145833870476577
P 3.608773914513784 8.183553225088186 0.23536401695418155 -0.6819935981715158 -0.1937907301343372 -0.2765884794578591
P 7.531274608616409 2.5781138332904887 6.081622517223291 0.05196250911022019 0.22211760210348847 -0.3611512911016038
P 0.670231221617284 1.274208151869677 3.5351212083942625 -0.16309330105048042 1.32929735827033 -0.8305275133505825
P 5.728573186820528 4.550945744727959 9.567749883939952 0.7327829129092412 1.2145191993854696 -2.4625624986703136
P 8.19748131923379 9.105243674826555 9.512758935420399 -0.43326070747334416 -0.23304247654610832 -0.4382753870791162
P 2.917033938425411 5.594920139676883 7.6825431538133575 1.1229493602962726 1.0645907178517213 -0.3671013380374516
P 6.3313811014422585 6.9708269857486975 12.5696913728321 -2.204180514918152 1.0593019586489563 1.3722016138330237
P 1.2923760523009595 5.119806880737185 4.37089939633227 0.2566243776311064 -0.45941294038867975 -0.5386378847592788
Ni 2.085200942171494 0.5112026033567031 0.08971864468177977 1.5369707599240305 -0.46327242334408597 -0.3136599303888598
Ni 0.8452115208542503 6.653172011472011 5.86049537317984 -1.2982924252483834 -0.3683418953127721 0.473081696125024
Ni 1.550059958158167 7.077360381105105 8.859617249250379 0.0928870152387239 -1.2959558066954069 -0.8556561900974102
Ni 0.3444790671847645 1.9169873359953682 0.9640006947812205 -0.28761311270313694 0.14446977241202216 0.07793450769394965
Ni 8.18899226388674 6.895709705119356 3.8991657068127155 -1.0003177668052643 -0.29492687275573076 -0.03546142613140344
Ni 8.88490594683095 9.020560862421284 6.663436308649144 0.8233651912741884 -0.3916600012134223 0.21171723270577086
Ni 7.7482129373629185 5.522446836241284 12.345302694064655 1.7031290730530797 -2.711268135674976 0.5609401478009048
Ni 5.8029161598431305 0.31941416338809286 13.375437756959478 -2.710767027668841 -1.3772741432599247 -1.839874737347967
Ni 2.105181855535628 7.331871514329822 3.6735881825856556 -1.2898010999479206 -0.5543681510103421 1.4647901239947223
Ni 0.8407668063360566 7.917512462743617 0.07826172493475532 -0.5356011548154841 -0.17156817129071095 -0.795385675342127
Ni 6.806541574260416 8.373050847673934 5.798442172720291 -0.7238470438721921 -0.8560274573938998 -0.5753393539453704
Ni 8.638940525607433 3.0754648289846926 4.139337040871661 2.844202139533256 0.5083158367369698 1.9307107835949329
Ni 8.088558901627323 2.8897915305541795 2.050016215665776 -1.285982754643095 1.2153568647954165 -1.4872440821228645
Ni 1.8179420617626645 2.9554093788374343 13.53843611812095 -0.6973417984928119 2.1876436936053936 0.9018967091221886
Ni 0.33015909784794545 3.9394221481425715 10.635297224126221 1.498106478758665 2.005590306512643 0.09598442321712501
Ni 7.082440594427365 2.017260171068023 -0.10918587104827246 0.7905797693130514 0.2365700300833926 0.367352020595677
Ni 4.570973871970552 9.050673874102865 7.540925125373566 0.6184076458897544 0.6051600368512288 0.6817408587307614
Ni 7.954528143456001 7.682019079762456 11.464331381665048 3.1391133285597035 2.4283835387957597 -0.1888794088756489
Ni 6.5232016468482215 6.526128907312721 10.423374897827266 -0.8917123123900191 -2.2515358642736643 -2.464662318622136
Ni 7.675069196853191 8.492653044587978 13.668072208485244 1.024272992069281 1.0672667220219878 -1.6241085313838028
Ni 4.846211897839067 6.5239287405765 6.9331285923537855 0.4050690755304766 0.1816607796400226 -0.7411850209300074
Ni 4.314083159271467 0.5627526044141133 1.478788720068151 -0.03131115140845575 0.36692598880185195 -0.06549731037186139
Ni 5.708743357867465 0.9742583820153692 4.934386648695216 -0.8794944301675884 -0.7187662869151751 0.8409530795592807
Ni 8.413286514897267 2.3521859820852575 10.13579894123967 0.27850677952649455 -0.4647212399754706 -2.270583882044051
P 8.509338429235628 6.2015901495566155 7.281915453809211 -0.9481017469233413 2.348589609295568 -0.12386932255285119
P 4.170335784913145 8.191702340510327 5.473232977890057 -0.058037768770022626 -0.1260807283818732 -0.4381296055298713
P 6.579593903280456 0.7262627640180864 1.5913428292057368 0.8007667371483822 0.36122765286549396 -0.032156015907254296
P 1.2165411207190313 2.2543399403654294 9.382887719941374 0.24867915464210075 0.8454931335214795 0.4281426695204884
P 3.295141562681863 2.57934139413044 1.8126909342003794 -0.47580269460061286 0.0669255581779557 -0.6096800362087693
P 1.2672488261847208 0.6944717710960496 6.227386868469412 -3.58945387433347 -2.2041350063921974 -0.5795958152288793
P 4.784899955271335 4.564090088491132 4.378376186125144 0.31849360433207724 -1.3171933759179444 0.3050207666566231
P 6.330937290984737 3.874984646820809 14.188633546830225 -0.6322445517728466 1.3971338582983293 -0.3495461027625077
Ni 1.466850218760838 3.852416412917085 2.2557063100080526 -0.9821272119391665 -1.012771933408217 0.6593630052561935
Ni 6.463731045540416 3.014794995164012 4.0922506398838285 -2.3081525843264443 1.134835313100581 0.5403211859989726
Ni 4.098192978626763 3.6124565970336384 10.561012796312909 0.060274371410025236 -1.922807469587456 0.9068885059098253
Ni 8.812649827236264 6.594636244957708 9.412297244833905 -0.8524644226329899 0.12011114106199959 0.5201380261828783
Ni 3.0766074048434167 1.8129279478702471 3.7005104803609306 -0.779997880032147 0.3271080854739657 -1.8053718184750907
Ni 8.589856977560755 3.051385750970259 12.510029083177749 1.0910198585775275 0.03039583868303797 -0.06513812726022974
Ni 6.373033185019383 7.934226175718341 1.5933324220440275 0.21261171949558222 1.1693428599591473 1.2492743434784679
Ni -0.06152723785350853 8.7754925048885 3.8872800850492775 1.328823503957705 -0.3645911700210882 1.0749478927163292
Ni 8.941439844898563 4.331316224909249 6.67243338532842 -0.5648178855887562 -1.7848374459671645 -4.261819462496918
Ni 2.445140665996663 5.025275253285226 9.981216926052422 -0.8198870029176009 1.0316011502995783 0.8190287686823636
Ni 3.84648634978255 8.468526752695086 2.999536413923414 2.540624018860431 -0.6099461453859624 1.7187305270357625
Ni 8.901581888702907 -0.004507981115329656 1.63099398861374 -0.9596876519887277 -1.0976463627551094 0.14931090255440738
Ni 6.875181110765089 7.727892084073875 8.216316823906492 0.35733757378246844 0.1423190446176065 -0.15300943445191711
Ni 2.380618179693673 1.8438719238127173 7.390724558107375 0.6727841637581058 2.4080088317941497 4.446014321412704
Ni 6.365488407241528 4.804437058177948 2.347224747736715 0.2869798499945122 0.37468120726723864 -0.03560875034254512
Ni 8.08941819421529 4.2823648757222585 8.680738972207783 -1.211146940479127 0.12454295158110808 2.178808868922583
Ni 3.184311704385625 5.919336141348993 5.180169824347877 0.41126851947296916 -0.3632912202627421 1.1538933581732964
Ni 8.063101178361867 6.531350762270361 0.8849240583042511 0.21326477969854885 -0.769648675587339 -0.559363033121772
Ni 0.8998634737264612 0.13767944669868562 8.818170073905769 -0.0012048189413785702 0.006656071863936924 -0.8844754283219477
Ni 4.750632122285303 6.516931643788777 1.4376729861503288 -1.9682961980478746 -0.5601204801130869 -0.9915549330109696
Ni 9.076273239003699 2.026344121283665 7.672688673101255 1.883167743708647 0.795311884681398 -0.19247792486018464
Ni 6.106170901189614 4.0145960854260645 7.049234129429108 -0.59846822665335 -0.9454231716499137 0.8948241185461234
Ni 1.2567862307180573 4.4205221268709565 7.955953058307914 0.27812728469988873 -1.1546921999255082 1.1562950256362539
Ni 7.6005373683167505 0.942963134817159 3.600671068692535 0.08134636158897604 -0.5564582007701514 -0.56816417635317
P 6.191713006182852 8.55527753297689 3.6217199599874266 0.6360968356394012 0.85456835634987 1.292415140532
P 0.31797036298479603 0.6913575436728496 12.814410347664282 -1.4731071285008501 -0.04324312695935133 -0.7782981237322208
P 2.753711690057708 4.3706548284418485 12.217090574274703 0.3544468824982347 0.39698192764696794 -0.2406395721670759
P 4.615062191676196 1.4805044724113758 11.412781380607637 0.4538087068280249 -0.11238034807664515 0.28588301738590766
P 2.9455511210150545 8.51490966689387 9.16883604772389 1.5039217998888614 0.4408688588379053 0.5947401270694854
P 0.5300730462994655 6.366857609716857 11.335040896891076 -0.39212768487846017 -0.26614285864450293 0.08891414663390493
P 8.628506258467844 5.346669566735917 2.4960986050181893 -0.7108395758689307 -2.3761412936615915 0.23294194641250204
P 4.7820765653394455 1.9682049513484223 7.789734710635494 -0.35792532796513843 -0.3704555992216652 -0.44411024859333836
