# total energy = -381167.6746035247 ev
CRYSTAL
PRIMVEC
9.25083518914150 0.00000000000000 0.00000000000000
0.00000000000000 9.25083518914150 0.00000000000000
0.00000000000000 0.00000000000000 13.53953238805697
PRIMCOORD
 96 1
Ni 0.16646137841047384 7.664316947298441 3.2880215730636095 -1.0362090813852347 0.9300482318557403 -2.184998799783379
Ni 1.700756797156151 7.367143117950202 12.51277587424517 0.5613368690186913 2.0860696921156334 -0.07102209684483252
Ni 8.213344764444145 8.381071657107352 7.811917722942285 -0.29224289816566446 -0.49035873803791674 -0.5596533106686813
Ni 5.892125200876099 7.901388100476976 6.32963697516773 0.5793003954756475 -0.5114631241166998 0.6085726620772036
Ni 3.1680410160190995 9.139584636922425 9.441494893883236 2.504329812415087 0.34520865172941834 -0.4732465038376623
Ni 8.087117118402034 7.028534797827131 12.005489675602302 -0.10964058054797891 -0.7083777445919994 -1.9262969707979536
Ni 2.169487364932451 0.3511940813865592 3.0040431350172745 -0.9330546227822317 -0.47511646716686556 0.8508196879407154
Ni 4.103772245392888 0.8528178438152542 1.7471007061614385 -0.17731561529744946 -0.6182646925539869 -1.4964386041379392
Ni 7.471168759558376 0.791851139639665 6.064979831480029 -1.6911991543847134 -0.2611405203339051 0.9668168068343413
Ni 6.182397907179455 8.891930528297047 8.64467975608555 -1.1764650728262256 0.24207759016518304 0.045674619218979404
Ni 8.92555731417928 5.880848432790696 0.37132944924110334 -1.6992819313928476 0.8770451972961476 1.583573547384234
Ni 0.3927007286758033 8.340025701410113 5.423069928784954 -0.3149187424966254 1.2393030911983691 1.5228307209782224
Ni 1.3196593910476335 6.387498173973124 6.767708424987801 -0.7940368746237164 0.7560172008468334 1.118323688598803
Ni 6.401975731031086 5.5815839146915955 5.8355387671586225 0.06981522102092493 -0.9198216690317256 -1.27821082400716
Ni 1.9726943481311476 1.6238361026277421 8.388783153314073 -0.7707030849937824 0.35212877588801933 0.9124230625748093
Ni 1.6976485165353998 3.2442586470737664 12.152596456647492 -0.5806417399948902 0.7855280658217569 2.2147642039712694
Ni 4.244283180954163 4.230508687369943 5.147716969461202 -0.7723192804409666 0.46525834342586325 0.15626625082631798
Ni 1.747815795720915 5.436114531473409 -0.05260949967324832 2.2558792288440244 -1.4431218949926694 0.8655207415963159
Ni 5.623249676345949 9.078103586310784 4.502733939319063 -1.5609342127181636 0.8315834654189227 -1.4120400859862006
Ni 7.632984368541048 4.388466698082218 12.63285726539315 0.6826150338055986 -1.1955974227803021 0.8954746076459288
Ni 7.3331648003311 3.174044808051443 1.490919177666392 1.3419047626216953 0.5955248277543098 -0.03451088929267605
Ni 3.4787025630609536 2.273142973133391 6.912432190890415 0.24202488255037669 1.0783448342130204 -2.430493386049911
Ni 5.8931520435811695 5.287916151876884 1.4709614258473194 -0.24843284295924953 0.4544841356284947 -0.7139110157054027
Ni 3.659510136669823 4.23197957016369 0.6586409632030831 0.21419629037388274 0.2851193997470057 -0.9471182999641495
P 6.307441446318421 3.2037954939929176 10.986829334250169 -0.10017686403191779 0.1878154863875088 0.30251522662595
Ni 0.752133603874389 3.620767638932604 3.415455528013296 -1.5526259499627841 1.4133433781786562 -1.7242655979213788
P 7.623890797558315 2.380508166241835 3.885588522403006 1.6421090817262816 0.6490443969390047 -0.22654478463690664
Ni 1.2306663566082723 8.551287024434197 8.167411592520883 0.30198095138903475 1.5306949542176476 -3.6390165157529455
P 5.504283935920774 1.7165387219746073 7.483800774997768 0.7200348692149535 -0.11709523705381124 0.07050427666814954
P 7.427458563329063 7.468217743135697 0.34472959776221146 -0.5056164355279357 0.5678800694538477 -0.010942872164748896
P 0.5156609797320512 3.915730518672629 0.7500558662927798 -0.8082445335826661 -1.8412389646853453 1.0449310346392648
Ni 0.13180312440558117 6.731203704280819 8.890002654245366 -0.6901943888147533 -1.763900952924814 1.436846603506919
Ni 2.3208680318311736 3.7034793562841974 10.016817284946864 -1.8567622571319249 0.7889242359874994 0.9410931768159921
Ni 5.85957151187484 1.721293651257542 -0.0035347441225862817 -0.6749341202215731 -0.062421756770331197 -0.18302346431550415
Ni 0.21386450804396412 1.7737366358975357 5.594115096027517 0.709104852566011 -0.8909286401464592 -1.4568585278524717
Ni 3.5781305395842655 6.463438279972366 6.228293150678474 1.3820908479222778 -0.6372512609588186 0.9071543579767022
Ni 2.5435448854683744 6.65599441426086 8.907089871907834 0.8325977656160499 -0.4517690506901768 -0.12297277888051078
Ni 8.638133865111612 3.1716858450803374 10.890875046337252 0.8631082755000813 2.928792719091143 -0.6825242738640052
Ni 4.19872281768869 3.5316358419655303 11.688624518488197 0.6388869967900287 -0.3824762778316252 0.5140797358039404
Ni 1.754235875336395 6.245664368980994 3.6098692300060953 0.7931927814558661 -0.8832235581927177 1.2051760676076728
Ni 7.586989216022077 1.4555264073481433 11.786339240336027 -1.906195314952072 -1.2439405899703804 0.22659723514139685
Ni 6.099371661431714 6.258088240628817 7.903566672162057 -0.0879047315327841 -0.18706960936041978 2.122870148773434
Ni 2.8724583303219604 8.43241379236083 5.1302375163870675 1.2708926930791917 -1.4992105104561213 -2.3228148143243095
Ni 5.010233832254606 4.233931496386841 7.326295130125832 0.021157350803905496 -0.13550484990925052 0.6227324985173534
Ni 2.741892042580053 4.4348966398546885 8.067611732423304 -0.026059673201529313 0.5016332825104716 -2.71489596223555
Ni 0.6163470698399525 3.48336498399208 7.089272081290236 1.919507972900578 -0.3128778008071966 0.540841834389133
Ni 4.834375455467469 6.777457880184853 4.11841446731707 0.32851627867540195 -0.9386855958157642 -0.15354576657136138
Ni 8.821041378306525 6.0567623145889184 5.243224442034888 0.889342526606262 2.908406699235623 -1.3495831051025595
Ni 6.968136094931643 1.7624413661417706 9.302971962802317 -0.3231966662347014 0.7047010670713606 0.998983621374873
Ni 4.000865954841594 1.668425128199231 3.997465347829129 -1.8116815627432026 -1.1810696614777725 -1.4722607213401546
Ni 9.25314788960201 9.001330905145268 12.155209817586071 0.5937145140184484 0.6018088609908088 0.8117440620954923
Ni 5.309701868727683 8.043980473953933 1.1139217417100082 0.15479532270774632 0.19583064338250145 0.5007935602179955
Ni 6.18360051575296 1.4002526671428226 2.5199506303397263 1.896168269733373 -2.323484072477192 0.6904651259776367
Ni 7.831220515630557 0.28781845972988795 0.7291110503599152 -0.36859412053289425 0.25560673499986947 0.559532725930417
Ni 8.401821280417902 5.286112239016627 2.9079399086579447 -0.47973699665801245 0.08846008981562184 -0.4220992915398859
Ni 4.208732221354323 2.6664144783398505 9.102817192496309 1.2418194298623195 -0.5800262178980785 0.9196890001086031
P 4.406681592553227 7.576961310686082 8.314410138794457 0.15360104528932902 -1.0252628667863761 0.7268585770050062
Ni 4.170877803794462 0.008419185098052276 7.05561291748487 -0.4231195052742842 0.3585693893070405 -0.5142525139363788
P 0.27937244720981136 4.160202339995811 9.02311014641144 -0.09720595432905194 0.8435666059227279 1.4877143368910637
Ni 1.4284029585980176 8.147552824638245 10.22012659004953 -1.8236305075749624 -0.13692795550902226 4.423686347339465
P 3.088086047551386 1.5964258779870117 13.078985267572184 0.4964432536690999 1.9572288844901196 0.7407618173496597
P 7.171117920468907 7.287918965461773 4.670786461380635 0.04093324787925209 0.7419807773584253 -1.0495099122591989
P 1.9117498459599926 4.918854082338596 5.475942152177336 0.9357378260413498 -1.2390770912304918 -1.0914798289330814
Ni 3.7933604709009163 8.910968747099147 13.123584469062372 -0.2384353654269055 -0.8117227219392537 -1.0553771696732535
Ni 1.5039082753437627 0.6160760203691548 0.6014504499482992 0.4782781527242989 -1.7958217128928105 0.27854251786043643
Ni 3.194202377910421 4.541420006961679 3.011490057337824 0.7133600282979392 -0.9355740467699759 0.4379478285363684
Ni 9.177485308658191 2.0047947462085474 13.276567380614411 -0.07962783623597254 1.6693707456557119 0.728589443653184
Ni 7.111607297750776 7.326346934802844 2.3461440887956924 0.43406597698345883 -0.14671948767814733 2.4305108695514077
Ni 3.514632806903207 6.625771935725163 1.9085462817368792 -0.7780222443630149 -2.6974389431013672 -2.0129596023935203
Ni 4.957476319218465 3.025171117486719 1.990216355047114 -0.6046812974425972 1.8953041219608648 0.32500312331582093
Ni 8.872661038615426 1.3892441732776624 7.901291891791097 0.4181907005140992 0.09671898739030439 0.5122804778116726
Ni 2.5492156474342087 2.5716304210773036 1.828500655084394 -1.432154083127256 0.05540598757413039 -0.05680029681849572
Ni 2.2513387546122297 2.8512184127468276 4.6736708717900095 0.7359481980111002 -0.3899936692545929 1.9993656657591696
Ni 2.770005330694525 1.632134101784926 10.984609133806776 2.005227523856585 -1.7573731791086251 -0.5091077365106457
Ni 5.742418935145103 2.2961035460521537 4.898616030213544 2.2688265330333124 1.0933752461835815 2.4942811699298333
Ni 7.115215123471291 3.106374948703841 7.337804094174274 0.7589657419521962 0.2048711563182149 -0.8397006952094184
Ni 4.0368609545301135 7.411195595081205 11.028951162078936 -0.6942767864142431 0.0512413146734795 -0.7976683007287166
Ni 6.019620211337979 5.505005501064877 11.670629793894493 -0.8078406132760281 -1.0059011744303128 0.07664227124508736
Ni 0.5530158521921491 5.719782141457669 11.17414857074281 0.7241913145854882 -1.4567813947576331 -0.740624263330531
Ni 6.443197452596761 6.978756053719209 10.116399750417697 0.7265649570239875 1.3836777327934235 -0.6073462458692701
Ni 8.492747739410051 4.033475148853938 5.448740996411692 -2.0136931381254355 -3.432391352858102 -2.2514577027375613
Ni 5.475587845189912 0.40903215310399954 10.998554767841842 -0.6013465766424094 0.49571203193003016 -0.4370605408354086
Ni 4.343174609036988 5.195370796728092 9.850632506508298 0.33169981860970615 0.20933330585462656 -0.6027647971461748
Ni 5.892957776042372 7.901351097136253 12.40012660408145 0.46465696239643844 0.08263062761803834 -0.06432231622715374
Ni 7.805873227235147 0.13788369836992548 3.843859855069423 1.3190036896538058 -0.26523757322141417 -0.77003048440679
Ni 7.329038927840459 4.568774726591324 9.413224341570691 -0.991985335680169 0.14879539637056954 0.8189246390043315
Ni 0.5968342831930766 1.4559334440960987 10.526675215769997 -0.18990476481636973 -1.7358833846659651 -0.9962127434979552
Ni 8.348989760700313 5.286213998203615 7.430644550965333 -0.46970789455678463 0.5570071312950859 -0.2518300415662566
P 2.021325988676649 0.4816040300139109 6.355253462866902 -1.4379208104077041 2.335938496190461 1.3285766780542216
Ni 4.34547806699701 6.19483102966246 13.10285519758922 -0.8500002773632136 0.16960770513023046 0.4706946839500862
P 3.8471170741365848 8.274622296681807 2.901021209026219 1.194159661892511 2.3675854336717808 2.0503280157396495
Ni 0.2901145170217642 1.5602366107596954 2.480550398221152 -1.694375752340482 0.005631230143848366 -0.0738053160169245
P 8.050511563591582 9.019314528736755 10.399511385207589 -1.0376725533046387 -0.4013746573980249 -1.5000288925923586
P 2.856102853722294 5.415401911503582 11.605410480786288 0.29172533509929754 0.16500183092710294 -0.6403599817911295
P 1.4890884373841102 7.439299632360496 1.332095288781192 -0.39170165308463506 0.09143562750417801 -0.08998423976963213
Ni 6.0296296150036115 4.486701316867206 3.6882497063260353 0.8646190557176527 -0.3377560521061151 -0.5263464689864354
