# total energy = -340869.1794159105 ev
CRYSTAL
PRIMVEC
9.24054184404576 0.00000000000000 0.00000000000000
0.00000000000000 9.24054184404576 0.00000000000000
0.00000000000000 0.00000000000000 13.52446703704156
PRIMCOORD
 96 1
Ni 9.713195329907023 7.2790056521438515 8.685277479458602 -5.077563132670107 1.815173892167177 -1.196736678591068
Ni 7.28224908225449 1.7487170594234167 11.912985732574771 2.4389006362769994 -0.7722169505351474 0.9815237740272129
Ni 3.7085989760784703 1.9948758477917687 3.530372953525982 -0.21940688804054473 -1.3737183075878663 -0.987748414780686
Ni 1.5317583825924346 1.6638426845909038 7.157810404397166 1.1537457768518389 0.589428742158901 -0.31820358389548425
Ni 7.773882858910889 8.49006179707301 10.07317171758806 -0.397456039069909 -0.42849748175674596 -1.4022053592839658
Ni 9.262164493154168 3.1793099922971413 4.883860958966124 -0.5366537644497145 -0.4537362017188767 1.308966874243094
Ni 5.520022350974226 3.7001161588660323 10.533747109786152 -0.40240438421411995 0.3493679253134305 -0.4196384887042192
Ni 4.397638443485765 8.17345311934994 13.001326560659809 -0.7139069019403447 -1.0833746833274438 0.01578323097618572
Ni 1.132317489736143 0.6930701916644461 4.692381227559822 -1.1813177729328366 -1.3200246747191524 0.6232042959474493
Ni 1.8238334222991377 0.6804503839661593 9.402020090659894 -0.090055973547832 0.4249115641777005 -0.25086510654982597
Ni 0.7122101255338619 3.3130298701633687 10.563149589185125 -0.9360970091529813 -2.170994515084487 -0.6260397085137154
Ni 4.068287058860786 0.10333512889243614 8.235102316860294 -0.10298579423562265 -0.09850461853581745 0.7488443372474781
Ni 1.0066738452508215 0.5507963444152623 12.303559401686995 -1.2437528994396063 2.1803713283136963 1.518600999167591
Ni 0.9397538427971406 3.8813324206886137 8.195921496312952 5.6786533703273365 -0.17225517005540655 1.00325216684324
Ni 2.7533487449749474 4.133793258445727 11.591928658113066 1.0736782819752864 0.13292783321069362 -0.9963937491605098
Ni 1.4629533096471006 2.044682367154561 0.7552969230264085 -1.552708996594894 0.2653553297462011 -1.695025727219655
Ni 6.147649178736786 1.963088384599189 1.114406547902952 0.1455637768071493 -0.12747863717066432 0.01825843198955565
Ni 3.958906767636784 7.688306202914817 10.203790469684686 0.8881747315504058 -1.141167683076512 -1.3821831505257678
Ni 3.601510339177655 2.5714579236136865 1.1502681658983247 1.4347827789993548 0.24002199318773504 -0.876929754764206
Ni 4.079920900767606 1.7178444098517864 10.348380920719444 -0.6866061572428627 1.0516878937471243 0.005754900205906218
Ni 2.305136273417948 8.597889677303884 6.710245694808131 -0.46844085491890297 -1.2775397660820642 -0.08683360995579238
Ni 2.28341176005581 5.745519288267402 0.6933344711549424 -1.3462982637037009 -0.6284467752933113 1.0967001967917565
Ni 8.111929593205696 5.512463587924363 4.49535717117807 0.4047973099263286 0.2611464338711761 1.5244026934510326
Ni 4.288637014468419 2.238114625006384 7.078205910453819 -0.09939884821531268 0.5290993491412243 -0.15192057226311254
P 0.7700753212484703 4.627885019174576 12.190169639451579 -0.5951764432759556 0.7015992882175852 1.0176238621838798
P 6.2727476312661885 9.025606627534971 13.130904827769374 0.22098348849904523 1.2696261676619423 0.28383873326236925
P 0.028981110700839457 0.37433249315080386 2.3006601550544348 -1.4669436800026154 0.10028047948931762 1.8505620418584838
P 2.9750663007431912 2.718770638211391 8.857105350989423 -1.6182078496286518 -1.0891079862667952 -1.2204448208412852
P 6.291284157767443 2.9428999753439555 3.7670509461863144 -1.04041463482615 -0.2816440396038956 -1.1261257011417252
P 6.1669988729011065 4.022065869648785 13.030674520863188 0.15419651278148283 -0.5795587913433566 1.210799070221405
P 3.119828625852189 0.8814534175719592 5.378545038413182 1.9676379956385854 0.38215591837772894 0.8072891116479322
P 1.9811906056440332 8.085030376533139 13.309765675531551 1.338283106708708 0.1388961349789866 -0.7935992728656656
Ni 5.792729215433359 0.3104683378127585 10.821480018982916 -0.7458307472321348 -1.1280910523982122 0.33020317945952166
Ni 1.1911150561007897 5.258515022965503 5.027070873081996 1.1369461887959968 0.09256871266735671 -1.7213890477045322
Ni 8.230014474641155 3.5616558831457956 2.814022141289622 -0.3927244379221946 1.0970971751198588 -1.3207751797319318
Ni 2.8500510130884202 4.172862268439398 2.853892306242245 -0.6755306161549913 0.5678240194049318 0.08418228837587437
Ni 5.205825454615478 2.178975158601584 12.477943207031496 -2.4666973467742936 -0.23811834840711893 0.41347144066155883
Ni 3.529563482079566 4.7414512757550416 9.093486722263567 0.25850693936579994 1.0342072204638575 -0.4153414039907621
Ni 0.2611404785061803 6.557069856548887 13.078335386460482 -0.4732315914393269 -0.17500599332766634 -1.0624672437508154
Ni 2.305690705915493 3.060421183740243 5.2655212016261475 -0.007951907857225014 0.04103634911601965 0.5091768991856844
Ni 2.9541272334192414 0.04901183278297754 11.430026976396626 0.7070590257805758 0.15714891054158742 0.7522909010351818
Ni 1.1968349513671288 5.571871030036309 10.000707390158931 0.5547450747337865 -0.5345685997859116 0.33971548982533106
Ni 6.435251796296627 6.936431052452424 11.876307250699682 -0.44060634920513797 -0.4984553990031222 -0.7433694301758359
Ni 4.193967665512611 4.980901430903099 13.306357763779976 1.582252514579965 -0.10004702332227286 -0.6960673026557626
Ni 6.377581576010321 0.8523069011760188 7.532736140320343 0.5286121250921606 0.0963808873245953 -0.26937422109760706
Ni 2.040939947796132 0.44614166617866907 2.289827468106568 3.0226948058579426 -2.1799355263278586 0.09573554043111254
Ni 5.4368297547176 1.1484884375812052 4.964574317904562 0.6473942629300915 1.227522810733989 -0.17794450713069998
Ni 7.377556028582474 7.200156110451327 7.64901911613878 0.3961152087712984 0.4643155198966197 2.625362951070724
Ni 5.778360173205316 5.104013166982965 7.249601324636553 2.280861352710659 -3.2890778055377097 -0.24120392931097812
Ni 6.171120154466191 9.324815365376754 2.619229675710488 -0.1967611256165708 -0.3222471578372386 0.05541935731056907
Ni 8.317577847086762 8.012168705814101 3.4358911875651765 -0.2564099476274552 -0.27837796725811415 0.886337678341667
Ni 8.495753970714471 2.8724962886973673 7.471307791754845 -2.6750932284163156 -2.2614402678715697 -0.18078377635170803
Ni 8.98099329256585 8.261644848626098 5.998682407188072 -0.13384263171547917 -0.6116068209178369 -0.6914583431288414
Ni 8.308143254086872 3.240066553486447 0.1587026062056045 0.6770408821519308 2.1013027070153036 0.21399702987888305
Ni 7.89089583751776 1.34459121196287 3.826450071810797 0.12026437881041224 -0.49748506467005293 0.33574107855861535
Ni 4.450679152417569 3.661693986786164 4.895194483270107 2.0236831594586113 0.9058114707955625 0.38377597047965517
P 3.5746850468381033 4.9163654881888625 6.408432972336213 -0.9995199534943174 -2.3724864705178237 0.16597756457681095
P 5.8599264341358115 8.309935919162266 8.943189312720746 -0.344388212710652 -0.03851075448068851 -0.21485937787917836
P 9.041343269923622 4.719874611058915 6.557878403941141 -0.9137376676211747 0.7801068948061854 -0.4047404885464642
P 8.547972271441584 1.3177936412481952 6.03636163972123 -0.05859749792823457 -0.8522402224373259 -1.1797378300402264
P 2.368397021387832 7.1992228157471265 8.607593170065085 5.022918191631717 1.303172121938188 1.2925316115052063
P 6.325261629325325 3.0186169734253503 8.368574548210951 -3.2542293303999568 1.9607880625962875 -4.084957646907435
P 4.6216476535771935 5.687950713938979 10.984031310775645 -0.9293177814476188 0.06928583088001616 1.0984470042795338
P 9.109011756248991 0.9885623836643517 10.411837568171796 0.021939994606200924 0.23206417179323904 -0.17383048496232642
Ni 5.883508296364725 5.639936859651582 4.336687830922318 -1.4788820833114145 0.6725931307932222 -0.4012077928028574
Ni 5.525640600282682 4.1530690282770415 1.9169448159368443 0.21212423833620242 -0.888411015930928 0.888752972651379
Ni 3.417900777074004 6.539559030168092 5.057541559092907 -0.9079670836859847 0.593677747243242 -2.2336646404201983
Ni 8.155877609177764 8.483380885477592 12.446390453596209 0.8401416394015789 0.7247672416936163 -0.4798269852686575
Ni 4.091979807589208 8.504264509551787 3.6758144584444725 0.22803679580140082 0.8761000597740589 1.3511450502730409
Ni 7.584109855542862 7.788612282262333 1.0605914815829096 0.1567151654382785 1.8751345889915254 1.0816098781175374
Ni 6.152269449549662 5.972309901388182 9.41735661759615 -0.15978583394380225 0.7583445634284295 0.7854769008688472
Ni 8.4123303609172 1.1147881822720953 0.6793498354585324 -1.3318651189975064 -1.3140162637415436 -1.4948121242781096
Ni 7.683806059143079 4.255352583532467 11.535166783068572 0.9687636461480672 0.9775663320413616 -0.6210975340170917
Ni 4.94924333529328 8.442971996948188 5.978287607765879 0.5548720872299541 0.01256446692857191 -0.2290482677850507
Ni 0.8699027405397718 7.76607460123713 1.4840531623953381 -0.8866043017394925 0.4403258418502417 0.8808851398675283
Ni 1.6206708741154001 5.991289973887472 7.084738049329061 0.9909646077251386 -0.28813478953456184 -0.05346531890799179
Ni 2.3734515976571173 6.675071573109714 11.762716044656827 1.5911783563146855 -0.9249209379315038 0.5094718047182839
Ni 1.2611860832488513 2.2628053522303877 3.101106364464257 -0.8419959190014984 3.382627908281729 -0.16886568475788336
Ni 7.458992921930208 2.467086005950841 9.767477967633328 3.4602543978169567 -1.6854193144781422 2.2737368258507358
Ni 8.3599364898992 4.827323629083135 8.84957246145611 -2.227325071355416 1.528938119427541 0.5371978098786426
Ni 8.952486221650412 0.42317429996786765 7.9147207259914305 -0.5297115288039265 -0.9186425611219599 1.9871858358635262
Ni 5.4956735237903755 6.35847213592827 1.383200967037741 0.13121110762990307 2.251567745952864 -0.6723113378867452
Ni 0.47208633490128704 5.92643985275796 2.831374030354455 0.3225837152410509 -1.053582796776992 -1.1452811910242535
Ni 3.343329606154202 7.720389363439422 1.713901470740079 -0.22732280045351175 -0.06743386527294193 -2.2046011473953384
Ni 7.412291224553668 5.712558276288352 0.2257140900213803 0.1558319915023768 -2.0242966246728944 -0.24606280006517622
Ni 7.007897401385975 3.5588559990331934 5.6888368818808885 -0.6816799235858388 -0.17684587474988253 0.18940159992770608
Ni 0.6859919367791216 8.053252153882186 10.889224277749612 0.5104704211861273 -0.613430247279821 -0.35198659388320025
Ni 4.4008449114299 6.636427628030828 7.125513787361007 -1.8674554751797128 3.182837508920531 2.9849019033798854
P 8.403006654416819 6.327996829646547 10.523874515113201 -0.8295037000717586 0.6340726061205209 0.15239905456142785
P 7.418269854985528 6.125342511252226 2.4936950696163502 -0.02558453333732368 -0.6658609542757113 -0.15877513329110074
P 2.923042051390219 2.19457319286585 12.450867496013885 -0.24138802029732617 -1.1205240386842317 0.5891556910031723
P 3.9903892929557143 5.971469012100239 2.7435325176059133 -0.509024175657904 -0.21493522542243626 1.4720779159053874
P 0.8685573176790626 3.9450736768230366 1.615227271043671 0.26838151816703454 0.5495396192734471 0.07460827153419408
P 1.1853859202928247 7.503994359647611 4.317279921345755 0.3705877539241553 -0.3796619483112816 0.7014877023403855
P 4.148855341295699 0.5814998920751415 1.7634280016916106 1.7254025397392994 -0.2306721765417189 0.11290279623901847
P 6.860501521913637 7.132644713333598 5.751455412207783 -0.881590650574985 -0.08059122859050637 -2.5999673938157546
