# total energy = -381170.9523178424 ev
CRYSTAL
PRIMVEC
9.20603655719581 0.00000000000000 0.00000000000000

0.00000000000000 9.20603655719581 0.00000000000000

0.00000000000000 0.00000000000000 13.47396506189136

PRIMCOORD
 96 1
Ni 4.978412868433089 3.2733444128807463 7.999520163197707 -0.5301259906335257 0.4520372167498989 0.9023623359046975
Ni 1.8833709729223715 9.149207761787672 6.602579594720868 -0.24176083025571268 -0.49267221666244176 -0.7466226470058109
Ni 3.3620445757710926 1.2549116766201003 8.870800643355157 0.9180990299136641 -0.7922324744251259 -1.6066245156664267
Ni 6.151768266584526 1.5381538054885266 1.7476942463374885 -0.23922006611172994 -0.026079213585555084 0.5635868413951325
Ni 7.515835919477675 2.9438879801504063 4.878895612507334 0.3342763210876308 0.3606398986828241 -0.00861988045852709
Ni 5.236163481884455 -0.19620825860736388 10.200667870183166 -0.7211530419797967 -0.11553380610396231 -0.23495023509178245
Ni 6.047703228565586 7.895097010354022 7.992998606851935 -0.2170874958787487 0.36985781773666626 0.19969346877201738
Ni 8.552196286599404 8.425631695066816 5.23075493536675 -0.11109891026106027 -1.268811385070131 1.6373124316685865
Ni 1.8022842023216272 8.274081920131591 1.5342808258800191 -0.14542390879517536 -0.5029419740195661 -0.3874732168255843
Ni 1.134045621758932 3.816785960943023 6.110012446260525 0.3998759613653113 0.4867123995345811 0.9921861388370655
Ni 7.217109237004521 0.4953087061675295 6.712042132013559 0.10507301578195452 0.1613457222317544 0.09856658212200443
Ni 5.880963493197663 4.810338257754411 6.3413868441750845 0.2710040433915462 0.14578566300996829 0.2523476046326235
Ni 5.178257511507675 7.341620882369537 13.499700807664764 0.6971723627944832 -0.2815738484875925 -0.10427854490511719
Ni 0.2379852528156038 4.317189287779313 3.6136363507197458 0.7670366918857886 -0.9637538516383014 0.5247161324718641
Ni 3.5586118698068656 4.64341440165397 6.411209108360403 -0.3028821230470655 -0.0649856608427655 -1.10205349068387
Ni 0.6890304142822433 7.346665790440519 11.012676204128555 0.8673917333667837 1.541610829799203 0.8810376062849923
Ni 6.563563490896729 3.79807008848261 13.207154137578563 -0.20148604189606587 -1.273068360574272 -0.1617812671072762
Ni 8.142214651502497 5.029718110549114 1.3168452880207029 0.28568607088375314 -1.5355396839044586 0.3714151349214571
Ni 1.8349748383801243 6.0011206832386375 12.410748194506715 -0.354313442244164 -0.3471657754557892 1.4062021391481847
Ni 3.034687119391453 3.836238316333505 2.4537300514750564 1.4260610828556408 1.5663129605315733 -0.5728654384835812
Ni 0.5295072910253457 3.643279788655077 8.740696330739919 -0.6831027720752946 2.04741778407139 0.10106775127730336
Ni 5.693574617677891 6.9178762225169415 3.72137459735241 0.4042463225188651 -1.1692785823801155 -0.08704212642217268
Ni 3.7355979239393937 6.661073830838041 2.6583461833328355 -1.1201206325982258 -0.09586846646455104 -0.6819097802084578
Ni 9.12631234869911 0.6512902671344516 1.8096886175798221 0.49852687567100595 1.3665878671906724 -0.30404734699976027
P 2.4008699097729203 7.116312341987769 6.020396282725904 -1.85836842527678 0.5085557206619177 0.9534113320617128
Ni 1.4929429596188337 4.571726994448248 10.849573773831514 0.005085642053023499 -0.6266367186677659 -1.7074829791464012
P 9.030413065167325 6.208937754031235 4.297237965203708 -0.12261848086488561 2.1963635899768947 0.5540555048659296
Ni 8.156898279920775 2.9048359727834265 2.528565002603166 -1.0232939159854635 -1.2384772528629637 -1.0314666816042428
P 5.3850527122348 1.1011800710045432 7.9995735582101375 1.6124889448670034 -0.1151954489279371 1.0663118143078862
P 7.537580577988002 4.223435010781359 8.74543836020591 -0.10605517718956574 -1.072602018191972 0.8838570780116586
P 2.6584824326748984 3.2603915193481336 7.983593719834936 -0.5145222226579977 -0.4263336413362077 -0.2905122886278029
Ni 2.0907001237737974 5.427538571263232 8.135283426526874 -0.2940424132682484 -0.01683841171357745 0.3664374792012076
Ni 4.146997288676684 7.038116266887552 5.302746141781126 2.8382716329814346 -0.6815989338362584 -0.3687792399605068
Ni 6.891326012887906 5.8689588214375155 12.37452980521318 1.2012967871579248 0.9062760691368069 1.2281419323752267
Ni 5.734256093527651 3.564733884163075 2.9389277676163825 0.18900950669560998 -0.3698634741636211 -0.042743047394481225
Ni 7.9264711831750185 1.9080615631529796 0.2246834504948709 1.3421433609950628 2.1494183315756077 0.0071324972797232
Ni 4.863613591708375 0.4437189975197649 12.798703466372542 1.5303262580243193 -0.9233147697866486 0.970415065708561
Ni 7.375913368800937 1.0284615876967234 11.669679737593027 -0.31819844168916167 -0.820790745678793 -0.4797097429645028
Ni 8.45886548728624 7.792302405389455 2.5883618929029018 0.7936386107440332 -0.7633469017390272 0.6761715921731
Ni 6.315994753953585 4.264530758279284 10.694838710223737 -0.2469508590970844 0.7881529050391136 -0.37189721676419824
Ni 3.090576967747166 8.011139102023229 12.59182449071212 -0.7366627075796216 0.08201047753553618 -0.44106914777416945
Ni 6.761520896463009 6.729401034675317 1.708997591984268 -1.2809181956359939 -1.0974188201253356 -1.842732518511736
Ni 0.284937880814913 0.49909422842809104 10.561378797258365 0.34322478853017013 1.476659878849115 1.1247576171496048
Ni 7.121053450850097 9.068130197223553 0.5507198406186966 -0.46940527571470125 -2.6132419994374736 -0.46663645472031245
Ni 2.424391333352042 1.0833387720235894 13.466487268725919 -0.2667738073602825 -0.3895493826283226 0.8991908801552513
Ni 8.417944654484208 3.179939965274575 10.742846350020372 0.27849238134879134 -0.5541341806226651 -0.6299033052341797
Ni 5.676322505040993 2.157370241018415 6.021285585863963 -0.20452457161207357 0.07383282682075026 -0.5945871464313889
Ni 4.740906329522031 1.4099597454731583 3.7515694768816314 0.30758929871474766 1.447875864737887 -0.45404190588475346
Ni 2.75320334351857 3.3802909403635852 12.61074197537464 -0.7902532392115681 0.5319609869597355 -0.4949679546751541
Ni 2.691173068733396 1.3641413011861574 2.498315807457852 -0.06569065732959008 -0.3078368959491795 -1.5029558364311664
Ni 3.6440070655485215 7.546556463698234 8.017278607849029 -2.6276473762295263 1.5020582643175615 0.1280548213891085
Ni 0.8781491040840177 1.592846869082875 7.991327711204337 0.3154584170501793 -1.1737484452260107 -0.6054310311244282
Ni 4.149685451371441 8.855986289216792 1.56847756953051 0.5191864609028864 0.5732693587902192 0.3262603927616897
Ni 8.69607743302527 5.801828402361604 10.072866907931722 -0.9914777999161312 -1.5410942951741007 -0.07178108649804413
Ni 7.650234848178886 6.173531337168103 7.955163637526896 -0.713811514013061 1.8137746978268052 1.2940794156083002
Ni 0.7495647081157122 9.033543117620123 3.7703654418606893 2.5653328344610205 1.270447120901341 -0.4724404629965993
P 4.771792582401856 2.3642851202216764 12.08788512520783 1.0530696045859993 1.7291450375008672 -0.5569130289193829
Ni 2.6518817044141434 2.8503270299215955 4.397175016399602 -0.5630674785565528 1.7890841370586608 -1.0783294075940524
P 2.866870277738301 8.337078828762484 10.092875307934408 0.7271190297552445 -0.5510853664940123 0.8577218143771873
Ni 8.271568672132727 5.059269488118186 6.264262351738119 0.90395873385754 -1.8254377359870302 -1.8243930967725999
P 6.942778551589946 8.115664441873461 11.879146530148981 -0.322893790282302 0.10974368178474647 0.9644976717828616
P 0.8357847647390466 2.0374339958564605 12.173027154942273 0.04643489442377164 -0.22251355199032646 0.2649246699666856
P 8.568932861185251 8.384388650982878 7.733180317574396 -0.9745198319055539 -0.1833029432291359 -1.5471651839585288
Ni 0.6080808136272248 6.73880039807034 6.827447165948256 -1.4840818823447988 0.3002570267193926 0.1868811474986975
Ni 6.763325279641682 7.090765590350954 5.719455548444224 0.25309245321844803 -1.0080387895986058 1.8354113022599745
Ni 7.845301558244642 8.323923402424102 9.749707404253483 -0.7980555088648063 -1.1993545758298894 0.737523255807704
Ni 3.097720852168848 9.144623155547983 4.275343248296379 -0.07464735230224565 -1.3340932369970766 0.9292483616622642
Ni 4.236654879376122 5.552620990899054 12.240153891603534 0.2994386445831553 -0.6341664513859079 -0.4531209367323809
Ni 0.42924342552923245 1.713132943636613 5.40516237864037 -0.4989007140706569 -0.8513452214268822 0.48734951889794775
Ni 1.818532856966304 2.2203487375760544 10.145249370902697 -1.7824257512018788 2.2983353411257066 0.22249735404041038
Ni 4.435330355799222 2.7654657843042414 0.6770855817601651 -0.2081259158100867 -1.2974174788425978 0.9477073396984
Ni -0.015803082471984274 3.958310361992664 12.759440640766828 0.04749341759527305 0.9366107155646063 0.8207953736644832
Ni 1.0900499727238553 8.423339391946971 8.881350761328415 1.303302219758149 -0.7070443704925565 -0.7819123234460404
Ni 2.1140006024738978 5.71890963047231 4.241334307793057 0.6027678824699684 -0.19229691919763012 1.820260305551149
Ni 1.355938722552499 5.707089079444681 2.0700859665611286 -0.41985908935545757 0.5792687709067637 -1.3526735711024254
Ni 5.92182908977994 6.809079281672301 10.530173094907623 -0.39677006874647797 -1.2286052451648906 -1.3474187504613893
Ni 9.125465393329529 6.807661552031916 0.347489217273112 0.23301136619785676 0.8740079531317206 -0.8646319112334593
Ni 7.099962420940208 5.184333495680756 4.239205872125153 0.11007483987192009 -0.3184419251585354 -1.3028227090185691
Ni 5.986593557443 1.9833761487892974 10.076275903294285 -2.6847469494559957 1.4824901123776468 0.661437371286719
Ni 4.960479509085876 4.955839666626433 1.0038639784360366 -0.2815072569157152 1.3099878593084409 0.6282621700863309
Ni 7.4503073507746675 0.7921812928642322 3.8631475613909503 1.831127073062324 1.193955516301505 -1.426281169286247
Ni 5.863352345132355 8.974412744372103 4.834054849310002 -1.5404605182448439 -0.7086186569582118 0.6897125640823283
Ni 4.045537559022869 3.4810878353803365 10.429010720236823 -0.9648308867525643 0.4435448630081716 -0.5610458201408337
Ni 0.08166951271916235 9.197962931758328 12.992486854932649 0.8653672467375871 -0.23899432325416903 -0.39382538429585723
Ni 3.27087719506501 1.8857369243352224 6.064739919945438 -0.10370287490730527 -0.15440425791691473 3.2203979836728087
Ni 8.012105735868946 2.706409059349226 7.210188138669184 -0.21871089041478464 1.71593008147249 -1.0136507364687446
Ni 1.3085092218559693 3.0391244290451267 1.203708621510623 -1.3533284310776048 -0.2843570676596845 -0.07037315040692396
Ni 4.37260042223048 9.194869703452031 6.563774309135461 -0.09465670554463698 -0.6029126355779487 -0.2302057784282616
P 0.9392642988285795 2.1684174849694697 3.375659383337105 -1.4964450318958422 -0.6413781386429986 -0.989612207462302
Ni 3.551440367275305 5.946243498911771 9.940444515294088 0.018574677678393815 0.4563607838259172 1.0265579314487159
P 4.796280639826694 5.928374581820941 8.182482776307756 2.157846407738303 -2.1783126460124547 -0.4305677340222133
Ni 7.719418213422368 1.4533477960909271 9.029281643266005 2.0083133618707603 -1.438670544089535 -0.3293233479577296
P 6.166912196834096 8.587878884561311 2.649587560086974 -0.005038333754855838 2.3406482429613042 -1.2896612319359466
P 4.48059643788867 4.936635874224849 3.959741900687988 -0.5204401308043295 0.38472033667079547 1.0176611431797185
P 2.9786960046328557 6.169112439587682 0.6932863650143873 0.9300122364114821 0.519343555306041 -0.3255494827375942
Ni 3.216607609155452 0.9811333534030783 11.266188358317365 0.07920643242783779 -0.8200793214340651 0.30926488664495766
