# total energy = -340866.57039618073 ev
CRYSTAL
PRIMVEC
9.24994756228507 0.00000000000000 0.00000000000000

0.00000000000000 9.24994756228507 0.00000000000000

0.00000000000000 0.00000000000000 13.53823325643077

PRIMCOORD
 96 1
Ni 8.55813490841115 7.495389911445952 13.469513065938505 -0.25823671642354884 0.015141740737444892 -0.008251698485830948
Ni 5.749064525761565 7.995229338046659 3.678040074176419 0.5917429921143744 0.900617842409765 -1.3825605884698449
Ni 1.4232709604936906 3.9975499193890753 12.854755988463094 1.9149432363480308 -1.7462986664620181 1.4328585653934485
Ni 7.786735515747495 0.20067206648123273 2.369353766438413 0.8121125011785046 -1.4696430812116497 1.1768417394393538
Ni 4.46468153074356 7.203535560018126 7.82065877412815 -0.039751054645692833 0.2775153621475027 -1.176368399347361
Ni 5.1256642971079645 -0.20378837387841944 10.122645171098736 -2.0024083092402356 1.9995932083889436 2.282282915648534
Ni 8.691722653825726 4.974594150444701 0.49238581870325043 -2.224403526833246 0.4712934938763496 -3.2998594695342462
Ni 2.146542875010826 3.8068437466143696 10.421312109044901 -0.4572434435411868 1.8280854580225225 -0.7750425929094006
Ni 6.223660844950807 8.62201504757699 12.116908931275292 0.32134572906889175 1.8646092639801697 0.8167435721926127
Ni 5.609168315981062 5.425529103287836 5.949105745806205 0.5823319832131197 0.49488053716767033 0.7386565980811988
Ni -0.06264989611500615 4.94852779768343 11.62537595775465 -0.5395097458412709 0.15422813735036664 -0.2157050137089253
Ni 3.191731471145332 5.4807697912545885 0.8226376282387112 -0.2583999814742905 -1.1648945943798066 -1.0859653268727556
Ni 7.652287525192111 4.082149941516322 2.215207087153291 -2.182778395093292 -0.3793433886295983 0.8894314867756423
Ni 4.276537593495778 5.113454366077135 12.19702735371736 -0.9196200945438807 0.486898290293142 -0.46520357892852787
Ni 6.0512418188790935 7.831422013330781 5.915680134614535 -0.5142982795726497 0.10647992343181016 0.5706031248119657
Ni 0.9689412768260754 5.979526973968472 1.542478737135139 1.5211610465852834 1.8036952021036166 1.5696721068117934
Ni 1.063864240643024 7.592875110789826 4.069511737904639 -0.39788541329784377 -1.033148183071724 -0.06382583620670942
Ni 0.0931987735562315 2.315641169840064 6.926255426266188 -0.18059094361461156 -0.5350689364610978 -1.168815783811084
Ni 1.3352577076464613 6.462549995558536 12.757307788910223 1.1931271068629385 0.7329076114125637 -0.3082809254651336
Ni 5.8437562408847485 6.9020150131908915 9.6966924771405 0.5283105346913417 -0.35358993381457815 0.3411578786988125
Ni 7.974888702943027 0.7678945874609422 0.11281328776143902 -0.055841789559968345 -0.3184671219695161 -0.7568294123354837
Ni 4.143588094475997 1.5812970678654261 7.629133055982738 -0.17510446657874357 -0.22168977053745048 0.24377554669289628
Ni 6.680728513152609 3.140801258830372 6.433544934396891 -0.7270074438780447 1.095927837402106 -0.05519927087996301
Ni 2.1202545235035406 8.061856711694436 1.6757760341903445 -0.3964895613915817 1.1812779208338366 -1.394573810880637
P 8.634631976308848 2.800107183279226 0.41227017124550774 -1.028230176944816 0.7634821417653108 1.9258688821215995
P 6.6567341486874785 0.8955642163046655 4.272950463758085 -0.6513445058270911 0.23954351088941972 -1.8841648175145937
P 4.0801334529066855 9.201071026714079 6.022280232471876 0.939029352308428 -0.5360199875204574 0.376085543813933
P 0.8720563990912185 0.1783121677836387 2.670700414247935 -1.519590873884686 0.9938164753516369 0.7863269075739683
P 3.8831373156615525 7.0816304986125935 1.9244460795495881 2.8242043562550907 0.45397737119540527 1.5386589462597309
P 3.5418419935066168 6.8695846963771885 10.873774228261665 0.17277504711461855 1.1504205691333478 1.3126286393653976
P 2.3347238120496105 1.857158259632417 6.197626867006663 0.35179967468337475 1.6591498392586523 -0.008035982930599064
P 4.71861109639381 2.0510279145378374 9.894025312483755 -0.8796409830477819 -0.4521140927344213 0.13974459902221095
Ni 0.502476586704411 9.251982739133538 11.425199688472851 -0.7735904338439065 0.937457636945934 -0.7158331724287801
Ni 2.0741990336531617 3.14798846823261 8.020171822156229 0.35261522860613465 1.3805895807864028 -0.7900488365102458
Ni 5.188119944320206 3.2280467660142986 0.45626384774227147 -2.0719440513475287 1.496330617805165 -0.17317331099430175
Ni 8.22413779503146 6.24843220502699 5.780310849263188 -0.47647349541539225 -0.19212568372708846 -1.7107199980264602
Ni 4.28921927186189 7.93076645217253 -0.14665792158621327 -1.4081430649246394 -0.8241005267783162 -0.08056937421363543
Ni 6.069556715425338 8.899846478214865 8.288743130100949 1.1618015572767797 0.03241286911306676 -2.2521159051468507
Ni 3.869586142206882 5.363841201738895 9.465256009435452 -1.137848388895292 0.23294066086092144 -0.24571827224156395
Ni 8.390562854960766 4.540253603866194 7.493155124069401 -0.35061233924349294 0.49105550699462525 1.2861493621279463
Ni 0.6049225330269457 3.7278584427717534 2.137023753780655 2.0371796512831497 -1.855118807991231 -0.3881288481317122
Ni 3.221090805305826 1.0755469246520677 0.7900833621251496 2.9339562655699534 -1.198336161867704 -0.34308903428325427
Ni 9.025303519556637 5.48211103367843 3.5356991032054244 -0.5846102377243351 0.2935451619168557 1.1079953100896014
Ni 3.011431489590083 8.366633240129891 9.302444904092317 -0.3857392648536131 -1.4394449603617145 0.4555483152269509
Ni 6.276885044307923 1.9427202763257294 12.219596301234118 -0.5515661627851728 0.35188015021232305 -0.5596725939423909
Ni 3.7684287136060095 2.689653557188973 12.131340699755823 -0.19087535625975513 -0.3558039107467614 -0.5952098676170523
Ni 5.776990118020712 5.822916108602582 1.1293066959839448 -0.25425176363387175 -0.6109954125860833 1.0227946077515415
Ni 4.190485329571683 3.6295592480258256 5.889266908812615 -2.6087471968909135 -0.12691325158549757 1.2508326891045234
Ni 1.1451342815800452 1.5900105186465179 0.733223933302037 -2.354798052099125 -0.2863869536055197 0.13264784007642963
Ni 8.186768006118921 8.78777411126825 4.953422870033063 -0.8286104988335278 -0.27247779972359526 -0.5673100558829908
Ni 3.198169434779769 3.908028925058493 2.782188184496709 -0.20863576556696972 -0.12563798441749977 1.6417565834828693
Ni 6.466601472673312 5.737270842379514 3.6712034377939298 -0.1572916067670388 -0.5926732172381276 0.23923009341405896
Ni 7.748468481903146 5.3723789035127245 10.077549825824873 -0.31292485199504816 0.342924483680932 -2.2262745186037147
Ni 1.235395271730677 6.847717819894703 7.883205070828349 -0.26557361640459426 0.4651246460614764 1.251424042831619
Ni 0.6606747431043082 6.960641182034374 10.372750808348878 0.26177326882189755 -1.5570433623041895 0.6816914935500646
Ni 8.589103733480254 1.9959999753693491 3.7473425327136773 -0.35818372383284763 0.5289306847738439 0.2247272718121936
P 8.011166998020991 0.6607570676392888 7.781858018298589 0.28218731370187533 -0.7976816704651554 -0.21737057433680626
P 1.7808184408464807 2.077103517246859 11.47221809788407 -1.0737546437391767 -1.6136819367338402 0.6044750949690623
P 6.372150256191644 5.49978768382988 8.144858342850375 1.1491864396159304 0.7281942650972942 -0.35838426987942795
P 7.782304790774945 7.127325240500698 2.4669101903799655 -0.04339353649428656 -0.19814720733082003 -0.496689308241635
P 5.279167180029643 4.005560374141119 2.7580088210765665 2.5295644186121593 1.067563170216484 -1.1627824331328103
P 3.4370030857009946 5.517667832831846 7.048099438016566 -0.5044442695967055 -0.7552247868525253 -0.4192852191298585
P 7.8508469036071 7.732836070204584 10.84183693366307 0.5687552729699495 -0.5548921418346121 -0.17260818251945112
P 8.371655961758481 3.8485887608129556 5.475592595498561 1.5863313126350294 0.7824028899292138 -2.3303599736614187
Ni 2.668239928146268 1.3021521446469624 3.317977533030233 0.532028092752245 2.9239420758670613 -1.8795720559375886
Ni 6.315984573449829 6.428362188672213 11.905996247639338 0.6763543976078674 -0.2770937012290518 0.34895937702110225
Ni 1.9344970727754207 0.17683865110696362 7.705434949982896 -0.7108755713131886 -0.13277382413133262 -3.611804474114528
Ni 3.9904922092553456 6.485397366502588 4.141521656148506 0.08836367344707362 -2.342652417875527 -0.17477510826378287
Ni 2.6585552328513598 7.579351687178406 6.0633278006100655 0.11621951931707726 -0.537518683553171 0.41632227984679265
Ni 5.703036785754438 3.944723467785236 10.429341063692446 -0.022395336976064658 0.007372895425303431 1.0075919318691744
Ni 6.4505158135349685 2.110431078992373 1.8430548642970337 1.9070772033363932 -0.20996579723230288 0.6941502881387077
Ni 6.320369048683626 8.060663468434605 0.9314965633367566 1.0635139398477749 0.5915673857684586 1.0830682078306186
Ni 2.3301820877040518 1.4383853751182174 9.473013015619129 1.2514852350868577 0.11183655975803321 2.0882502447067193
Ni 4.887533642215787 0.7779252308017236 2.607653695374427 -0.2954212958936461 -1.3250290699122793 0.21663215350888496
Ni 7.521780012378495 0.6122151918335411 10.581415754681428 -0.17571227536607156 -0.10770556830879516 -0.36484313813089425
Ni 6.619604858416455 1.9881097699380632 8.68771465146538 -0.30576870056624117 1.3789710713463734 0.3149791634209156
Ni 5.029233591807663 3.933031533828442 8.12882910839331 -0.7590153642432088 -1.5793901054305057 -0.7839026144031919
Ni 6.123437661072748 1.026374202409727 6.308478240850195 -0.21434927101197923 -1.233240687054373 0.07121904334698702
Ni 1.1609701921291211 0.6805501058360834 4.79853249494879 -1.1326768719966818 -0.49431386603092287 2.12296939335546
Ni 1.259842883635588 5.528675270655093 6.040041982142633 0.5597476701547005 -1.4694677319760499 -0.9809848708046073
Ni 3.264880057957301 8.565655115932412 4.0188516240639975 1.045864859307444 0.5957402861992256 -0.5253074861989598
Ni 7.691683052662038 7.308531716935509 7.667635963494729 0.4482947189883311 0.3240147912606226 1.4540434270011797
Ni 9.142574357139106 1.8694699400885033 9.311989925176189 0.6519553999382126 0.763346387518395 -0.09941993126123523
Ni 2.92056925283566 8.988858725419162 11.559606979258133 0.03714395604014893 0.005940276743834931 0.8489978042406282
Ni 5.237681164368075 2.6373081028681664 4.291023936668037 0.9559551815294891 -1.589288338380824 -0.5679569454383703
Ni 9.495903861317608 8.714801273463545 9.090517501188119 -1.3176083519681758 0.9517622264940642 -0.8184767528336356
Ni 1.3311507308451824 3.4380853295878175 4.407330929694889 -0.5110247510277006 -1.3753756406856312 1.681919271744684
Ni 8.704015834386311 2.4287217810914963 11.881925108607879 2.8031717039545074 -1.1770427997065664 0.9425859593114347
P 5.326286413871344 0.68366456324372 0.2506994838957314 0.39115966453823603 0.38357773842592 0.17663890094539902
P 6.33204248274492 4.706280916042223 12.96457784312198 0.5753786918237381 -1.7578177228452114 -0.05952977993451683
P 1.9842432917783006 5.349466782934418 3.874372065173057 -0.32028746300770644 1.8417791534595316 -0.04840461655563277
P 1.2312697950338969 8.723375975028377 13.246254477039791 0.7323311700838033 -0.7911541537592826 1.529897655127333
P 2.7609614043985675 3.1870972473222667 0.9131048922241821 -0.4996532759659653 -0.4123956910988769 -1.5260106613681008
P 0.8042468821209119 4.8553068242525965 8.76042849073307 0.8591729450014172 0.4355790711938757 1.3200984653798813
P 7.7198213937194495 3.1286468274860457 10.336901710846542 -1.711605228844891 1.3676139944623413 -1.6375924248028506
P 0.41314336631316706 8.184594268397523 6.291149388734167 0.9753294722910428 -1.108748386205542 0.573673021986541
