# total energy = -381166.48222150037 ev
CRYSTAL
PRIMVEC
9.19797672742910 0.00000000000000 0.00000000000000

0.00000000000000 9.19797672742910 0.00000000000000

0.00000000000000 0.00000000000000 13.46216868633663

PRIMCOORD
 96 1
Ni 1.985383276699686 5.830413488229775 10.21611640838149 -1.3346686498845723 1.265364564172111 -1.598747941131827
Ni 5.523366629101728 1.9516450980620468 9.511520117909697 0.19407329437176254 0.025459577723685185 -0.6131780220596988
Ni 2.9533783475353355 8.542823241449714 3.1190900160613917 1.497138715528757 -0.9628891896451611 -0.5838090819792784
Ni 1.8884457999652038 3.0899958958736278 3.1458800430788365 -0.018709660594361327 0.69563047222866 -0.8382091982655564
Ni 2.9868313888944122 5.402854738013847 6.067965034190787 3.684716846003538 1.3859611295109613 -1.1467274365524767
Ni 2.052445725022213 8.284323303491094 9.256398596803203 0.04814390669507838 -0.14738334651439133 0.08445533953160293
Ni 3.5924997604678244 2.144039177277832 1.3672314111112784 0.12303859912143973 -0.7189151537882135 0.8901087153483251
Ni 8.999024491196069 5.623164676598562 3.7043315209176635 -0.17016717717812627 0.9051630385782863 -0.7696229645557262
Ni 5.5967756813664495 0.5436390561163474 11.85066677753802 0.28502298337845755 0.40803432880638757 -0.43037053040974266
Ni 7.80011421460853 4.012157448674556 5.085764608096694 0.26374479072597157 -0.4910927879904639 -0.2109489870811786
Ni 7.784578831915244 1.1822067508498213 8.24757094787975 -1.0813224287841054 0.09292609600677544 -2.9690621081341515
Ni 8.700540948401622 1.1844418591946813 1.1452943504434117 -0.05346223358419825 0.03249154486980211 1.1016585692382963
Ni 8.536439845600608 6.154357030606825 8.584273003775957 0.18021504833243157 -0.792192622326126 0.7230484592302967
Ni 1.3130663657564992 8.931180214851679 12.923183976717912 1.5211597610337029 -0.15162643806146145 0.08331942615494682
Ni 2.0057659931285325 2.385476868406348 6.305679384339881 0.9752371696875527 1.7444369306629313 0.27699934174303265
Ni 2.2318982509819576 4.236072994136578 11.884994546483913 -3.0515790929924607 -1.686607678359289 -0.6729330306311444
Ni 0.7201031594372237 1.5526000757023564 8.493981985024996 1.863444554248107 0.3639522508855087 0.8075585632592349
Ni 2.212536509969899 6.315110069878914 3.2367091434683744 0.037619353014670696 -1.441627055614698 0.9271716816388935
Ni 0.5766266798529966 4.885312181469666 1.3428908052964517 -1.328557651890828 0.7495580754850509 1.6177982728950588
Ni 8.753291344935663 8.076862938395141 4.511549637741731 -0.4646284231513482 -0.04209127274309525 -1.0874689080014757
Ni 1.7184028041980177 0.5207462118384791 1.6606928586123373 -0.03986958250142811 1.3492149231298636 0.21057771978468898
Ni 8.616407055272264 7.947143872602713 0.3281847294462472 0.056820094312837625 -0.1596775905007121 -0.3252514918812011
Ni 3.3977142073028057 8.08353147152281 5.311229092839679 -0.6810651728199755 -0.9827180514456303 -0.5408554612358879
Ni 5.888691868777235 5.004996254652045 11.644829855334526 -0.30947134622880895 2.264656975036655 0.7682026871694319
P -0.05292055910350541 8.129144238116064 2.3310551995008626 1.036503472697202 0.6263891214333341 1.4285059448517075
Ni 0.11963624370339346 4.0021040601110505 7.696483370209213 0.7891247820340797 -0.2325285130241673 -0.7741738171512021
P 7.443812190103014 6.112837363657451 13.288601196160696 0.0562415961015483 -0.9896322620669601 1.038127124343554
Ni 8.008954276213656 8.328731135133003 9.127498150939552 1.43592074925854 -0.6770036011560921 0.0532100083640761
P 7.128965446709777 6.332531037801403 4.939216004285376 -1.171941216813943 -0.8576068860658779 -1.1325907400407784
P 3.2496635738918345 3.767767207016411 4.7509876887296185 0.925415103959103 -1.9140461784550584 -0.4247940647632297
P 2.4445002850687607 2.2822755695202206 10.51014353145131 -0.36260730682184006 -0.3657674497173765 -1.0249841592036928
Ni 2.3427430685289017 3.8746384986169375 8.622855756756138 0.26730859681783 -0.33212430774163443 -1.0473262743443188
Ni 5.551769981237232 7.330723066234481 6.79925661251973 -0.7668333176257309 -0.2864849126359647 -1.6063018422196853
Ni 1.2965284035998812 4.589505249903014 5.140205592753308 -2.672162427922766 -1.952546905633418 -1.4647178759958903
Ni 4.012516169766942 5.892803364374569 7.986122138582191 0.9691644811309115 -0.4087907473564379 1.958515464512027
Ni 5.415980250804443 8.485988943248522 4.378126546721011 2.0031580429220663 -0.5022485474969672 0.9223657756098179
Ni 3.7536483127392093 5.3320119212561865 12.606998007913104 2.505241525596079 2.816857943192349 1.9069920998217544
Ni 5.854870908349045 4.842090888825646 0.7549542932589292 0.5590120775402566 0.4006766028897358 -1.4174838827095912
Ni 0.828122358533382 6.195950281370022 12.981286675909871 0.008717325268339824 -0.386306964431625 -0.4538652710975732
Ni 7.8611611861510635 1.255726178835277 10.380463097161138 -1.0341581123934769 0.33744134907917367 2.3763708931738945
Ni 7.0237129990133464 7.226040893095176 1.919260861598742 -0.2936948001208426 -0.6537163484933773 0.41854602697098886
Ni 5.11191353613621 6.275393206368193 3.733773324625739 0.1384598187725164 0.21287371490771725 0.36889442538213246
Ni 0.200143374608973 7.142808401685143 10.763838446367316 -0.707303280580898 0.5270416952812471 0.21631179405498874
Ni 9.39646906560512 2.4393586160779104 12.372433044995615 -1.8056492405061935 -0.05609889987609693 -0.9149890235297726
Ni 6.695759138782967 2.9925433324423882 7.180087801362993 -0.7800282190494502 -0.9520211365824055 -0.9690197280229311
Ni 7.7334472792853 3.3962333330496266 9.223806486065852 0.025818246614684567 0.29976183225052894 0.9343239764129586
Ni 6.327407764764008 5.224653136889085 7.541076195011334 0.6361122622583689 0.013473351896086472 -0.3931926358078648
Ni 8.387322246889209 5.124974663089714 11.573170258243437 0.5748454450280874 0.36330844665392265 -2.3921104153963384
Ni 0.7908006481625844 0.5748514703445277 6.281219204827593 -1.0182959485502399 0.1474298834816106 -1.9078449347403528
Ni 4.462223647943458 7.254140711998662 11.253269226638263 0.0862096032185483 -0.1278676450789669 -0.5307212010153634
Ni 4.313050861371693 3.4766420456042186 7.141088380037041 -0.1575456317593738 -0.07309003511745477 -0.24517062726821004
Ni 4.825083829855909 3.9248042636904614 2.498430782016981 -1.9063416107219495 -1.6997776400823434 1.0771644407516738
Ni 5.45424383399217 4.224897452412277 4.819470304658921 -0.6797713937092165 -0.9298276312045018 1.1552812396597587
Ni 3.3115843532235107 0.12871740612676894 11.215453584917183 -1.289073734863593 0.7342340435334711 -0.1515017395581391
Ni 5.2033506227874575 7.310754258758387 0.037283998666213465 -0.7076766047599167 -0.724750529523068 1.3060108769385637
Ni 2.870973674030807 1.297954089992693 4.148353729678715 -1.8545405668902577 0.8074701173104867 1.7382038052690256
P 5.036637294595741 8.168686340068957 2.3111581362432445 -0.6880919977597699 -0.13281830421602286 -1.4014011182151154
Ni 6.709041017177937 2.3835544912702336 2.0714781784674154 -0.8141130765483011 0.3602056393588829 -0.8560603675143643
P 0.9125321909645749 2.8466542235624543 0.9358683777207241 0.25203238738504985 -0.5027224018095923 0.762880246515254
Ni 3.227146926862134 1.3898418775036026 8.468566135730688 0.1662830116323717 0.022519521258754765 0.03413345134859928
P 2.3476271941713733 7.130611884544056 11.890850898266516 0.9443456223150186 1.4338723513699434 -0.26941587296881986
P 8.106416037621624 0.6797120842323531 12.698608016526833 -0.6510007493344272 -0.6473438693081303 -2.382977342746819
P 3.7585784282653205 8.888004912091297 7.076604124591323 -1.8310885065149045 1.7473690167080616 -0.19043338362633008
Ni 3.8328704862959126 4.739754199751934 10.21813628407092 3.1121036327400793 -1.2560137190848304 -0.12862792028375913
Ni 7.403497458104984 0.25873080717448754 3.2974507421835444 -0.47967657573372235 0.5895279867409267 -1.5027858865122055
Ni 3.855285955581607 0.09732563135239619 13.632061005558834 -0.12143371652816506 0.11044019363113884 0.43506819299572813
Ni 7.739481152018748 3.9296240034958387 13.251499317433694 0.33025280175053445 -1.3304016470781024 2.5005016969182483
Ni 5.606571526581576 2.479875703563952 13.566500586835959 -0.5121177269815632 0.11606808134087754 -0.49561484423053354
Ni 4.524190417158773 8.061207982004394 8.712352070317815 -0.9615565868766666 -0.16694095693134475 3.8192392773948614
Ni 1.3268541328714996 7.125902520459412 5.3328765310686 1.5830145895569705 -0.32389806317710024 0.1982222835431296
Ni 8.69819546433603 2.9624843444958757 2.8099588954068206 0.960108284465914 1.2345419223642997 0.390919780613288
Ni 0.6961681843960935 3.6151727731018974 10.23958136681183 -0.9131293446132145 -0.5437214699297733 -0.24193078017467365
Ni 6.44749654892241 0.23479675193103028 0.6075962674955625 -0.41634927642998615 -0.07844255767861974 0.9777735629561612
Ni 2.3781644769077315 2.1475987942714982 12.74257526508348 0.819731194066027 -1.9643611246595267 1.2696212825659359
Ni 4.7644323713126715 1.222070781988188 5.573055019183078 -0.3273212299260363 1.146974005345644 0.8006081000833308
Ni 6.622993944889193 2.981432176555183 11.446720153380076 1.091607355649881 -1.5997560706813676 -0.3408961403969935
Ni 5.6482383611585965 0.4571274860028477 7.515457990229012 1.44419507345219 1.2820042296113212 1.122230736962693
Ni 2.1364600444541098 7.426050897041596 1.2647181208843925 -0.600653921450759 -0.7598648567276978 -1.3993110684553063
Ni 7.258509750944376 0.6458552516949249 5.784639757043784 0.473825516269584 1.0845658754220677 -0.5517304562771789
Ni 6.851269331320199 4.8426335694525875 2.8650051069321254 1.5409508276177009 -0.08957440592572316 0.5854450749208046
Ni 6.173406040410138 6.679193582696165 9.53661403801853 0.685558946925271 -0.8927803486432172 0.21572532542389944
Ni 0.4884981054307465 1.0281314426821289 3.8527785871256035 0.12275783465622729 -0.03565271620660312 -0.05273898226492853
Ni 4.318983556361135 2.5430658036840668 11.550554273065076 -0.16128530130746416 0.8412724105719124 -0.38916757380887174
Ni 2.667376459160538 4.132209440926047 0.8351891640533652 1.031232968326882 0.6924366478817107 0.231952071695407
Ni 4.140524411887996 5.910730221017088 1.6666706236877464 -1.918620428089302 1.689492970326884 -0.030955053620617658
Ni 8.881391566823996 5.899711044897162 6.2514269582061885 0.7479105125792991 -2.637325779859555 0.21067233638102428
Ni 4.831651185239571 1.2112999512399123 3.2716035077807004 -0.4323428236447651 -0.48652470900380723 -3.814489678525018
Ni 6.894233080615841 7.754473854085093 12.167188472493393 0.956206892528979 0.8621806214794893 -2.9775338930505884
P 5.971694410769072 4.467061783702291 9.562501743518977 -1.0235646531483467 -0.38826125994451843 -0.33713950156803874
Ni 7.767838514270614 7.6481820350184195 6.488132290308241 -2.4160833812721676 2.3866000271010703 2.0196624683349924
P 6.434665371387103 2.049787509747873 4.1137693371821165 1.6748060577386703 1.8556003756133397 2.5339293804490746
Ni 0.5671858765395635 8.001522311017577 7.441617552855757 1.0880386644620166 -1.6375554009173279 1.766634292695577
P 1.9002008142233562 6.007888449193038 7.630249659589864 -2.9678220650794627 0.819225458074202 2.339758384157183
P 8.615937958459146 2.4318898589749214 6.3256978608903065 1.4341613433652722 -1.1795660803490524 0.3445003128084841
P 6.219892614792534 8.828264053244114 9.990020022637303 -1.533996507787055 0.9525482127304693 0.4780845486562541
Ni 0.5122325645792101 0.22232245589276242 10.927404226922773 1.3046209385695724 0.5553307720339274 -1.4261022205062215
