# total energy = -340858.3273677229 ev
CRYSTAL
PRIMVEC
9.34911953984110 0.00000000000000 0.00000000000000
0.00000000000000 9.34911953984110 0.00000000000000
0.00000000000000 0.00000000000000 13.68338147004669
PRIMCOORD
 96 1
Ni 1.9117546526406213 7.505042885423719 2.4533622203545606 1.6241221582305576 -1.045250622762213 0.8783289491045777
Ni 1.3273038109887847 8.714416906020011 0.5152739034838353 -0.41869386540276277 0.30584711921266033 -0.45372154643085727
Ni 3.460959809353665 0.7655171042560444 11.918471332214144 -1.5312585400306016 -1.39795069777267 -1.3799133806549848
Ni 9.130032002888433 2.7814097265513267 3.719964069787901 -0.031204450627262393 -1.1543594991764377 -0.7871766571687734
Ni 5.953575241848856 9.497957242392644 12.298636438658413 -0.8287308264614759 -1.9665190515427937 0.8130496682807933
Ni 0.30024135568262694 7.032790824055719 10.34853543844574 -1.6702210094711496 -1.6311250719109522 1.1487979459282602
Ni 4.170296186130197 9.160594273761513 1.7008170190769196 0.2306642061219189 -0.37425748946625864 0.8151188921049962
Ni 0.5182974086537204 2.494821824641428 10.873950331594926 -0.07371069942058918 0.1504828113753215 -1.227059240834009
Ni 8.25711408635469 8.09655231211966 1.0684809234682648 -0.4837648868704829 1.7562802031547624 1.349027489709406
Ni 2.760654681785881 6.05303117257625 7.97824575222084 0.21313108233416198 0.9327571461464711 3.225441202523671
Ni 8.676188357350684 6.449321639926572 2.918651057694947 0.5630839336167851 -0.08768027422680383 -0.7384971896851991
Ni 5.19798877207473 1.260953111574204 10.290149253731919 3.2102038167486264 0.1539777119024574 -0.49529088523221154
Ni 4.676018094462296 3.3173386392244857 4.591773180776966 -0.9820166545032312 -0.2805055551240782 -1.431016112868071
Ni 6.621859635938419 8.829289534413268 3.0077575133974084 0.30207325399252494 -0.5750457339643515 -0.9728391017690212
Ni 5.442711317921715 9.143663018774927 7.715237264005955 -0.858155045259864 0.19420724884646554 0.664374856648488
Ni 2.449880608340753 3.313281121464034 12.894041643351542 0.819871319188317 0.6266218062694305 -0.7736325999357516
Ni 0.8175645861090683 9.255272804545148 6.3751691004864215 -1.8816963013694432 -0.8844525455038124 0.4425873841909087
Ni 2.1803081034908147 4.116968809849971 9.981930294581565 0.5683791205774533 -0.3025291105830209 -1.37521700362058
Ni 5.765022204538266 7.903913709690826 10.163809930561715 1.1453902057982919 -0.12496461249955897 0.7674313562210461
Ni 9.256478840930168 8.603246528855186 8.656188721421746 -0.714153470733512 0.43674223826404135 -0.18789904724025058
Ni 8.174402428228609 8.551601994042427 12.523564094288338 2.537679077299494 3.752756720291595 1.201601462882537
Ni 2.0889765574035897 9.196494891734176 4.58475386203377 1.354048597073081 -0.5595103573329139 -1.4049312428555611
Ni 5.322266614447284 6.903118539868001 2.6706264029240177 0.07264934803561036 -0.8457713268835304 0.11275135826281872
Ni 1.55581498403249 5.447872031755286 0.5099617339181928 0.48123003626377125 0.5369414708934624 -0.24922140029881593
P 0.9969713800439668 1.8831089512166004 12.826226871860266 -2.5360896213251873 -1.5115353505700613 -0.4785509467697113
P 8.402156322611955 0.8571609109266776 2.3930865786375417 -1.6891088475145877 1.6525724431514506 0.1800363566627222
P 6.036361692929047 4.391963803872864 8.103791335165553 -0.27452594050187556 -0.9106986236845348 -1.157694991307574
P 6.141773012627425 2.769985102811068 12.115320777959356 0.007847521068876807 0.8861823837107253 0.024030301476326357
P 0.32590842770922823 7.249924118955483 4.917738638113702 0.494360145887826 0.17814659583917705 0.052965496453437816
P 7.773727223943605 8.44242297928077 10.445893426810356 0.9626253944608131 0.30603609529501485 -0.5285303640116317
P 2.6943974735639373 2.302912453515164 4.003483590755448 -0.017255958866970282 0.33913210651803527 -0.4385497237864253
P 2.713413582146332 1.044221828802779 0.29599311588919514 0.74005450686999 -0.20363882657301058 1.4127193714414121
Ni 7.392993691048104 0.7026592357983875 4.702951037237203 3.835839090735071 0.566084925226638 0.7190830468246455
Ni 1.487444874856947 4.3939084206797165 4.629895149486687 2.9563968539616567 -1.9236793306694486 -1.2200450142997052
Ni 7.854980419464546 4.713049955865868 4.152563711622711 -1.738042082880181 -0.5730114771431422 0.456814069313252
Ni 5.124401854350035 6.7463057624577205 8.226325566795426 0.27851474994629455 -1.0311478648122434 -0.43375230239778206
Ni 4.7233339870559545 1.6771759011947653 13.482550002763832 -0.12210091779851874 2.3013959823289007 0.9177285339481226
Ni 3.6276452567064275 6.173475876050681 4.256831634035136 -0.07154660188973484 -0.5771825778016962 -0.2520601552991917
Ni 7.630040609979579 1.3835948580756086 11.595776196795855 1.9650270403782994 1.1166154476584447 -0.5083328060178343
Ni 7.485736954144149 7.382803151050655 5.012975311317382 0.8336562887875513 0.5765709123596263 -0.4427730178391536
Ni 1.606234784221701 0.9698963306562502 2.5833261970633057 1.026755906392135 0.6428927755153121 -0.7690310966079982
Ni 2.161254598431365 6.521319207376435 5.979623757941418 -2.2736028713760326 1.476215849333161 -1.5545211101029681
Ni 1.8059880664102212 2.9438039281620445 1.4400523194853265 0.7326535864202286 0.42355787836328346 0.336104375435305
Ni 7.419816314215699 5.626589795600449 6.607581660998875 -2.401430150135367 -0.22316198420760278 0.798239085630522
Ni 6.406586815772133 0.97782438379188 1.1204676360460748 0.7753128158516518 -0.9240681030129052 -0.6614779947166672
Ni 3.365206129854703 8.73784579889488 6.490109977450304 0.0874020808647527 -0.27430328296810824 0.5321941860164641
Ni 5.250147508446992 0.6641735863493076 4.595591361084267 -1.8953506589280842 -0.251292938115864 -1.437780171064782
Ni 8.288284049979913 4.166687426094404 11.94037818847288 -3.112023671431763 0.05126111216782139 -1.2953284575240531
Ni 2.360325394913634 5.0071545496637935 2.7416703602089827 0.5322983156944961 0.411416100794427 -1.4853671768151258
Ni 4.231991024151449 7.750130046921989 11.989118886842329 0.48864406933965526 -0.3469148357872477 0.18740153877854177
Ni -0.1836494242567721 3.622727619973714 0.1324442980494088 1.0277028436864364 0.43018721075434296 2.0321014654292937
Ni 6.607910749996957 3.809738052605791 0.6763508141902955 0.11906135964124658 -2.5210946905782516 -2.4274211748824905
Ni 4.088958848535883 2.9935318935257405 11.226064340600345 0.14586665275954877 2.441993930490343 0.4113757344747947
Ni 2.473898495729235 6.549936861442665 11.080145156956146 0.7490019458712649 0.8242967019495223 -0.4006367507907358
Ni 4.084340383619608 3.143407624442345 8.31740188192675 0.08596869085233583 -0.21284234744914954 -0.48733049273455437
Ni 1.203886087588492 9.040794659516278 10.999810044946901 0.4111888152749692 1.1797342304958005 0.8171014697526637
P 5.998338824883521 8.104545809090137 0.8453090324360668 -0.05043501672210023 0.8374833758431253 -0.4644723571894582
P 0.31716513137380253 4.306251078463131 2.3502161922537796 0.10127703907463204 1.3432311947426028 -0.8180602341215073
P 9.384832899301701 1.4799842776845031 8.737591502850908 -1.749169303141594 1.365241380465107 0.2577420361753174
P 6.931979271035086 5.121251201158163 2.1198838107775027 -0.07001319596434394 1.5322309312462001 1.8691068947402065
P 4.499394533332205 1.2432365305694657 6.404999335321155 -0.3003110198857796 1.7379497802766906 1.7559408175374727
P 4.396124161945217 5.942674168787366 10.275753479889651 0.4974763229193046 0.403874283891427 0.33788589281576
P 2.033358646903753 7.890918433914264 9.211350642244218 -0.852478563700377 -0.9243545239050726 -0.6473101878567175
P 3.210665188425505 1.655158725328718 9.74604266643879 -0.7017075316606755 1.147157839221676 0.3380566140656694
Ni 5.263367163085884 7.203197220875439 5.729491811688447 -0.5532538349002407 1.6563756189476246 0.8102291681128628
Ni 3.9132888975706908 8.922434809637656 9.56577762335548 -2.66006975842429 -0.9022029275086978 -0.6665353546349165
Ni 0.1655233518282828 6.234394737173043 8.038247464743431 0.12608947013262153 -0.9512086679834393 -0.10444746638281367
Ni 1.0890602047915527 4.952181728393153 11.783922547418474 -1.4026612158744616 0.4518307571660476 0.7111244540992011
Ni 3.4032102996617017 7.474891975798241 0.47614783936519084 -0.18452704544422413 -1.8866271630121574 -0.7642861257238449
Ni 6.500713748519209 2.636255300862898 5.778491480661499 0.3435286929238342 -0.07803863737198173 0.5120189966201698
Ni 8.072440933538541 3.2814473703710867 7.629730219220025 1.2635617066354174 -0.6684225443553005 -1.935077802314377
Ni 5.812282002416342 5.211797421227235 12.070028034774365 -1.8645473003939823 -2.1228266971300083 -0.9771464708951236
Ni 8.616793402668307 1.381154737947779 0.32693309118053127 -0.12431926560607622 -0.8104402556824042 -0.6060007875849692
Ni 1.9236280341055383 0.7118185679410485 8.334423823370196 1.1435554665823984 -0.8142079502549526 0.5141758950621726
Ni 3.521242930366095 4.656609322870825 6.2882662321944185 0.20632434382497372 -0.9768109419325759 -0.11807534157889342
Ni 7.577442465001924 0.3850378674045158 7.16783417726044 1.8211527354584311 0.8952429512510969 -2.9238464308294616
Ni 4.599383363857629 4.468252617064772 2.011635033382587 -0.3721340153653527 -0.5012239628871948 0.3742664883273232
Ni 7.230945406850143 3.399872664084556 9.66379191989241 -0.6503330338434412 -2.263461926287289 2.2633403131077605
Ni 5.571560879614226 6.008585459596551 0.5027040126337713 0.07807386148529134 0.9358144449155561 -0.5272635814840662
Ni 4.4718333297427755 1.9736084256893551 2.254788797017121 -1.1402965933254685 1.4863459957886274 0.9161766160799706
Ni 6.711947749163571 5.5785633699427475 9.779922939738563 -0.678087064028258 1.9601877100081273 0.31963671679758493
Ni 7.2941735004306425 0.8633603119104466 9.248391852767055 0.08952864028945227 0.442849893823676 1.45459595707054
Ni 6.692473533737254 2.420047568770241 2.8805019765393607 0.4719856348473678 0.7621194570898294 1.0590011395790857
Ni 7.322099319671358 6.799418108994882 11.898342678439366 -0.6313300103783772 -2.5228561533540486 -1.5495771358341313
Ni 0.1826546779671129 8.716043652771898 3.140254166514694 -1.4796346452067228 -1.7052204083644695 1.4681855228295166
Ni 2.2664228410288874 1.8316607479083808 6.228415040491972 0.6001402150391342 0.9717934341133263 -0.49464296723556744
Ni 0.044298931807257524 4.829923295781561 5.975285766603054 -0.8257010384962168 0.311041004708774 2.5341162996489004
Ni 8.46268252072524 6.044944184413136 0.20365279983341525 -0.733978218768923 -2.2490910022775976 0.08346906435893366
P 1.5744664769635999 4.271603242471806 7.561012322807872 0.1777712147776293 -0.04127134794496118 0.21607833788794398
P 5.422807043009268 5.254859464555904 5.164791919393133 1.1237944819053873 -1.5028162255295086 -0.3785725719018448
P 4.056975511534716 8.235003419296005 3.82498366138913 -0.7138289975145578 0.7782716413696597 0.2890220772355216
P 3.764778138066589 4.80993487879574 -0.1996018264564478 1.0146406111858395 1.4319190842983147 1.0782782426411428
P -0.054022950753446784 1.8245741155064852 5.564825774096646 -0.747674485309093 -0.39697832810254213 2.1273618659962006
P 8.742969116251395 4.92388194438189 9.902225313210694 2.005721946994501 0.3437019852769049 0.25540258940886335
P 0.5458221506780218 7.191183602621566 12.823709154042547 1.1001002236122408 -0.5750053676447194 -0.8563940967046992
P 7.0570985341413754 7.701206105814973 7.365873765887921 0.5477475603700308 -0.838010451991189 -0.5543090156376324
