# total energy = -340863.85402835795 ev
CRYSTAL
PRIMVEC
9.25354601371487 0.00000000000000 0.00000000000000

0.00000000000000 9.25354601371487 0.00000000000000

0.00000000000000 0.00000000000000 13.54349995383930

PRIMCOORD
 96 1
Ni 1.8836055877123599 1.6210547226382384 1.0155359749789765 -1.5973297206280619 -0.3467405149929125 -0.14534471881780775
Ni 3.8323746474527733 2.8375629144439793 7.013419941648147 -1.7377975709695426 1.0064179661657313 2.1952934968411677
Ni 2.224117579147792 6.287016568429999 6.1433589657820695 -0.06562586552992569 -0.6233279660095072 1.5568806114740799
Ni 4.291396804503553 4.9930191811168845 1.8041703714484545 0.5287813036801732 -0.7273404017374312 1.9721155717939651
Ni 7.510714765598676 2.061134870708413 5.318288731324738 -0.10699208718153834 -0.6696376477093241 0.5050104265128206
Ni 5.535980255345522 1.1275538526115239 11.79110632765932 -1.348589887951355 1.82682047526717 -1.0972776665617814
Ni 1.402448948257276 3.5074178671049805 8.37003237437805 0.4356189232928756 -0.27209753356604105 -0.2555648260183405
Ni 2.7405117223635727 3.98679782569818 0.3902220413835583 -0.5929611807921916 0.7772159464116357 -2.1597891332869708
Ni 4.955958728763525 8.433857783631996 12.416410082353968 0.14490326040501494 -1.196886573905371 0.9578899366583568
Ni 1.5082262343624564 8.31292318892387 2.655690942237082 0.62244582051487 0.8214453485436563 -0.11396337629304888
Ni 5.243040744696263 2.68648026636076 5.296876025520575 -0.002379298865453967 0.8609860869507558 -0.5496596897910792
Ni 5.892084472053217 8.421078636391051 9.81325429770633 -1.0018701988940488 -0.3566503179074567 1.198238202837259
Ni 0.16136148715290996 3.365292651700426 0.6323568075744797 0.1155669733347429 -0.056479166033651114 -0.8750451361469834
Ni 1.7840651917160844 6.646054159269032 -0.0711708741922984 -0.027783340760855375 -0.34727813266393737 2.5203007339220465
Ni 2.304225528217213 2.9047436595339637 10.771132351944097 -0.3858361954427936 -0.03657008581454992 0.3815059434985559
Ni 7.814814052911644 5.229798920147534 4.697874550418733 0.01672039807847443 -0.4798390694535155 0.29274837704717327
Ni 6.882991208584328 0.6194786473896683 13.49821070135352 0.7364724459456865 -0.2477684699023733 -0.022785373325631724
Ni 7.491013965833308 5.3147834880409786 13.2254578016428 2.4225455919577437 0.6929675806845162 1.00322028516404
Ni 5.76972483123712 8.93329017674448 4.973348918053829 -0.9006052440042747 2.423772008165677 -1.7042325905299036
Ni 2.9657245286996656 0.7058827092633898 12.250678145351747 0.47738315171385526 2.076459936940011 1.1683010489581944
Ni 0.762234954642038 8.288493827072967 7.324717562515592 0.7349647510519084 1.0413132353810195 -1.195512833486296
Ni 2.6235376454100616 1.011070213604262 7.880827000476787 -2.0911123967458627 -0.8636975723446482 -0.9160069232713256
Ni 3.62745486783601 8.686572129142668 3.7912722461386283 0.19474460940717428 0.425868271664015 -0.3224057949022899
Ni 8.786001482585077 6.956751224990976 1.429990277680323 0.6655837893549247 -2.4000584665988214 -0.9870336481018485
P 7.8398911629934425 5.151217806193795 10.964533317306312 -0.19881106616706404 0.2717668896994997 0.07231021952863675
P 4.495474511420153 6.981217601026502 2.7189528105301504 -0.6660753842793625 -0.9276015700874605 1.864849919236066
P 0.25830626345252694 8.896201963752654 11.896231238760528 0.7084939584548894 0.047108780562344674 -1.0876272879562108
P 7.833367412953713 7.961732605224824 8.133020371338894 -0.8520178220138747 -0.8109267084005194 -1.7224378006840206
P 8.848351876581813 3.3803759319341276 4.339703091499868 -0.44906039350976207 -0.8141876385399784 -1.8250299590256505
P 3.8037441756472066 8.896350020491145 9.416741695646165 -0.9087841802706415 -0.2829748426001772 -0.6472348545340918
P 7.802867724824707 8.062161341652041 3.919583767842036 -0.4913876935230634 -0.7626776435861445 0.22840214956061952
P 8.931235889497927 1.523466824880804 1.7340146112694306 0.2343948768089447 1.3655532552785707 -4.436512552569855
Ni 8.318965754563507 4.562266607571599 2.346181106486908 0.6182505514865998 0.21075101213775962 0.3954053271884674
Ni 6.4039813918373545 6.0337932778807675 2.841263407551622 0.7841625529327979 1.1097215487520888 -0.5042717485745831
Ni 2.2637967850631986 3.7947219681454523 2.5091499346070534 -1.2203553464512724 0.5206193366946711 2.1347944110148465
Ni 2.834351933927971 6.522824685114305 4.071731499087769 -0.18230021299623442 -0.8824550554578092 -1.9503151880894218
Ni 5.486825418166735 8.689440728450917 2.0317826223027065 -0.15962848243033154 0.9455069896129716 -0.37092533976923214
Ni 0.9273626350802955 1.98730082593252 5.499921036686204 -0.48034017745965013 -0.47559777767865835 1.5524806826341715
Ni 6.163805601367582 3.71952765208468 3.39173928661326 0.44834999770629874 -0.2541085531877882 0.6742651191790064
Ni 5.042035215103337 3.3135283145057466 11.302240558901968 -0.3797776479535395 1.6372265568229996 -2.1647526479398334
Ni 7.098987482949398 0.7828712879237424 8.724722649233161 -1.1591661765364618 1.16982417047094 -2.0123479369514503
Ni 0.6784107814365103 5.002513319472576 10.355617592853312 -0.37321593557562177 -0.6711294017635022 -1.4147693119919056
Ni 7.898142236043229 8.860955206445801 6.026776313830942 1.0685116501726823 0.6674928334521795 0.6988800895142092
Ni 7.6018714487779375 0.32928836530325023 11.044345152898751 0.9462605799495445 -0.09901523962364883 0.8085659214778267
Ni 7.81052966104158 8.836387041402563 1.8886950380979648 -0.3875724614076099 1.0833111770793602 -0.0923403987066345
Ni 0.39717423061029455 6.68889807796967 3.757345969868186 -1.0480040171376337 -0.3620989997268538 0.6289365704455362
Ni 6.742133729003097 6.958037467906611 11.764047107990983 -0.567206697535907 1.2815733127214894 0.7554273897816345
Ni 5.8104034201373365 5.59518444364934 10.109044825926144 0.8573466904259556 -2.272773690606518 0.6547774427680401
Ni 8.632901561439926 2.5372113133240473 9.302488161262414 0.39188034475434447 0.7279101581979722 1.3033641833443361
Ni 3.1254037211614794 7.88194853027085 7.456103112251904 -0.39055802639849513 0.652935761573611 1.871630175382693
Ni 9.27196071249494 6.204345387075465 6.835201269463498 -0.9454301136284492 -0.6362814408463816 0.14719128510824328
Ni 3.866205612197812 2.2118011092146284 1.5588301768692179 2.5249063510148577 -0.4400957281173066 2.263569655509747
Ni 0.811577638807785 8.859048975937739 0.5148154882416276 -0.9729907968555371 0.22556853676656635 -1.4179060578486742
Ni -0.12424828958646374 -0.04025755255013447 9.228676324997293 0.8831374262368145 0.9903485714076943 0.5057673592835031
Ni 4.879459662694806 5.323120933127216 4.596786036150619 -0.32791104099123525 0.08562647702156866 0.31138398987048954
Ni 3.713651650275845 4.183306131859462 9.30368001800726 -0.13855726358232912 0.8424360918627104 -0.7069114444591181
P 1.189228737738899 4.1068996012523 12.298486591564886 -1.7061681169897196 -1.6112046788379413 1.1563287070876664
P 4.483204309217768 7.205255207000828 5.989423449419064 -0.7781376868949567 -0.8460088968156333 -1.5524840250682812
P 1.943170664316248 5.651631075198776 8.344123370496858 0.30911036334496444 0.26439270872261567 -0.1692156118981344
P 4.322821847248124 2.768355642745909 13.140310371337014 -0.10587982795396603 -1.4451512667178725 -0.13196212686331465
P 1.0900029623119156 8.860992220630425 4.9452190630952835 1.0894463434428205 0.12274395069915633 0.0894507358636653
P 4.885048804572816 1.3114218147241943 3.716417535221767 -0.156644202991027 -0.21023113507854763 -1.8775293144759473
P 6.836890041636904 7.7605420047087845 0.23122668598264684 -0.1971110527568218 -0.446360735190412 0.669043465768751
P 2.8731335458662794 3.330776924539869 5.090473827809677 0.41694268703961096 -0.5635834989610229 -0.71255373034656
Ni 7.861054023051404 4.822966763414593 8.635647088584307 1.266768129387857 1.6071806452802126 0.18976155437028608
Ni 0.04926587973265507 6.648793208931103 12.019612471072207 0.38644606111265056 0.3860583387559287 0.751625499537041
Ni 7.069922094474517 3.012667768347254 -0.509364224201337 0.06977742580445402 -0.8148658955539256 -0.34648109068393873
Ni 2.0772452945653916 1.5733249315674205 3.6197170525406595 0.9547603898904394 0.14165852821547217 -1.870207326893237
Ni 8.96182811308849 3.8460051209400388 6.457743569647037 -0.7455186153083547 -0.04743196822971831 1.6465591470778351
Ni 8.936917566837494 0.7261100358050147 3.4705628434762765 0.6696548741005048 -0.3434212208116924 5.333986192923685
Ni 4.222013715428526 7.040014633299471 0.6747963463081154 -0.17463215492801534 0.041710235254592685 -2.0066274895279057
Ni 8.271513569877358 7.145394016919958 10.048125955519685 -0.13245012224332672 -0.1745766190997316 -1.4392166464009923
Ni 6.295594605716281 3.2727294295055067 8.796232203214757 -2.3195004052390957 -0.8800076223585813 0.6973968201004634
Ni 6.570406419446632 6.975239810209954 5.4492004994978815 0.6475045632557106 -2.0095415778509067 1.2350427732601181
Ni 3.924928616101536 1.791949213040694 9.449043049211674 1.87790700953034 0.45782991217227603 1.1653797615463413
Ni 6.303367584487024 1.95517251368012 1.8781450701259135 0.4077481650245364 -1.4903939406057558 -0.08765199209202969
Ni 1.6617610721769216 7.336044828364717 9.842332641145829 -1.5767038168475942 -0.5833786793100791 -0.8577860919562196
Ni 5.890881511052982 6.78978949170467 8.217125852347554 1.4180032455481708 -0.9363484630421551 -1.6345634081685398
Ni 2.756020665720434 7.73973077940474 11.890407982164781 0.16652289555731967 0.8807465574071348 -1.373217713802364
Ni 1.2323687699165171 4.693176525035512 4.725720321510301 0.5122802207013565 -0.23543051716231067 -0.24884961878169398
Ni 5.3186977380648175 4.848117901865637 13.252003449499497 -2.7657241006310107 0.23239070189472233 -1.5470962783938065
Ni 2.60809347687629 5.3824639246233685 11.705389804264964 1.6885383197230985 -0.07686004368284827 -1.719815018349193
Ni 1.797917750311085 0.39675134355098157 10.236895521031002 0.952047876055283 0.8875458397171553 0.8945125008429756
Ni 5.268617546270466 8.764542509050134 7.207538982192041 0.8896921966361967 2.291473838119183 1.2500796129885825
Ni 0.045178588395706584 2.3574426721583284 11.727845384720869 -0.5031558898025851 -0.9502496465042795 0.12956868693047363
Ni 3.3022019740112367 0.9426309862371101 5.520506475464052 0.09383935184966419 -0.12017721841324464 1.094632001408818
Ni 4.511686724284844 5.215437416513972 7.023862568484793 0.24368710074414807 -0.2744349234499661 0.3978339912346181
Ni 3.8977231904039393 6.655316958970833 9.640290714383472 -0.8889797439502044 0.4709391958607244 -0.08391952163279096
P 4.475246259523913 6.340465051025006 11.797810521849085 1.5561817856348423 0.3923801672088984 -0.21627656994167915
P 1.4828530108036773 5.84056998060474 1.7932946786517248 -0.6735989463499173 -0.962745207868129 2.309219849248694
P 5.698361483284784 1.8196358231383845 7.26507198006015 0.5831017714996087 -1.0560330580896975 -0.15241139585660204
P 3.051791761493322 8.884746073611966 0.6964015258723157 -0.4512630575880357 0.4773098752737587 -0.44581488998927093
P -0.11984082555252992 1.6644723612005257 7.483081826068688 0.7849056017464096 -0.421191692123952 -0.7174668513774611
P 6.727550140261799 4.485304864195099 6.735954210880357 -0.10338842899068001 0.5107182755308752 -0.13105169923390333
P 6.401325624090684 4.027541189421486 1.2812830148952576 0.9274840706729897 0.5828721719873058 1.6176046688270143
P 7.036794399237307 2.4870385860681394 10.930823574015912 0.9631131327305091 -0.7205745437685075 -1.2313306145158536
