# total energy = -340874.8442838445 ev
CRYSTAL
PRIMVEC
9.20128113695097 0.00000000000000 0.00000000000000

0.00000000000000 9.20128113695097 0.00000000000000

0.00000000000000 0.00000000000000 13.46700502367659

PRIMCOORD
 96 1
Ni 6.848679004598444 8.5037134019355 6.5087376813671245 -1.6660249691119309 0.4009897632547804 -1.1893964361759128
Ni 6.475208213729963 0.4822326916125919 2.302198209010731 -0.6324949772207559 -1.662450621497111 0.7827160502942585
Ni 7.909770719175134 7.200701609664998 12.668613397660385 3.18570994537232 -0.06278351098512414 0.5001333009261774
Ni 7.7251470177098085 2.2629446245192675 3.34046338590513 -0.07299336163859042 0.4896010339362858 0.9257051243956961
Ni 3.17461673839347 7.634542004586008 1.538040110562492 0.5257661710029332 -0.7610033412075151 -0.9251255977431422
Ni 8.09411838221315 2.950243503395615 5.639173389322764 -1.2005403686078742 -0.15996863937856967 0.44611828016230265
Ni 4.284521248199342 4.199096556228045 11.36916894199881 0.760039434632349 0.3502791242737903 0.18187958051904804
Ni 1.5353165314130408 8.387041159992796 7.666388557944674 0.6972065584665283 0.14132351347355662 1.177699716564275
Ni 7.710719409242446 2.0067349575717484 1.0514193280837743 1.1331023895698744 0.5620444366086772 -1.3920615859817447
Ni 2.270351655652065 5.171984791998524 1.8735427358826793 -0.7923610295831902 0.9884328424422203 -1.7088726604050763
Ni 2.7641567982655513 5.080818500739195 5.599647446916355 -0.1785327755340022 -0.6140539969067489 -1.1803065580595027
Ni 8.35007041329518 8.139388684291863 1.5541460326678946 0.5281436700961742 0.6168081626131183 -0.5124758816519303
Ni 8.605488770084413 7.429592673589813 7.265826435691974 0.22607221587586226 -1.421123022124075 2.0691310073787657
Ni 2.0527229595614664 3.6351776530780135 9.483720668746285 -0.5020343746036321 2.058636021384713 -0.35924661787972323
Ni 2.1724132216427496 3.4989986956054593 3.3386856984332582 -0.021550986697898365 -2.261200898167254 0.8832053033602726
Ni 8.999616436596535 8.920384206677875 10.874229281449084 0.5530268064910991 0.3249460448256404 0.4980103410459037
Ni 0.35734922658553103 4.332929187068471 7.559797239367305 1.1943283262598914 0.7750366793721298 -0.08077531957685444
Ni 1.510629494730685 1.344721198636926 13.201502821196584 -1.467384624194776 -0.32524737811614307 -1.5550073057107672
Ni 4.181936167330321 0.1709367961112422 6.714271293701124 -0.6386409422174937 -0.2358516638601293 1.2782316499427662
Ni 8.9250492560994 0.2606925310070212 6.165019232322123 0.5314336537013558 1.568543649634305 -0.645731787626004
Ni 2.181421275653941 5.061118558310226 11.57072944123574 -0.6985108791002487 0.6430115604813635 -0.7781137756355567
Ni 3.681561310146875 2.7943554022131813 5.326335359140846 0.3855307483872328 -0.2333031864066627 -0.9588844393611422
Ni 4.623726468957837 5.438766730711987 1.423382029011056 0.9015087296551507 2.1894624919816876 0.477574698899371
Ni 3.218074388132853 6.490555950288356 3.591434763630411 0.2543949740799554 -0.31054478179864586 0.473469675592062
P 5.596265056053725 2.674251082490934 10.722025373143136 0.41347349754408796 -2.307032097568756 -0.4118663009579681
P 0.6435228648174675 2.2748694845790265 7.318253494062725 -1.3247423919097958 -1.1614395459516709 0.5759934425896015
P 7.8351943373970885 4.6081671029385065 3.8576775072825296 -0.1344977488009748 -0.6659424582459241 0.5128569191404329
P 3.1604835709152366 0.16838988155526904 8.982963038276969 -0.17528212980718846 -1.303338729423039 0.047354320914247475
P 4.838530371808972 6.9780766180401015 6.310436275828626 -1.4229996703214975 0.034681610542585437 0.4916360620884436
P 7.837513060186486 4.639295036258078 13.114572799668363 0.8288632382742822 0.5995038670067159 -0.45237197438149834
P 4.175550478378567 4.383591439760625 3.2740034540180676 0.016140871425920588 -0.20011615813173278 0.989817638604889
P 8.242166992060001 8.974864990947806 8.677680179850505 0.9447783389770632 -0.25494287616362543 -0.1601776700655822
Ni 2.8501151645296465 2.6895436113638653 7.401573853089835 0.6290324725934521 1.062582172062125 1.7902048809266653
Ni 6.19228722829982 4.0405216810198015 2.2767723094712777 1.2033341293029274 -1.614183558960607 1.8724871240663494
Ni 2.0710979175393507 1.0226671654952446 6.13975527532669 -0.7516365552806346 -1.1743616533299774 -0.8715070410867378
Ni 6.301883685222495 3.6926028472392445 8.613550012289934 -0.7444688338876017 -0.9527600716309591 0.7842245165189848
Ni 7.975302241818345 6.890535631459433 3.6430944351732424 0.011699547825115333 0.21293130761853005 -0.25348171823706667
Ni 2.8364328598160187 7.788056175293582 5.680207421670372 0.2994427583482134 -1.5864590964621452 0.5913627259568203
Ni 3.275177537462223 1.9232793397152566 10.37032113239608 0.38016922696500327 0.7710419563904398 0.8427613364126131
Ni 2.882779711761239 6.077427638696449 7.60654158664785 0.09562601143644175 0.25326728823341543 0.6624485861600528
Ni 0.6303963174708225 1.0740563193793133 3.559463992979455 0.2597719221211526 0.3881327047864541 0.4829634740151102
Ni 6.59051866609794 6.067205015605095 7.52938884621492 1.066309500315041 0.36455286058398506 0.3445044265735422
Ni 7.708235063396663 7.105293527906016 10.094503535828695 0.036514549986266145 -0.4715806860994653 -1.010302388821802
Ni 1.217053426006406 1.3341397255900722 9.319961791873173 -0.9376795231487528 -1.0319474778954034 -1.605813332619041
Ni 1.4409297918351038 3.4543080742240946 0.17027430388570008 0.6103557221195552 2.7895029482181637 -1.3098839867407248
Ni 0.9186255218581217 5.386466650017798 3.903600180177784 -1.3134434219572089 0.3950440871943067 1.0705158250869047
Ni 3.6095796895855377 3.132097619306937 1.411126842966617 0.3866404365116438 0.12239993709617632 0.7603124857880776
Ni 0.7037590502967972 5.869285463224377 13.535551644132944 -0.01836616121201353 0.44446968881528615 -0.24327392446612942
Ni 8.829723985868613 4.481419458399017 1.7107674759388802 0.4231560149391745 -1.1341724827056014 1.1140371454083071
Ni 7.159489072467729 5.961013032619235 1.2066532181934853 -0.9979569798825716 1.4912462613037223 0.8789269876998926
Ni 8.396831322881365 5.476777222152469 6.008667386581809 -0.6220133609631416 -0.6732793582269695 -2.126957174358614
Ni 1.3371393431668326 8.23884532965138 0.0847207939816586 -1.949163848093798 -0.9390483784718215 -0.4120285375674452
Ni 5.034453246232155 4.615528127666753 6.84931849362171 -2.1981091119130918 -0.4930550539231573 -0.6245952627577049
Ni 6.801991705259542 4.596969144070663 10.856762489897045 -0.40486055906409635 -0.6209831199264144 -0.15060853831990836
Ni 2.9370488665702337 7.113675894815307 9.79107841601802 0.22392663028776916 0.5377120305108997 -0.005778554354990048
Ni 2.118815760340207 8.884167965014903 11.017625723667681 0.7740300924844863 1.1819096408805645 0.8939723120687895
P 0.7020512925598441 2.4872442492698394 1.8220992944412397 -0.1815823609936034 -1.2417764924395258 1.5438749432430314
P 0.9034673316864806 6.927653598651616 2.321118802946597 0.28940799982003057 0.5866190406242477 -0.7556778152295437
P 7.900017361410207 5.106858125715366 8.848589372119015 0.7899549912448589 0.9496492939161193 1.0689477092688364
P 1.0168611572408404 6.505563239453068 6.284081046917232 2.1395802624392632 -0.17457996153384128 -0.3775685561173626
P 7.659302651515646 9.183798476578165 4.3136295003591005 0.3964697638972398 0.6928639652271164 0.1176048297003781
P 3.3666290684297717 5.338647593126929 13.289038287008708 -0.5837586883573171 -1.2280329176011882 0.2259886550231205
P 3.1964237741508987 9.222167817974148 13.161262859391536 1.7102055202838868 0.030072393905348212 0.0984169439180176
P 1.0054055625075073 2.5537419064086335 11.052411166149103 0.3442843401429361 0.6451813144391727 1.589653435029727
Ni 3.5134171027919114 7.191767165901089 12.284548251951776 0.31985294657344915 0.6003569590356306 -0.34528244239014727
Ni 4.880202973051755 8.155987795054058 4.452514554547377 0.032431638166144146 0.4360202724963523 -0.6470600195191243
Ni 4.422154008055725 1.5689748169829465 3.2288224043641836 -0.5502716123434652 -0.2325714504469607 -0.12269407129782739
Ni 5.830640083401084 7.9870522775408075 0.15573904043168693 -1.2148385303981013 0.8093511363832836 2.488369946651721
Ni 0.9170134574426358 8.008270431319978 4.485428456491638 -1.183030898969201 -0.4816031033324738 -1.1298720555580348
Ni 5.597083970054742 1.055028070456797 5.358292327870436 2.2588750782475553 1.3805438151501321 -1.9429345793546344
Ni 7.5147045220101605 1.6240260806693176 7.82081457559046 -0.0018316538921000715 -0.09483796831750764 -0.26986710157362553
Ni 9.067393071781861 4.913870459902571 11.254685684784668 0.056795925943121536 -0.16354041589022805 0.4446941461212664
Ni 5.394913425893461 6.3888357898249035 9.877293498019514 -0.0931433542239041 -0.9776797176907743 1.190440561169711
Ni 6.448174850415478 0.9323657946414843 12.610476024356695 0.07058449508678166 0.8333192171631069 -0.18869248967582342
Ni 5.809541546273747 3.726886819911051 4.682558538970254 0.18164766701390006 -1.0262468279662005 -0.13395318915141444
Ni 4.97480134209063 1.2490830848551875 8.705111958628406 1.1471532112359857 1.2123538163030345 0.03530356039730049
Ni 8.62808711600013 3.1634279808065355 9.417718960648555 0.26688873567159194 -1.0161714460080693 0.9355365086638211
Ni 5.897597804585394 3.7328400486600204 13.513735407094604 -0.0047706819157659775 -1.5443534255413467 -0.9907072402986937
Ni 8.228273057885437 2.7477509144024723 12.052821353250403 -0.09624024798167297 -0.9831201719800552 0.003573833394187393
Ni 2.370940058563549 0.5736906634767779 1.8154329664217217 0.24714009228975498 1.255325177658238 1.1202862116418124
Ni 6.2412380427426575 5.962926899048578 5.104048974653449 -0.06464447545326285 0.929016448157116 -0.8565362787095183
Ni 3.890826041890004 2.206071507212655 12.853609751002578 -0.008344001089321115 -1.269076980026692 -1.3752146896277349
Ni 5.346054624259726 7.835139129711628 8.174472248274775 -1.142259373478794 1.9032017795413867 1.071852027399825
Ni 5.778045561717764 5.786832784987109 12.676477732454426 -0.9764185915901636 0.7576069139314565 -0.9570275886580614
Ni 4.652894529443513 0.24594747834825303 11.156658918478614 -0.07266503176489421 -1.3225386993902577 0.6229860092890561
Ni 1.1196026598853366 3.0871861671837255 5.402638821345755 1.0770482268887838 0.8435180120729795 -0.44179651285849725
Ni 0.6556032265246106 6.056531529749139 9.322439696822318 0.9342710116878361 0.49840783359463836 -0.3691363661896094
Ni 6.91555391425456 0.4288100546473452 10.1773113835091 -1.451105170308462 0.8086875346573555 0.1535614503006452
P 3.6842480841726846 5.137498391146691 9.4365595034405 -0.6047373474915133 -0.6486913844749602 -0.230808445009267
P 5.653975489923176 2.5187770389494637 6.8581931290597025 -0.5037798965398292 0.4788677066791818 -0.0621798159628542
P 5.963377761813184 7.493707198972838 2.705575003093895 0.2708091537719207 -0.6143568728591484 -1.219459059889248
P 0.9620031204535856 7.055836643013112 11.465956295766246 -0.3468598141795962 -0.9401966331436518 -0.17836513960788636
P 2.7176259207021247 0.2506824575046974 4.282238410405494 0.7393510530450621 0.5556765854091203 -2.0205340723066687
P 8.583727740731534 0.5750607342043227 12.923745594613306 0.31611790501104914 -0.7380608734787288 0.6475169045508848
P 6.258499645730395 7.62054685632143 11.63880511805065 -2.649428990880992 1.7354843494553338 -3.154078434509968
P 5.425056822155629 1.827852855394455 0.9350038018784695 -0.47239829690475416 -0.3706075514184972 0.9352279762844666
