# total energy = -340891.3066833191 ev
CRYSTAL
PRIMVEC
9.10259485667823 0.00000000000000 0.00000000000000
0.00000000000000 9.10259485667823 0.00000000000000
0.00000000000000 0.00000000000000 13.32256767713645
PRIMCOORD
 96 1
Ni 6.441332772268165 1.7708551741191287 11.75479398993938 0.6020556868942921 0.8111341964256353 -0.9981071323071906
Ni 4.824539012646355 0.44456799206054165 6.024717938126668 -1.3252512132254142 0.4482348122846732 -0.37959355696719144
Ni 2.7304780101930293 1.8361207777791448 4.5073845892372875 0.259662650236798 -0.9776619770789615 0.6026295571198912
Ni 3.293072975299159 4.296096982677238 4.713683973927646 0.5628746458194563 1.0608896148510503 -0.033594291015677624
Ni 5.357150030966419 4.5600540224168675 2.7043080505664543 -0.09299063069612373 0.04026193284384034 0.04743531066382799
Ni 7.561561788394691 6.2677918052140225 2.5471016896166203 -0.544021003448063 -0.5767732581784196 -0.35042233471987394
Ni 4.822536441822756 4.703283349277446 11.456062307847956 1.117925681829436 -0.8483941092183581 -0.7335817546614527
Ni 5.717967780405662 7.907068973628056 12.644408770539197 -0.9670919148725989 -0.04140221709587063 -0.25121554791070927
Ni 1.9253626157544306 6.311484259547088 0.19067660148789195 0.6615589844662477 0.18600003044532484 0.8055317626371934
Ni 2.6365938489448557 1.208988416585217 0.5105117390221855 1.824107704321697 0.4061674508009779 -1.5348884234737048
Ni 0.761830736345976 0.04378257002012705 4.584415296485947 -0.1227858596806853 -0.2228971605819903 0.10615339333032686
Ni 8.668273451461925 2.3366269447590584 1.4527058371145194 -0.3761662764531973 0.7532820613038574 -0.14022590953400366
Ni 7.151335155180474 0.5053669525244671 5.030841128115108 0.17578992268154242 1.1569028344235819 -0.2808860783919485
Ni 0.5984118545456597 7.37692475845888 2.2121589757372044 -0.6324648953137688 -0.7442528612220537 1.0922051371348802
Ni 7.742093548142124 3.932666788572663 3.804165459860188 0.5518824084740108 -0.1267265894959882 0.5269452789126989
Ni 7.728658118434707 3.7791879401331196 12.729166670388551 -0.6554829534754969 -0.14161019147604 -0.18709943415709068
Ni 7.817581365597147 8.818329724312045 7.264742561439805 0.28917994296962457 0.13776793491181435 -0.744097566591112
Ni 7.1986777499692804 0.5120528082968913 0.4146277377288088 -0.9032501378262896 0.20521182748708527 0.9477749597115419
Ni 1.6197338976946398 6.748417905472391 9.39071817100504 0.8250394936528178 -0.1789796332634337 -0.5618328348185033
Ni 0.4881220869548854 4.839740345716401 1.5741144240735936 -1.453482155181071 -0.41922351265398766 -0.46883654769542477
Ni 6.366327392329738 2.2148342283056395 6.9247506383065245 0.4032196810265636 -0.21381268178221888 0.1735674611089269
Ni 3.697555871287509 4.420392912660155 0.5664144138224118 0.3592802993311361 0.5442428896508821 -0.24944662893574454
Ni 6.420132829321977 5.924751423131545 4.633256178354591 -1.8017555618787422 -0.36980433879091146 0.8685376740457686
Ni 5.309197562335879 2.988472850435126 9.28233903803187 0.2720952195731959 0.42506685880864215 0.9732733610929626
P 0.07939465107997093 5.4146875317662735 12.623238866155361 0.06775242495462526 1.4102778518794552 -0.0384863290006563
P 3.994182123235758 6.289246620810488 12.47800969924958 -0.5890317638307985 0.855059951274308 0.9936020453479857
P 2.2439898389783077 8.287457301570651 1.5062627732727392 3.0263611989659363 0.7432413892384039 0.1202062718789672
P 6.192513347436012 7.936306507652599 5.938361622656295 1.9642631656290817 -1.8065414133031596 0.08634355769325129
P 4.797877512908532 0.9868942096534554 12.949322024659283 -0.9441975267729288 0.07721871257384764 -0.883516149732472
P 3.991669807111607 6.1046277960639825 8.00479807085754 -0.017681733550479226 1.119067508743363 0.5220321578817978
P 4.708754008663733 1.1953527297954396 3.8706453496468773 0.25320121088217035 -0.6447835647801219 0.6163960147763643
P 0.2852707651189779 5.745794412259032 3.7342893920085687 -0.3550577766093562 -1.2266373228052423 -0.5929514106001788
Ni 1.4452826711752247 1.224271673007137 2.4072548869289925 -0.425850273941886 -0.4593370928454218 1.875927517206466
Ni 1.6763611390292228 6.657956319813641 4.977004742301051 1.4330593685503448 -0.09258902438233085 -0.04256949793109443
Ni 5.636672507562202 5.350741804330902 9.251843525426322 1.2432551338675815 0.7919493959670685 -0.5073832976203713
Ni 8.642731570866387 2.2192580893068623 10.505190706273183 -0.2887623958162317 1.099816373823235 -1.6131399481874413
Ni 2.2833494582566773 5.178047378579462 7.033609478017891 0.2761778742830018 0.5217907312949529 0.12335715880312303
Ni 9.41444954552415 8.993454542835762 9.393022947971108 1.0765355489184236 0.7092742882643398 -0.32840186458472476
Ni 1.3543204428105748 1.0008302820667727 11.419864929951943 0.6037045353516247 1.078527896758104 0.24281369700025923
Ni 4.1374205526909895 6.832234597034655 1.5887696014644759 0.13267612221120376 1.017130724597545 -0.5524218259172486
Ni 5.680956630547694 7.921724151018939 8.17487368012739 -0.7741977284106021 -0.1495304747643812 -0.11057183411299666
Ni 5.337952658843828 3.155714821989586 4.81072582526085 -0.15467242397663683 -1.0774562609604799 -0.8703289616182366
Ni 0.729947078055887 7.507383145021691 7.089310985476292 -0.5318332031326195 -0.7576750481652306 0.6388831401352867
Ni 5.024486606788044 4.707561568764226 6.665840077042364 -0.681798194331258 0.39032585578303103 0.8024261271286761
Ni 7.865224346009494 7.2883838202718545 9.109851241179047 1.4554451924447127 -1.1006596956601369 1.126153469055867
Ni 4.615061001903266 0.741190602970929 10.644505007173626 -0.7694136767583974 -1.0195493613413666 -0.47436416238187334
Ni 8.271937377687761 7.2167281951656275 4.991739112265412 0.7043601387921741 1.0143238512763693 0.17449434379857046
Ni 7.218758073773184 6.248275842278587 7.177533332850473 -0.06772774236427691 -1.2557926042129597 -1.2679873465069387
Ni 2.5904254888662503 5.0879316915175155 2.6178707220036723 0.2763146569711822 1.0429880519802812 0.31965394318876567
Ni 2.3472860830973956 5.027126359237334 11.34335307059849 -0.00260838415712454 0.7427893893026498 0.7462506083783729
Ni 1.0684079447685801 3.441081164352417 3.6364610764973704 -0.4135323758064814 0.1084344760550197 0.4061851914127908
Ni 3.9797727159004994 2.643821309099117 2.3867649463657163 -0.9269464530019649 0.6420761931512878 0.24513874558901005
Ni 1.0461612034373278 3.3174770315631066 8.17797766490397 0.10629017601850728 0.09186834416622243 0.31034089331795583
Ni 3.7598631316853903 2.6844552916288675 6.8650121301196405 -0.8808584003946508 0.16577470453738546 0.059196822075130315
Ni 4.204834368689048 7.022706390142861 5.923692791373433 -0.6815158872041488 -0.1870305285923682 -0.5127263070998395
Ni 0.8023755134481299 7.231601834828176 11.55125178116933 -1.206164399662871 -0.5153238926236867 -0.31850851673041275
P 0.16331784299967103 5.559810198314619 8.32204807151046 -0.23172324351405255 0.16212939447531433 -1.3323595421354215
P 8.62414407258553 1.548378658211953 8.067760718070417 -0.6497892455248294 0.756126215620872 1.0458507182400567
P 1.9119362886416655 3.061994507445161 10.359468178737224 -0.4379503996395296 -0.20322025097835322 0.6958870683241565
P 4.359469246649487 6.24430711101 3.6963998417666137 -0.8497927893380978 -0.3302317187046119 0.7599404471606396
P 6.970220829375266 3.9040118206058945 10.499515238507211 -0.3940994638928503 -0.048545513008871236 -0.10259344389321041
P 6.31105643759841 7.899632153796782 10.341616170104306 -1.1667005372402939 0.13797773692977527 1.0550483255789247
P 2.2796355996383664 8.544132265588104 6.034243803430741 1.0629536964689308 -0.5981427249931313 -1.855386459830321
P 7.253803063186164 4.148352768868909 1.6899540436241325 -0.40233779264224256 -0.17113468329771817 -1.131916082571257
Ni 5.686836906693353 2.7271009475768695 0.5690159353741596 -0.007727450551244756 0.8658179611217605 0.5445755903999525
Ni 1.3315730587734227 1.0852113344975047 6.9574043761042335 0.17109277431618922 0.26905797540876886 -0.7236020177409216
Ni 6.841501038391126 0.7516376508538579 9.266858255305985 -0.4000711080952529 0.7113676804582587 0.4629415223672285
Ni 2.5448032844668083 1.4798907360448734 8.880423983995053 1.1831514837074655 -0.002231460433680028 1.5496298434489377
Ni 6.534597957079955 1.9197008018804373 2.9145643331523505 0.28019059498682064 0.2775729548583155 -0.4671799859286083
Ni 4.091179371855162 7.093051241619095 10.070089412651473 0.24481170126689453 0.2053784349719366 0.8206912439864511
Ni 8.114034668246994 7.271707866868068 0.22610116909788974 0.10921583430573449 -0.9154744478066233 -0.10888596177014151
Ni 7.764176442769628 3.894017171677206 8.159712398473818 -0.4641072605405556 -0.0726362354094878 0.6207422075602018
Ni 2.6220752104737644 8.346951860220841 12.315967129760756 2.6034201282510456 -0.48488871606228107 0.3671771855807096
Ni 0.03908290040092674 4.802965863319404 10.41558294399286 -0.16767423555294347 -0.38962780127474184 -0.07604371842914001
Ni 8.612820444837544 2.4803751195148425 6.083497032837154 0.31039745758750414 0.3661767693406532 -1.3581309946725706
Ni 3.515950005371055 2.877175425616296 12.190788248096524 -0.3106301424236005 -1.5639336616661195 -1.027530065553998
Ni 1.0336997513577513 3.4292842016824894 12.700843036867141 0.6199667628467582 -0.9366492821120256 -0.09827759012667592
Ni 3.3610784599496446 8.473350489568539 7.858236284094599 -0.3960185352924341 -0.2931651528696177 1.177513825805714
Ni 5.710112241220363 8.119833021040778 3.609629358239542 -0.3099300310327823 -0.013617076562802354 0.5250436910146119
Ni 3.2262599305481805 8.325770122463958 3.7328502717939736 -0.4122236842973868 0.28752003876869836 -0.029308262045814045
Ni 3.2753684286996148 4.419519063573494 9.263607718755498 0.2662066220029028 -0.31871754741742525 -0.7048638179014699
Ni 7.116681577337562 6.014275441541065 11.477312315064736 0.12859398172203015 -0.06058136112748277 -0.16852809891280654
Ni 0.6579783236936065 9.03681930376133 13.658162916493904 -1.7764384232701922 0.07845104231905198 -0.8798317589023493
Ni 4.762868933874164 0.46631500094535955 1.788967516959115 0.1677824789960336 -1.2671273124994888 -0.9407579049637605
Ni 5.907638545184428 5.404465317971267 0.37582064594585957 0.6028923238629745 0.8534103314860271 -0.07053153036165917
Ni 8.046183927705604 8.72584736264039 11.457234722039226 -0.44121801464720783 0.4742338074515962 -0.05294132808372173
Ni 0.13190842989098883 4.871035066132458 6.067403645491141 -0.8657973922964702 0.3786437914594124 -0.5931475857713849
Ni 7.950124246335431 8.932703826123497 2.802841817163238 0.5574979548885753 -0.35031203439425473 -0.6621377397878533
P 8.624863177563094 1.674877416100829 3.7861668994533613 0.2537493700761565 0.8778152426929527 -0.22673016117483533
P 2.091430352598689 3.210312184716612 1.3615133131051556 -0.8877368726820388 -0.3206062797997059 0.7168803827463719
P 4.886773452287014 1.3127397904369413 8.162857344926334 -1.2487493242129333 -2.2384219525995257 0.33184739993116397
P 8.558487057355446 1.623201986257327 12.54752712487188 0.7723005113878892 -0.09354161810358728 0.5742396931232885
P 6.3988964759971765 7.903209473495303 1.5404748752749944 -0.176414957860051 -0.8131224305002578 -0.41382316757402277
P 1.8073019631086273 3.3001456913443237 5.848207704696806 -0.9596688829356504 -0.4156663914303486 1.1174731676730496
P 6.869801005166439 4.130174887347422 5.905094369978992 2.424649268564308 0.3806250835554993 0.7879891257677396
P 2.5398514729757276 8.691894684585739 10.144309238671372 -0.7395492850987974 0.17663864383508288 -0.6552343277998006
