# total energy = -340858.66438656254 ev
CRYSTAL
PRIMVEC
9.35001767736227 0.00000000000000 0.00000000000000
0.00000000000000 9.35001767736227 0.00000000000000
0.00000000000000 0.00000000000000 13.68469598509298
PRIMCOORD
 96 1
Ni 6.615633149123223 6.4230601823782 12.272764182829894 0.820957096053328 1.0116018243595157 0.5497856738459822
Ni 1.0459210419012726 3.879789888854519 3.302924645245191 1.4268241862739106 0.23955225264016805 1.4491398190519753
Ni 1.3121066988377694 8.959663913205764 6.068259731679518 2.6638233119294514 -0.9890799891079158 -0.5315128436787233
Ni 5.30022589399972 6.023141220753701 5.932753663615382 0.2573175470433891 -0.1570712632261166 -0.2860100298820752
Ni 4.048931710976168 7.995387226791846 11.583766980671184 -0.5298079451724746 3.4431329076453214 -0.7696954696648745
Ni 6.272403345460226 8.070673570170703 10.162816724546621 -1.9406393555625545 0.941136885569734 0.39296586450903936
Ni 7.4391827175297935 0.9144756865705496 1.7817889483227571 -0.0036599653500904703 -0.005298015174145714 -0.6975138052943018
Ni 8.352988007823608 5.788072423077617 2.9469993874043734 2.14562004087544 -0.23371147758867492 0.5495517034583052
Ni 3.069358395430629 4.90299038748572 9.36473847464883 0.2819263467310048 -0.4732814708406558 0.696118210498356
Ni 5.6124042885269505 8.78556658164661 2.034147798926833 -1.2312820206661053 -0.28789310583740096 0.020120424898958898
Ni 4.35975435292144 1.58706267247687 6.260433452664199 -1.5830171606601315 -1.6439787879451688 0.3929126426736007
Ni 9.181773586201881 3.8129653115906486 1.3577385257411687 0.020735175664822355 -0.5500039605043754 -0.49010188483210443
Ni 3.1759766484794496 3.573296305153709 12.14913637738728 0.5643946820084086 -1.5020510652287098 -2.070329398562241
Ni 3.020981403299208 6.594763909378861 7.241749611528891 1.9240673101364862 0.13074059575138774 -0.3388392578679648
Ni 0.23996914200853142 0.6062121444989476 13.093626556118842 -0.6959490319103434 0.15891474419275858 0.7472559097144357
Ni 1.5814339617572883 6.487145204424732 3.1657215489491555 -0.823426126419111 -0.8798847236274718 -0.38292904909832765
Ni 4.681572615807291 8.026934186871362 4.228708243351059 0.4095993593006624 -1.9265206567729851 -1.0965467019330277
Ni 2.2226020828280433 1.0124479781535942 1.5220669586959727 -1.6465686601595317 -1.1871480064613682 -0.15970458708390559
Ni 5.939682961811864 4.1427030395587 12.647410046323113 0.30290526297551706 -0.6331058713318773 0.765295540824966
Ni 7.6808713278129614 3.191591178216495 3.2954941860942752 -0.008449673429249963 -0.3026484097697046 -1.1734998195503146
Ni 3.8953389684669184 0.4047772308768148 13.351993728165448 -0.2636571161081718 -0.9197100831545258 -0.3685874356646749
Ni 1.0634242752352543 4.591887245006249 10.322092407878731 -2.2097107007077623 2.1605010717523307 1.2787877795565523
Ni 1.3703386097373618 5.271773789814192 6.431697728827949 -0.7501170333123145 -0.41772455951095805 -0.47603383677481237
Ni 4.368777120104823 5.943825019700194 11.795701964290146 -0.6829315366047529 -3.2000122209276047 0.9686291774527318
P 9.345679398351827 6.580420982063515 4.915679296651076 2.3390711282821717 0.24314742619059415 -0.19363183595896974
P 7.357874962683477 2.8626762518154245 0.78730422437923 -0.16894847427967677 0.33973580154030525 0.2813797301989154
P 7.97800554368935 4.955789938039669 7.351965751429697 0.41475339269777606 -0.7204079362836562 1.1153178118929439
P 2.5319287219242574 7.706780227155089 4.841549550474897 1.2347995469010606 -0.6631810934507031 -0.21624597381405986
P 9.235900839284371 2.4596530842791307 4.685681013631517 0.4053570390845406 -0.052094149592078025 -0.8866348978671117
P 4.9418397114722 2.2101198090562137 12.621258046518015 -0.7108773710854015 -0.5134634423761802 0.0696324155861575
P 5.521662365713762 7.333490116243827 7.7196598766837 -0.008619366237894832 0.42070446807488837 0.5191486656864156
P 2.7145626197408506 8.229829573274888 1.213018015128615 0.21985965930724716 2.675933979150056 0.7944467084676253
Ni 4.281681704236212 1.760468102718335 1.437960743520137 2.0998662316790933 1.6965920432655104 1.5399959199035995
Ni 8.414688775329456 3.0042261713897553 10.420992221228191 -0.46918210396030163 0.9548490929495039 -0.36495446689777794
Ni 3.5486122581442476 4.016982700130967 0.6077483524245741 0.06142828250881034 -0.1698121078315527 1.8699525305699538
Ni 8.433379460924876 2.8441164664692953 6.662079362577579 -1.118531433734235 -0.8642323618021953 0.857875309235916
Ni 0.5828455149984383 3.668339236157941 8.300123942146794 0.05747212607453973 0.2877702071062915 -0.8530190095848793
Ni 2.4403733475618923 1.4563681235760182 4.086975998429501 -2.5429225850866204 1.1515690809154941 0.2556581570630952
Ni 6.747477750214289 8.588664556657124 6.071434062724863 -1.3758114426714692 1.6759663965953588 3.6070628456644847
Ni 5.332165554827113 0.4234436064259392 8.380617310442153 0.7144445196113696 -1.3098209947132733 -1.0362003396344863
Ni 7.87790425305174 0.8888313927323491 8.71208853171155 0.21724433317158717 -1.398740797774133 0.5865488495079447
Ni 0.3517888099631714 6.952495590659916 10.532740829047501 -0.3937865606381218 0.2575371192533629 -1.9508281231700981
Ni 0.1476143411237007 1.632784259551213 2.65172489006972 0.3894424247368132 -0.2152509568906422 0.30323359284921325
Ni 8.772906657536454 0.4430262837201117 5.5603106643174 -2.3712705958328515 1.9981001687831843 -2.0175256244976483
Ni 2.676582847410384 6.443293620911712 0.35547271697897737 0.1316836763909474 -1.6858286341014193 -0.9792496332810554
Ni 0.932857821578353 8.777011315353558 3.4186152205717697 0.4827040497061365 0.843928617247837 2.379570373947799
Ni 3.337591706266774 5.571928061442118 4.57338449476874 -0.2610032234250924 0.9949305343514219 -0.14765768322170053
Ni 6.45356929048118 1.0174782877335524 10.948318265492734 -1.0092834606389844 0.5304859450761058 -1.6689418856484097
Ni 3.792900173377654 4.289937769959453 7.365596207388179 -0.9220816687104959 -0.525040091470186 -0.5595540660866557
Ni 6.662355188102874 2.784510102952131 8.763282684208106 0.610103239789117 0.4809775539333329 -0.8792835997083631
Ni 2.691524175865353 9.029658146506076 7.980969499334046 2.991660048039325 2.1576288924108584 0.5983864655728212
Ni 8.551834836516871 4.6623676792325055 5.14718386753928 -0.37995428274071985 -0.6447113167812897 0.22025818029724648
Ni 1.548250748561615 5.115114241464373 12.609393808923201 -1.4405474493972739 -0.29135226803059494 0.6555526303711677
Ni 7.367215630472284 7.135138838494315 4.781692606480515 -0.09729414316748405 -1.700758515938374 -2.670171365634666
Ni 5.584924586193312 2.4380451931280454 4.5212590804986466 -0.8050509663460328 -1.5725021200614209 -3.274784785953805
Ni 9.07482808252983 6.797677995818 12.68950382648849 0.1621795309869594 0.13264681163516512 1.437994601068433
P 8.844265993436533 8.663548849270295 7.3486137700460255 -1.0669515047744142 -1.0015004742594558 1.346364855275578
P 6.474111279602312 1.3538171282730749 6.805837756357832 1.4313349296600706 0.8178632876193528 -0.5835224039767951
P 3.4028267805035206 3.567985495039552 2.9976596538841704 -0.3142078324725298 0.13052282331362683 0.26284336195762475
P 8.356120263788824 4.797251036110721 11.992843349735482 0.9516293004606258 0.23369476541812656 0.6321417076463952
P 0.02935999091454892 1.3539854285935937 11.092075724271208 0.00823190099148905 -1.0609927160878179 0.46311764293377655
P 2.1815555046570076 2.246238927843164 6.635613202174177 0.20701314236188217 0.02195696388706541 0.7429403130582172
P 4.309161406569851 0.4726789301920077 10.127153886628633 -1.2240104267053564 -0.7410356398363367 2.406185919652798
P 2.24867928249069 6.355338003404894 11.007422533053685 2.275161217002088 0.5822854462459004 -0.07216598064128861
Ni 3.929139282837828 6.480646942049135 2.3481157868622504 -0.08933889287614936 0.5908176520866276 -0.5747996793918165
Ni 0.13231210198139606 3.0895263838394955 12.726439201829958 -2.325979070984904 -0.23233233785296117 -1.8401603869091858
Ni 5.738947429521665 5.139255987441051 8.408110102800721 1.6402602014430008 0.8290522143566368 -1.5678623072965645
Ni 4.261102315043855 8.542980369654007 6.33405736287704 0.0035977446535873526 -0.4487140659139369 0.9162313805773058
Ni 1.7974754731969136 8.318664092455528 12.527751323439409 0.05637555057625129 -1.9884497901776144 0.6043614522093333
Ni 7.532617445471287 6.3566376558800135 0.9232544182891796 -0.632243266221266 0.2871230604405958 -0.48448890952070106
Ni 1.8623739467926221 2.6564990091617773 10.140852597717103 -0.4098778097730296 -1.6760381303735588 -0.09355164540591632
Ni 6.833722314462498 1.2427669667839192 13.146832832447378 0.3374081818483931 -0.8797314858790591 0.6649505266462999
Ni 3.2790418947617566 3.4429664069473147 5.275778402440765 -0.25219565243579145 0.09603275995655719 -1.0708634382343105
Ni 2.4077791854880357 0.8743631751783946 11.553304622657235 1.5986885486488014 1.1392146731151993 0.20655394333727653
Ni 0.6220632296865004 1.151576243116012 7.750095119646009 1.2409545107588629 1.239877218534284 -0.12653221409699497
Ni 6.058755438579094 5.998298223441528 2.9490797663663453 0.12402590273537349 1.3120948783491144 1.992862831643645
Ni 7.559124745953039 6.904660899561279 8.843912562763443 1.5531388850434606 -0.37517177375041194 -1.9340964122377138
Ni 3.3288120395463636 1.8790356785240083 8.58591565142198 0.360327766759044 0.9507705520047561 -0.05107547851957655
Ni 7.1085473878523056 5.175608856673167 10.467355219524066 -1.3429887397144935 -0.42128193784491313 -2.2491347110313398
Ni 4.475834823990555 6.7049912693010345 9.584433038045498 -0.6615301881108414 1.0251721068447828 -0.9230352908730167
Ni 1.242402316089461 7.595645915505672 8.126246336006094 -3.7809714921629145 -2.407355514480867 1.285022961832987
Ni 8.19745981162839 8.570684472415005 11.11769383805955 0.7117620876832 1.4985530793777804 1.2771363599960586
Ni 0.3888064654613373 8.196281709384756 1.374093576888498 -0.9686942263627124 -0.8301212790510994 -2.0017488212793655
Ni 5.9253680845499375 4.1643857308522385 1.7553499029709945 -0.789173375883828 -0.9131709964844273 -1.2127096569805567
Ni 5.726708256212809 3.414533002797402 6.42482827074543 1.6454638571311277 2.256827194579591 2.1844082173872317
Ni 5.5377817964123635 8.051496683649336 13.611387532167221 0.2933276465894109 -0.709206925361514 -0.6568518087985655
Ni 6.5748390214329655 0.2801284034897196 3.91055238244006 -0.24202256855753157 0.835347046226413 1.8329872661995141
Ni 1.1514172928132995 0.15393962816987514 9.816004929061911 -0.5824672232394033 -1.3774718610930277 -0.4636511468397434
P 5.008954139288076 3.6083121218394787 9.585226854557279 -2.620836781065596 0.1612480203116255 1.1529374220179307
P 7.771098999646786 8.353483558767358 13.680056867944336 -0.15017530743723168 0.9546506037854526 -0.8768932450993155
P 0.7044396915681126 5.722416598039572 1.178654829685747 -0.3685002752675073 1.1226786231333892 -0.09496575214462355
P 4.240148925139232 0.6536943399262759 3.7968458808920458 2.631929548544648 0.1594366781344996 -0.9351313028056024
P 8.077209232617527 8.547374878023115 2.992829434685273 1.1316566582622833 -1.0232142117874634 0.15529154561787448
P 4.85604394807871 5.751242702937364 0.2924255469089785 1.371972014320721 0.5294505618330559 0.2867764757344545
P 6.426529038984453 4.368412469410365 4.560588995400389 -0.7713859699934199 2.4067528478998614 -0.5701457255595729
P 1.7405806148436667 2.6045690102638424 0.08808932276145338 2.113432400399302 -0.38739916905453925 1.6076822675069797
