# total energy = -381175.1335219426 ev
CRYSTAL
PRIMVEC
9.18686619877377 0.00000000000000 0.00000000000000
0.00000000000000 9.18686619877377 0.00000000000000
0.00000000000000 0.00000000000000 13.44590730456772
PRIMCOORD
 96 1
Ni 2.238085951190093 2.7024452862509434 12.018678102089536 -0.6509603830147951 -0.21890320893124882 -0.21676507954232346
Ni 6.3030537258979855 1.2049493607126425 0.6321997043843925 0.4214477739988161 0.23293371888238595 0.5069102146386948
Ni 4.362043464532265 6.080520267796869 13.104851389382556 0.5262600799202162 -0.12940285077657068 0.7639817071095488
Ni 3.3057375976922256 3.825787715191625 0.3884197810002627 1.348286497778323 -2.1571182713230272 0.5237152020111755
Ni 3.8915840503656414 5.430485181520989 2.0827443132270997 -0.9339727637211269 0.11472493704942177 -0.6108059222830965
Ni 8.702056824101211 4.124388424792441 3.346888327117661 2.203408155528502 1.3796480428087403 0.2079472241403774
Ni 1.3758985655322589 6.96050261313525 4.604362676202814 0.18681249904429117 -0.9656197012024466 -0.21921636929629343
Ni 8.668598257680692 5.657455895959588 0.3858447024259431 0.27172575204891913 -2.858491816683051 0.5372685152155778
Ni 0.14839269242744052 0.9585576112897005 5.831597536756999 -0.23544902910507196 1.949679611387952 2.377399334438409
Ni 6.205691318724818 4.6549666908689735 8.888994850721563 -1.8370478094221327 0.5620467506015223 1.5532443002730734
Ni 4.338754758910074 3.4654512652432263 3.4575478043174788 0.20367353646568795 0.9841185313375825 0.1711169426859053
Ni 3.1750084927597695 4.544402757076837 7.098053884850757 -0.7935797324816397 1.1386613717148906 0.4471248670499461
Ni 6.051159043667275 1.6549496240230066 3.177187617404181 0.10405100227534338 -0.7039024824294652 0.28304117706173837
Ni 1.801581194214639 5.40495488056475 0.19872936928941606 -0.0625899069170793 1.178417568566906 -0.5340960310248672
Ni 3.354703594128627 5.877720198128285 9.682411193954703 -0.6454260834601271 0.6376523530519792 -2.1996162925862373
Ni 7.48099370020856 5.830729377908361 7.508006761357078 -0.13032896213526585 -0.42179127338116396 -1.6301215703471021
Ni 7.587010135269737 3.220593722462851 6.3761701559989294 1.0752443409108254 -0.634502751679404 0.3401088686090078
Ni 7.400939348811412 8.192075511872787 10.515142730761875 0.6510048630994852 -0.053665864954572096 0.9377134617104818
Ni 5.531926557252836 3.439296257390612 13.012787966589222 0.7249006819476871 -0.05139558086315665 -1.3709844535964713
Ni 3.2189676471590527 7.999463676734778 0.5263587384661683 0.2875470353518919 0.4771525237602879 0.15324186217769736
Ni 0.9985572263899052 0.49433148578763514 13.093139972448762 -0.10605286319672058 -0.14988785810379993 0.054304012759203255
Ni 0.554423695785786 3.250708269614544 0.6961660158266766 -0.030212004807006032 -0.09416073974482493 -1.3400574250003112
Ni 0.9507487750850211 3.8565729035703082 9.901956164505958 0.00710498647589744 1.7244394044950817 0.4657604798732624
Ni 0.31851875404242225 4.994035545742275 5.690523101883262 -0.13209839533086282 0.3011561414948943 0.0035244682134907045
P 3.9318684583156633 1.3253708018549215 8.563268081518915 -0.9506512528180723 0.011600046132773571 1.2398306815670646
Ni 7.01471431012797 0.36273973412621535 5.369757240387116 -0.3014353632982099 -1.0676935251467612 1.8663285606641213
P 5.171048082203171 4.928698553874416 11.286225802449632 2.362973388821066 -0.5799161746827753 -0.6696718433813693
Ni 4.764115847278145 9.201656977610474 4.622985372521056 -0.47345527741435883 -1.0546932562323512 0.564595228054989
P 6.282034176208214 7.235033733493407 5.825667414674504 -1.9342787034518492 0.8671263955205388 0.9558808766481278
P 2.4850472863126702 6.8478440738670345 7.588735428727666 2.245348761626346 -2.2128204499813373 1.3251421984513758
P 7.92002484536788 1.8453933587559517 4.292081804258012 -0.28943859594764987 1.7083905785623352 0.21041419762363117
Ni 3.900146209592419 7.7396131684414184 11.394747495902593 -0.8620872904347348 -0.10652568906808105 0.8290424441646239
Ni 6.188015788303873 1.0404493359114793 7.951855499111379 -0.5446149282783201 1.797028331606402 -2.0285417731024937
Ni 5.682811646459488 4.67390082194879 6.090525683691595 -1.2639175473129394 0.7314351406320951 0.5554670405014757
Ni 0.8665474723198819 3.2838912300513696 7.306385366612092 -0.07613859213579145 -0.40594993547353314 0.27452799738440464
Ni 5.345708780936541 6.253444648832963 3.661414469142961 -0.5140427119184179 0.3969670152486325 0.7747340605300463
Ni 7.677317029260323 2.8461278724170445 1.7105880413246535 -0.6365331518458716 0.12458306079042415 0.36782433224640526
Ni 0.8320360910416484 8.88977205959558 10.833340863176598 0.1774950782981072 0.5986574598460206 0.18774478105057343
Ni 5.351266834941048 8.901549621965462 9.702714168086871 -1.6800372242306227 1.5180122165436567 -0.28153091106479905
Ni 8.842744491911164 7.191846275848468 12.078122638026004 0.3195729534391851 0.5548499757427671 0.08824591692228673
Ni 5.469437493883155 6.771703327438348 10.133669139237327 2.1658723633665735 -2.1843405973740895 -0.23145610589559493
Ni 5.442354612552102 2.6295199429653615 10.153233489333191 -0.20908827972335606 1.2147585690897853 -0.4811325914539585
Ni 2.62791224139381 8.51558181553347 9.222897012087202 -0.010003391069615031 -0.8227938921517508 -1.0711732561652454
Ni 5.840761435714843 1.0214784573671698 11.581148090854738 1.2968150693719085 -0.5650582837343365 1.2067567818312313
Ni 0.06194152614874139 8.605723345933837 8.609159233863897 -0.4161137633804124 -0.05146782886198878 -0.10850492428163894
Ni 4.135559653998194 1.150048648760685 13.150406302427431 -1.3601184574162446 0.27942774867886716 0.8805321274034835
Ni 1.5855795979270844 0.09367388042472141 2.2196910891517048 1.3212906859157698 0.358192465583596 -0.5313104978599301
Ni 0.5756389257239815 5.807780586332727 8.125630583950477 1.938463173846842 -0.5651711551631169 -2.107365368269616
Ni 6.987080216829528 8.162190636374174 8.0122811923498 -0.41609885098207694 -1.2765246945539885 -0.4947033881598577
Ni 4.84142332570447 6.420296511361654 7.878454276160617 0.4460835702696253 0.1763943890347607 -0.9849137735453684
Ni 1.1411190148889812 6.663289120319029 10.235615792605946 1.1483644579352672 -0.40865345044762524 0.4552595803419385
Ni 0.347269051574827 1.9227559583790166 3.0461296226645165 0.26477888841744074 -0.5069009586673141 -1.2542468569923948
Ni 8.303604066607855 0.18090776769711311 2.0450689752560525 -0.3169900232033573 0.5372913980337133 -0.9794504364379518
Ni 8.438963352066379 7.4016742981012635 6.00978231733521 1.195411017801109 0.9347201834101128 0.07865107414500003
Ni 3.3927464067446 7.561498208045743 3.212160179361797 -0.6836779278524742 0.13757793038819532 -0.2912977606435757
Ni 1.922535473592061 3.5486475248544926 2.4587719305138425 1.4727479453892185 1.13483736998311 0.7179296499464926
P 1.9169406721230613 7.338808573220534 12.248979055497777 0.015119886360573959 0.06859960344626895 0.39306639464264564
Ni 5.487425377752286 2.1744025952244015 5.823314658260365 -0.2740150623037281 -0.6900992579977857 -1.3497044611717723
P 2.2030748043947597 9.061015244131138 4.448470744959044 0.43785604015351043 -0.8239645154210842 1.1144456937006355
Ni 6.76756923768293 8.247554996390503 3.472391942599268 -0.35335442076500434 -0.5718904761648215 -0.643482329470195
P 0.2622271505594195 4.254584691489755 11.996317269945784 0.8810887712379019 -0.49633603866727416 1.2205594920422784
P 5.427021732992561 3.221034692036762 1.6591581273940226 0.6473911776062979 -0.13772654015091765 -0.0807732626943254
P 2.2817694996056814 1.8183380380232685 0.7778969702913002 0.43051888306214886 0.30914661589953857 0.8778134429207398
Ni 0.11822026801917176 1.950739152590138 10.978731287754993 -0.5811533895239862 0.19321994523253175 0.7610336802248183
Ni 3.190589417704636 3.466140280202463 9.524233570419494 0.3146793727923096 -0.8444996592599586 0.03861719815156575
Ni 4.693790387105415 0.14573217599817567 2.149059706337074 -0.3961589175250403 -1.0828614911364511 -0.9859170179989021
Ni 2.786431616348801 4.927008170507756 4.513145363779423 -0.2715192924650679 0.7487175818616267 -0.33645327413429155
Ni 3.265251078687494 0.6540065685009189 11.00716923183921 0.03990197840126031 1.917463945887356 -0.548449728643378
Ni 0.8933529102940155 7.498016963134761 0.8687550762492754 -0.3851805641366657 0.2857320936303402 0.512805239966891
Ni 6.798088006944042 5.178875292140097 2.088337277322875 0.25607030489984933 -0.7340214133020326 -0.13964226911639174
Ni 7.5971156880052035 7.625089695350203 0.7020474475187187 0.7578033462129787 0.9614622273906474 1.5279698419770007
Ni 3.217038405273191 1.4806380262023169 3.592369658107799 -0.4894963900376216 0.5148618653856036 -0.24618595590660178
Ni 2.5286022186025345 1.2543471398568318 6.580413482335461 0.7897307910491947 0.9296656517053409 -0.410116408146397
Ni 7.513404963891041 4.1770383545442265 11.162187492114668 -0.9785137835562955 -0.044915629565767806 -0.13691150044879002
Ni 8.257375756276153 6.058315612377211 9.657038907095782 -2.4898449885353506 -0.03801735978403775 1.7149967710249432
Ni 7.994328218571936 2.393573660324444 12.832034538242977 -0.6999782076743946 0.1342450093602204 -0.24706630162902607
Ni 3.771585205065027 6.920539745499537 5.654448115990867 0.18411669737968292 0.04055940947960111 0.13769774379551125
Ni 1.390468935203578 2.908130031882198 4.764140651816677 0.6982542830047522 0.5459907255799242 1.5918774392642392
Ni 1.4362654628274918 8.318229557475913 6.770686341358516 -0.16780690447606586 0.8143352198614363 -1.3985587636703138
Ni 4.318653895832617 8.756746238132337 7.403518102132181 0.17965197674010996 -0.26860571836269875 -1.0932914282205235
Ni 0.11487900481018132 8.837039448048687 4.100261876979819 -1.2905045537728483 -0.6918856604742472 -0.8956995791725413
Ni 1.4192054524367983 1.5442570741051458 9.21322967286581 1.3004341541817346 -0.31046842003475567 -1.1281483879987089
Ni 7.9975803691795315 3.4116529772260473 8.955942300220809 1.135962741836805 -0.4009895061444642 -0.6106267163927548
Ni 4.913926073148387 3.1106544955670885 7.8411555997006195 -0.1949531258735546 0.09476186366393358 -0.561266163681756
Ni 5.803802673301402 8.376171122114634 13.070134222303162 -1.9247381109512658 -0.5883982440118576 -0.4536205020766188
Ni 6.633587982142878 3.7414798447794575 4.150079495905836 -0.49673713076043485 -0.9247360756142073 -0.2701967169989024
Ni 7.309677020744018 5.790794070871018 4.750613910136948 1.9367040250638905 -0.4396609545727331 -0.4442668287758607
Ni 8.65212620672188 6.7518045754156 2.867702308820655 0.4814722341815643 -0.15511928170606834 -0.18367138231214822
P 3.6036768529321743 3.119620876903285 5.539955878244471 -1.0160179511493406 -0.08279260711719935 0.1486987228917052
Ni 7.439358822938434 1.171895016401541 9.7304667719583 0.7450702149170265 0.09175932939218391 1.3047086131873722
P 8.679475507170503 1.540518019593023 8.001713540248337 0.5288471239211022 0.07403954351491765 -1.0190927334199225
Ni 3.1845352729294785 4.891886781318946 11.622158261228488 -2.6790606977044957 -1.3431532903168157 0.1267240183928269
P 5.632899402812402 6.723233421772598 1.2450840227448576 -0.5107169899792946 1.2048922178186667 0.5192078010591251
P 8.009449800210644 9.414149191038986 12.5258574201504 -0.8388591731447295 -0.6036202031679346 -0.5467209188777294
P 1.4984789202134785 5.822994036632667 2.4116313643761114 0.16779379184994325 -0.06295371801440125 0.8841013328119806
Ni 6.8042615809788 6.1326006118490195 12.612664118148063 -1.760104461996859 -1.1078654693799566 -1.4128083316107927
