# total energy = -340867.27489795664 ev
CRYSTAL
PRIMVEC
9.24336962123027 0.00000000000000 0.00000000000000

0.00000000000000 9.24336962123027 0.00000000000000

0.00000000000000 0.00000000000000 13.52860577478850

PRIMCOORD
 96 1
Ni 8.348232398280727 8.243893242814421 2.677026790894218 -0.3121445221855979 -0.6348665627767259 -1.2815265186439542
Ni 5.945409240713262 7.271130274873377 5.269527588949879 0.5340862608328544 -0.0405223855940786 -0.584650089823335
Ni 2.4810960109062905 1.5876966139108255 1.3891980258622547 -0.23401229665854537 -1.3034004358989102 -1.0873637498821789
Ni 8.199358688328537 7.249112568608251 10.277046322018672 -0.2587414239741092 -0.30524753795544846 -0.10344422192927992
Ni 2.041370434733091 0.688802033718628 10.23616197416759 -0.6499432546041903 -1.7978238309245036 -0.5922518134299929
Ni 4.639570694452512 3.9359561610320104 8.33588048355273 1.7008973555090836 1.8054592359825745 1.559960021730352
Ni 8.504639454415148 3.3563414301080075 2.5296865559501667 -2.3603009841952254 0.5793353624786409 -0.6012920692553902
Ni 4.5932244395350725 0.794431563573939 4.920461905647788 1.8356085058724452 2.2437009416102778 2.8493949965881056
Ni 7.3528046882061435 3.491830740953605 0.11180594938778667 0.7839316678689144 0.5090560573371039 1.5486993612148683
Ni 3.725595556841527 3.4482759836398884 6.192407788784132 -0.30732293242723846 -0.8702428296623335 -0.6015545788881577
Ni 3.472687722618141 6.622190272333739 11.260237659484616 0.048661469761445225 1.8260483729878358 -0.18914140428778392
Ni 0.12069899523064034 2.4017416833302603 0.7634653512486671 1.648296441483916 -1.9854308008456323 -1.6539150732222743
Ni 3.046993581419946 4.241024329619 3.75288937844508 -1.3826608614931348 -1.8001627634703257 -0.6844400028294793
Ni 3.458961318838245 1.887089353594882 9.181891897882611 0.7226026299421298 1.3227263899210315 -0.9117437771195974
Ni 1.1651544617287548 2.8895789980047106 10.01889287557637 -1.0188587630322452 -0.3873863135387328 0.5961305796591089
Ni 1.636557065345525 8.869965149090447 3.130830943227121 -0.12373793918130949 1.610158496961614 -1.2158260911223513
Ni 4.151437591952502 8.961400560666696 3.18006112944377 -0.6174563377200786 -1.7412397638818724 -0.36026297495937953
Ni 5.011773456072083 7.107180629187174 8.997983968666745 -0.3633719529020064 -0.6983542989177264 -0.8955972492667221
Ni 7.3047114364439905 7.75457698901217 7.238263625768882 0.9505602357661629 -0.21781100430833455 0.03860357130481094
Ni 7.695345476943772 4.301466723098286 4.475506430983905 -0.2873194927221181 2.4126949244159093 -0.7144766584008856
Ni 1.803806593960632 4.741016675250058 11.674496828214052 -0.17120461730370515 -2.9032518945075614 -0.32466245214695055
Ni 6.410045697820347 0.8290257984470958 3.1190197656177263 0.12397319512056713 -0.8795311969427949 1.0207901757270033
Ni 2.9340396055342044 2.585388949524852 11.882512389550017 0.12650341774158858 -1.0329160124562597 -0.10392810354423392
Ni 5.466075826023663 5.609948873049978 10.903853076173826 1.415891855632123 -1.0489476119978256 -0.08277898027044454
P 8.581950997320906 1.1577690094593025 2.804006655733235 1.3349391299371396 -0.24900439919200343 -0.05325063179402442
P 3.495028946817473 6.692523071230188 3.2435778676349707 0.22117092191950297 1.3737905555866985 2.0440316412079764
P 2.4939905114267984 3.7479090509322126 0.28281568073532576 -1.4645386701055487 -0.8151255769732156 0.07980267125093998
P 6.1701247978129565 3.509753634508634 5.993239980780232 -1.6557603539611292 -0.17478976355180217 -0.48223559471015015
P 6.974547519532142 6.560906732225518 3.3308648549577393 2.252202551323386 0.6500437847377966 2.297681509591791
P 2.892157898108812 8.041685290565937 9.652565199641986 0.25054397576498144 0.4151017771761302 0.306860133858207
P 8.70027537091447 2.683276233046129 11.899139362694312 -0.4831933306377291 0.6133867956363952 0.6255727961796258
P 8.914638354119564 2.290211186355026 8.377805634815001 1.5697942342119546 -0.12783550628945078 1.9150121419127533
Ni 5.222938233413307 2.2124189882327348 13.03969536937993 -1.6629594428127297 -1.0136396807251509 1.5238522202642013
Ni 4.074273942959525 4.546656343748464 12.556439992990796 1.0448718992665553 0.480415767892592 0.47110863155905314
Ni 6.457889378604684 5.483305466862537 7.203887534417076 -1.1138381420236236 -0.7927328111003122 1.240975079584153
Ni 1.7562864311105015 8.861535196061986 7.805815759431764 0.8694583860878252 2.0107672227278917 0.8115885103542345
Ni 5.962666611660781 7.7761232834303105 1.9429377924084377 -1.2979347847986487 0.9915526190181245 -0.37029670504629775
Ni 9.444043101654747 7.050102822223635 8.055162123368016 -0.6954576940962216 -0.252780578404984 -0.08717608089687567
Ni 3.3376513368804326 7.966989621242477 5.413971876214307 0.6129237399570476 -0.9611074151543899 0.085247239305279
Ni 0.7014589796417332 -0.4091475853689752 0.578567457154129 1.3408979186237358 2.3061635789208736 1.3274605621719073
Ni 2.6690137138324053 5.751511077689106 5.509077829838364 -2.7999002322920874 -0.28707189548768625 1.7667777602519765
Ni -0.15613345239577867 4.545815197119527 8.723109266710752 0.2451228047494101 1.1368425733385972 -0.45307619953737455
Ni 0.8072761498988839 6.898289720754942 1.5149734796490693 0.3772461397809374 -1.0573026688307403 0.63758190482536
Ni 2.449853421831511 3.9624753882673778 8.299285059172268 -1.9539478997460025 -0.07906784996744447 -0.6092668599307507
Ni 8.37049043215412 5.69254762333762 6.112832544675887 2.734974221042664 2.219722062197177 -0.28682481247388664
Ni 4.434839302317219 7.4086808571283465 13.452398879014309 1.4342125083181816 -0.7958885831204745 -1.4709008648781505
Ni 3.0939406553580544 5.45099989028965 1.6843110854452394 0.15821514702257267 -0.32694327776132726 -1.0131213463278357
Ni 4.670841013635939 5.3560150248066805 4.776572220556285 2.9316576993437637 -0.007500165031787082 -0.21230807221223433
Ni 2.2789435188750984 6.169422301727252 13.1945569341258 -0.1671877828348282 2.0517446935815182 1.6406098714729358
Ni 5.7705154454813385 5.307200790219725 2.3762725028756306 -1.91352938671964 -1.9863168029950113 -1.3762639568278556
Ni 2.475346635046967 6.535173191401794 8.17165630979093 1.3211526176760087 -0.7435324381162615 -1.3673681970001226
Ni 7.660608894179564 6.473307319012002 0.9849032095063741 0.2560268532564236 -0.6715163527892758 -1.1627106993546104
Ni 5.341844939288445 8.862339369212728 7.0191273665288145 -1.5315269632006399 0.09836037964846932 -0.1322521472999077
Ni 0.9397086784347092 1.17599693420944 12.097293173058713 -0.7364091968079188 1.173584923064953 1.589945769459165
Ni 8.716081532842836 0.40349896223773324 10.395556487340167 1.4486004016087375 0.8898922284621448 -0.34360042670203406
Ni 8.77645922273528 4.730433017116738 11.050516696466909 -1.12717136879742 0.2914026616525562 0.7778774912550345
P 2.73301480458796 0.23074315838243498 12.929397013565545 1.2797190331215704 0.38925653397825216 1.722330585682195
P 7.45507332889353 9.054148530718868 8.92561947714348 -1.4740422387206096 -0.8688498059695487 -0.9083000415453711
P 5.301562334794987 2.3164808426125774 10.255400199209406 -0.5245631518337676 -1.321225379895473 -0.14381979753284907
P 6.4312684743042805 8.33376652493693 13.255977276103343 0.13970166159941746 0.0580565378231 -0.05771329555106835
P 3.163977666428943 4.978386405261993 9.984624931648284 0.5363274914585473 -0.8143452471637652 -0.028046107503938794
P 3.204944280269009 1.235099039104156 7.050919936091745 0.8593693772829394 0.2082117906556737 -0.17159979585959478
P 0.17465716497147638 6.4308063058268425 12.583456513507885 -0.6274553579143194 0.0021270736453318203 -0.059963782148141895
P 5.873468095515331 5.204830472467305 13.575955924109422 0.4716717031513748 0.29202101196284547 0.01151982771414145
Ni 0.4650653494541465 4.7503986953420405 0.7158213272465831 0.039704003457841294 -0.3192417953520115 -0.1112133243517375
Ni 6.302508336490174 3.422690336728945 11.697711550835741 1.2689350551321887 2.424383673607747 -3.059708406967814
Ni 7.4797161521105 0.7790422776122229 0.7765918603448488 0.1054432546371797 -0.2779647909800955 0.38666151955756634
Ni 4.823938943471907 0.5333756990933288 1.1487964706383296 0.34590773467897196 0.4686833099470122 -1.0474265473676092
Ni 9.087461634572568 9.02933008348047 4.670345569028124 -0.13556912748828265 0.4931512131813895 2.009749322986339
Ni 8.547732043251427 8.63535918657359 12.492598812528435 -2.270854362096618 -1.8476114438705922 -0.4000945051340207
Ni 2.2154785435533717 0.7125445527415508 5.145145110954062 -0.9728774112061247 0.247096126425697 0.4711479694374208
Ni 1.2443516520224562 6.277745349469069 10.13530664468421 -0.5144782567939398 0.990681529267081 -0.41390055777917745
Ni 0.9853986541141871 6.898835079558319 3.8127670020449362 0.09352567726398732 -1.4675723147255502 1.9852150852904002
Ni 8.216042970364034 0.9405498250636455 6.925564131282443 -0.5974593257728613 -1.1485997138745252 0.4321433060394492
Ni 1.2005658104700212 2.3436193756077115 3.257674930533771 -0.4603333953204201 0.09475980678140454 0.9601586780878755
Ni 4.130390439489995 3.1931867142029975 1.659012907327262 0.9965989231927804 0.3220183296558842 0.5778695765663919
Ni 5.6848016796557665 7.960546992666997 11.175115469310166 1.4890456541079775 -0.36137086331157764 0.49373845314342707
Ni 8.101998276871539 3.5651583915838496 6.841537280399519 0.38501961307876914 -1.0110148415077942 -0.8093251682413545
Ni 6.944386404694566 3.032130243185554 8.956288977306237 0.44068091119681524 1.486455267672982 1.0324542423284928
Ni 5.4853852250110045 1.9662033535626446 7.547934068054196 -0.48794010129409515 -0.6064427602183943 -1.6013928349538422
Ni 1.4747333946555352 8.148131934289358 11.826909824366458 0.558053313171413 -1.2709019490505726 -1.0360229335163575
Ni 4.28640003073382 0.4226974407904898 11.334292763298349 -1.186529399040763 1.530809368308325 1.6037865319969993
Ni 5.196613116938464 0.22578686363039452 9.286832796706541 1.5183660003386497 0.16700626295164142 -0.35844751901719557
Ni 1.0374295813041086 2.257803932717104 6.452184370919195 -0.09694061648280725 -0.8502478745976454 0.45818755262201083
Ni 8.035205688512262 2.117350932423827 4.82524780460001 -0.10919937924550226 -1.519784992173363 -0.7532931170474509
Ni 3.0476313739188097 8.119847223470178 1.4348306926505305 -1.6315503323738287 -0.5309495149760857 -0.7365176973613251
Ni 5.777355538947414 3.1826492729174207 3.8112520137758956 -1.236790094968528 -0.5769583776060321 -0.5980851322823184
Ni 7.093287844755401 1.1211837527853445 11.909854276675224 -1.2045777719020416 0.07402951621258863 -0.4151606554385237
P 0.4146732716852187 4.843303802676541 3.371883231667278 0.9199867338546801 0.311542884045857 0.09675883948930433
P 1.1944929166764917 4.282739656392515 6.581815234144793 -0.6152315621546179 2.487106249447949 -0.3668838227100068
P 4.421575067014761 6.189092192126995 6.975024477400857 -0.34444760519367773 0.7305187994654128 -0.9221114935071668
P 1.164923377490036 7.769569734420245 6.164728518670396 -0.6533425100937263 -1.1782183080719064 -2.0468164030419653
P 6.213069492736456 2.358186926016544 1.6089166173838942 -1.141275669409286 1.1289238327121525 0.11919634255721408
P 6.8377271634715235 9.269343417183348 5.45611332232402 -0.04227844905323687 0.41292045325409527 -0.5845834982514576
P 3.2290694747912503 1.8999099071590002 3.597012891722757 1.0565495927147999 0.7080496718286193 -0.8774167217029535
P 7.0842385859671735 5.477639281329151 9.443426568905847 0.21853631251013333 -0.07917043698357978 -0.19913116851064414
