# total energy = -381160.56882437837 ev
CRYSTAL
PRIMVEC
9.31937498832164 0.00000000000000 0.00000000000000

0.00000000000000 9.31937498832164 0.00000000000000

0.00000000000000 0.00000000000000 13.63984731227456

PRIMCOORD
 96 1
Ni 4.703078379803783 0.5921745056692199 4.088843982182751 0.90787375264123 -2.0500539361426564 -0.000945137522088695
Ni 2.0781273737208026 3.3636512450083997 11.470634045143745 0.6361076342726787 0.5754275427838025 0.02800111319861629
Ni 2.56741318642581 1.889559145190973 0.5981687275032809 -0.18981966130173117 0.6461079400185001 0.3289291978431045
Ni 3.5029665780267067 6.196675930956236 8.443910814870604 -1.2553393187256252 -1.6509845298390406 2.1210112411878246
Ni 1.4897393300092614 8.850982967476547 1.706863054686084 -1.288268722463794 0.25858638645348364 1.5069047937765854
Ni 4.964775741934164 6.4731165439284775 13.485402717743519 -0.5560226558946295 1.0408452946056654 2.1442146758874814
Ni 5.378360273609824 6.963874817842722 5.01590369564378 1.7421527626144446 -0.450381683424347 -1.4039192566512788
Ni 3.2617438822045206 7.469106080731309 1.820469028603608 1.630183276822973 -0.3656872312987444 -1.6144524963512776
Ni 7.306874405222399 7.038122276412317 11.998182414727022 0.06602490074055727 -0.692407337305672 1.1610273981149166
Ni 0.6620903188587272 0.3385495859403671 7.193491164361209 -0.2176575094496058 -0.5833534824990986 -0.588432953904535
Ni 2.2611878517781046 5.320067584598552 1.695814935929431 -0.1597120432830733 -1.2911049063610087 2.994167644952527
Ni 7.922913033793484 2.1638656213472944 10.662963909565132 0.6055428741119442 0.508326378259931 -0.09972486409616373
Ni 0.06410518303786396 7.473784406851798 13.47942899853389 -0.009439548146345034 -2.870704556699159 -0.571279839164016
Ni 6.099856946761494 1.945699058636841 5.215658901613917 1.2264514320466813 1.8282448664185222 -0.1650303701721932
Ni 0.46014319594926795 6.110602185839032 6.208681149498894 -0.07069736651556212 0.7742262676556925 -0.46337346769832455
Ni 2.402655960361816 8.175197827434436 8.054166175722479 -1.4460465248386323 0.8880330637662189 -0.5793261065072602
Ni 5.450520192237208 1.3563883968258408 10.06989008423331 1.730530090773852 2.2247130876538654 -1.001484790530172
Ni 8.31167075115643 5.863853100794834 9.886747595678276 0.19566532144923077 -1.204160738969281 -0.012014507962372856
Ni 1.022866613558788 7.0933582105082085 3.4435564959838674 0.5334460561456942 0.591926054659458 0.4570346699644904
Ni 3.2296572749677805 8.031828566403355 3.8028435546001553 0.3279948589542932 0.6621336260227951 3.313042286773107
Ni 3.2521915230939604 5.619694801928914 4.064511094731363 -1.0285312531250028 -0.11802957594262253 -0.11531731921778204
Ni 4.196449210703895 3.7543660310671676 8.221104135476104 0.32762204899590675 -1.706536556072732 0.855737436957307
Ni 7.71304071460342 2.8176383982487776 1.4564905967421924 0.11400451394362947 0.9377872523712107 -2.631452094687597
Ni 4.318831239815969 0.2626591216037573 0.9860243293912001 0.7814816636665252 0.47425591893878327 0.3085868867413266
P 1.650237601816157 7.959072207792483 5.588040613680204 -1.8606659630617053 -0.8359515125796313 -0.32012291240538415
Ni 2.5936285875750844 0.5371743517542997 5.475853048598413 -0.4989886457987729 0.03009553383379978 -0.03480965148001747
P 0.8030868670804927 1.3343853530599552 4.4115767253109786 -0.27328461189560677 1.4194785445421167 0.0028102157552854826
Ni 5.599853853103175 8.963887192475998 11.298812733025308 2.317531197327867 -1.90748318052556 1.1178369787703715
P 0.4108949601251163 2.168171172478103 0.13384765585716976 -0.937356078371063 0.5761842184441689 1.5866473012135514
P 4.717793672521416 6.825127966683678 10.366897625323693 2.900792120113159 -0.6775311915247879 -0.6309248045201585
P 4.820521140302592 6.134403868930125 2.691728053859378 -0.8806118316014834 -2.468351337437949 1.24620393208326
Ni 3.8243358966301786 1.4330309347041306 12.07887515286819 0.11907421515705298 1.1779362580551132 -0.27724668186714835
Ni 2.098704553151161 2.2313285751047047 7.351618587233738 0.352261959031774 0.4602796592643492 0.47482670384058867
Ni 7.931924869169008 8.242185493080004 6.545666944357551 0.15902504451837773 -0.7322658640635066 -1.695010043490371
Ni 9.037286587944068 7.578263917084472 8.464111491561384 0.02142166020888569 0.2966004038034118 -1.5855355562066114
Ni 1.6828647327879338 9.010456108061822 13.176582869167637 0.16622721869377177 0.0785384598265357 0.024382028388790264
Ni 0.3675794382617281 4.926845886734184 3.6245434131610716 -0.5882894863481353 -0.00914309995184877 0.9907290946755648
Ni 8.262557646266037 1.9826317407394265 8.196702284651623 1.7636003909652593 0.9380646744023136 0.9411183736269727
Ni 8.081062823165393 7.091065644321675 4.54774304160396 -0.012621802529068585 -1.9818178866833933 1.139710124694379
Ni 4.937013324577716 4.277686200329995 4.832775186150861 0.6457932369915588 -0.49771286441014273 -1.2602295569383908
Ni 0.7260873971495838 3.2614736203370023 2.130558176019351 0.4948831082708316 -0.6730230192417893 -0.6632415143749932
Ni 2.5721381094200093 4.831881458113102 6.7035623147990036 -0.7232212373627351 -0.6598165478538444 -0.23700531784859827
Ni 0.5354306967400697 6.1161658525600116 11.60599609939649 0.6026496117245491 -1.0547935292556414 2.2032266356453154
Ni 6.797859476188557 9.21292884370673 8.148689797918262 -0.8000293447617254 2.0158132697922313 -0.2651848656066078
Ni 6.416902075484674 4.326473127104418 9.819080547614018 0.42751069236344436 -0.7413786249980522 -0.9652252939775054
Ni 7.063359143213678 1.3536019037779796 12.834850716752873 -0.7862412898386976 0.4772772222636103 0.6529463030965722
Ni 6.778792035466404 0.6582060034662575 1.951943971651462 -1.8333081398740425 -0.19992075429147507 -0.7264145474890521
Ni 3.4851199753957576 7.183187663646443 6.131997606371739 -0.0876314232667394 -0.649616467392391 0.9115887395989719
Ni 4.1779782099652305 8.755030685132812 9.43120351116419 -0.8766345921212902 0.9716862191115008 0.29897970266886575
Ni 0.9754216767472152 1.5063650945490072 11.856900693638153 -1.443222682236592 -0.26837071953375713 0.21987457170558264
Ni 5.76749076596245 7.770289633643587 2.0671463544622926 1.1647125602759876 1.5793481964489768 -0.4611335226242123
Ni 4.28591520822719 4.093143941688714 10.878200460856696 -1.08346724304125 0.4463581640872506 -0.12915216821834533
Ni 5.453092339666002 9.232620682536597 6.056119257222293 -0.554132123740136 -1.0818744446328334 2.265022071685557
Ni 4.905057188587365 5.174545548002067 6.905377102587126 2.4081263312086203 2.0773528810679256 -1.913263020432131
Ni 3.4605447842010775 2.2295112970300126 9.64941387493593 -1.4296122905420088 -2.0234491890709343 -0.02333687495372755
Ni 2.8339100265483275 6.9917117901971055 11.123513430253151 -1.3953369142989065 -0.3155435205648178 -0.058173008796306276
P 2.342257092658849 -0.10728836977991556 11.229399234134394 0.9421941231896548 0.32922564603760074 -2.225974470864792
Ni 2.878027946577002 2.852874954148317 3.482743534836545 -0.7086718787936505 2.8237410434654273 0.8938748672589766
P 6.507430481728559 8.59746801636965 13.489140718952541 -0.3540157084980871 0.3543183273401704 0.3228197425112569
Ni 2.4301760739749714 6.621574183568696 0.03314249239501005 -0.7308108767845349 0.4589208312436096 -3.68532439768055
P 1.3002205252557468 6.211894469909938 8.709410481895725 0.564107489785293 -0.878679390465461 -0.3526846483914894
P 6.913298571117835 4.0097914539961765 7.454721625817017 0.20163593721036885 -0.44945737183786466 -0.03658654087478216
P 8.440557703838428 0.16535366604748283 9.479380018893012 0.5701542102000051 0.5893765487647268 0.4730310453927466
Ni 8.247786437299952 7.950572938027769 2.544731692178706 0.3567613895640243 0.41448085576267973 -1.6777931653914526
Ni 8.226407791641781 8.974035991570046 11.60562705215671 -0.09606412741512488 1.968272543898791 0.009664776783273677
Ni 3.9290483912314023 8.522083594081531 12.622887129870703 -0.5741620458078176 -1.6955445758376024 1.0749298949942
Ni 2.133400585315664 4.052846965304263 9.271222464655477 -1.4610375989308255 1.366333327977705 -0.7595902629100725
Ni 9.231483718818073 4.473616734906013 7.916539513407424 0.0407805243514717 -0.4326521273550678 0.12792035269377325
Ni 7.305606970257486 6.06292426465891 7.244572521197115 0.03446923742146321 0.20397306998397777 0.12553796850452573
Ni 7.818927450422137 4.094169072910335 12.473940223056529 1.8446240791074942 -0.9473800382659685 0.5609283207263631
Ni 1.194026250070543 1.1193501002628172 9.57382256252854 0.04032518198160797 -0.2313074961328726 -0.737085396939337
Ni 7.972585301168398 1.143356809598235 6.14797008274207 0.7808733406585648 0.4657265413115334 -1.6313395019146033
Ni 5.269500657248407 7.373685002747869 7.958523296620179 0.45001915787860564 0.34023690954643987 -2.6232451333967726
Ni 6.099157993655844 2.024829869571248 7.6928055562260935 -2.3223628143885553 0.7696275925414164 -0.529036614224089
Ni 6.937538264821803 9.071758955114763 4.28041584519193 0.6010514139994939 0.4293742279347444 -0.5967494441900303
Ni 6.8522753053071535 7.5179209656299575 9.434054307897773 -0.3166326398639385 -1.1570771552179169 3.163538294371287
Ni 5.985853035542487 5.218523677409612 12.071291977640618 -1.1459733319952716 -0.750809688503965 -1.5906124565088864
Ni 0.024331955513913827 5.885138552705585 1.5125904368766698 -1.2828580929711841 -0.357224702353688 -0.5181924724207334
Ni 3.0203907151359464 0.8652396411099056 2.9088340717241907 -2.475431898433814 -1.3141044525799754 -2.0329496723622023
Ni 0.5968733344141415 7.9987261473197355 10.529852484312581 1.4193026810858849 1.1533313150222395 -0.393942883710328
Ni 8.692404486866506 0.04200614971213573 0.4061905397553497 -0.7835223482456376 2.4115207016021505 0.561254079496898
Ni 4.215330263931207 4.061672413184946 1.7017485818276687 -0.8699345543932954 1.5836123710419692 1.1570316466919621
Ni 7.485750484020539 2.7128047517759075 3.5981779700784515 0.8814523252249078 -0.49993558309307456 0.5566281506891124
Ni 1.3962846400963853 4.362296803612704 13.445329406352876 -0.8283299914786315 -0.315759750340682 0.08058865748734508
Ni 0.15705942252709398 3.3604081025981802 5.318898935005905 0.9060930065917234 -1.2616169242042208 0.5697230361998575
Ni 5.216193833724109 2.3761143810965715 2.9683988553877474 0.5576277955982203 1.0186073091430716 -1.0669245081912204
Ni 7.367869712908854 4.340806325457629 5.079969737307727 -0.33405340644354725 1.6643416678722371 1.546565088480685
Ni 5.358379534162956 2.943077182276232 0.23808393040907705 0.6831485377115654 -1.0562906826264582 -1.1992789853969474
P 0.14713242455190498 4.223820214321178 10.82842940810952 -0.34959083995751405 -1.9253253509133035 -0.380992237086931
Ni 7.052073380401105 5.519054874089949 2.8400887720022796 -0.2568999998899963 -0.16710165087892512 -0.5430954063100002
P 4.045466020508591 0.8392320620173784 7.587505941016123 -0.5972664930357648 0.5586940320792055 0.4599459300740143
Ni 4.008952710269396 2.3303842092375286 5.707935301673636 -0.8840110870910194 0.8260825902053515 1.1899654213055055
P 5.906172381498301 2.8670404037561728 11.67559971353214 0.7418892460858835 -0.30521797026909375 -0.3644533588916433
P 7.039967512611233 5.4921777973339925 0.5540629226617703 0.8472646235996053 -0.3239703111759324 -0.37159202681895354
P 3.6487029602422583 4.609586412391939 13.062744842819038 -0.34268562819724846 -0.046245147010468744 0.44456841917667955
Ni 8.859519514740228 0.9790189553976312 2.601064516681734 2.1680408317728013 0.19172459163392785 1.1971298002644286
