# total energy = -340858.25655989244 ev
CRYSTAL
PRIMVEC
9.47942349206017 0.00000000000000 0.00000000000000

0.00000000000000 9.47942349206017 0.00000000000000

0.00000000000000 0.00000000000000 13.87409447543692

PRIMCOORD
 96 1
Ni 0.9971879372332312 6.433589820056293 8.059253096724214 -0.4546872527782363 -1.2207032167089944 -1.3119215859960438
Ni 9.416565274218714 2.0836720422380965 12.663107562599745 -0.4465574245822503 -0.7510909671898096 -0.6725301387657708
Ni 7.652672098605703 6.953735257614396 8.252339470539544 0.3361581114913759 -1.5560151781499911 -0.36351670600998687
Ni 2.721400246785514 6.373878932498593 9.517406431664348 -0.17136993923697583 -0.23774656688999704 0.511121424506565
Ni 4.169486434148846 8.258265058063328 9.392442985670042 -1.776390343641076 0.597870445168351 -2.226648614113681
Ni 2.8158532208488434 0.399096045456889 2.8221020567081916 0.6591958835507099 0.5563540710921192 -1.3332766546330521
Ni 7.981048802191389 4.685441966594946 0.5383772124493112 0.09557638914542894 0.11500904394874385 -0.6683862918007263
Ni 0.8877944440589813 4.60904729397588 9.69726995787621 -0.6969386495171224 -0.3674453516404317 0.09200898350914476
Ni 0.19530550681695882 0.7213405100901907 3.7380693469048905 -0.33797896675019856 0.1590057612446681 0.006163962718866803
Ni 1.8196795819119567 8.392180871450789 13.398531651931794 -0.8759074841472786 -0.9018144338210276 -0.8646018293264721
Ni 7.412880606041876 1.929650371967023 3.923732384310245 -0.9106945099194768 -1.265032634753989 0.2376087557605521
Ni 0.2415063202442826 4.385475094730234 12.252337607311562 -1.4924909323441007 -1.0426589507756365 -0.9777555652340323
Ni 8.027071402460104 9.178679145744281 7.567999045592267 -1.1968264100913968 -0.49556239372604327 -0.7978590765832839
Ni 4.893828129665416 0.7615531717997501 7.819980128616555 -0.011887238355889205 -0.4146847442433697 0.426038221582976
Ni 1.3888492709721485 3.773284456634704 6.064463919400549 -0.6421821226015327 -0.32271792682607003 -0.5024434371165928
Ni 5.808127989298311 6.9328236497477045 12.731285471076086 0.49649621839422237 -0.26163134392739457 0.48535691394795116
Ni 3.829772340260093 7.486459889931835 7.1300913971940405 -1.2806801114832589 0.4964550807436418 -0.38686926469299826
Ni 6.983690235338212 1.9000556123297576 11.156020496486155 -0.46566766304914 1.4837445536100382 -0.48882121834746783
Ni 3.3092761640387685 4.1119463345337905 9.856586834019602 1.0956604426733325 -0.9601715336036818 0.013815822837169756
Ni 7.627314641197092 7.791915347904804 5.164784174370011 1.38115959435726 -0.8337488485013576 1.3604269897955987
Ni 4.48955916289717 8.371809590713926 3.084877359078718 0.8083828589327432 -1.5854424822721727 -0.9132314174087177
Ni 1.692219255812446 1.3938164887972373 6.314711215897723 -0.7685317883740764 -1.2616742598047175 -0.5472153420156447
Ni 6.280696201161527 3.774763246674234 5.339750630489431 -0.18561256519891906 -0.7399328936904611 0.22707443188813153
Ni 8.044314473497959 5.434543915850318 10.448913340526442 -0.0434416161234026 0.2865288785000226 0.32924158687720073
P 2.6989529723393115 5.136321257878385 7.130480053550583 -0.1409069947614283 -0.38756423387749384 2.3074272761246455
P 2.2760095416103314 8.141061468007226 10.82269553392204 -1.2105435025671731 0.14997707538349656 0.876446130259568
P 9.087847311393135 5.864985570433583 4.44925549872364 0.2960221627024386 -0.32666071352390197 0.6846786012028466
P 9.310016555985895 9.36640964537798 5.823651492944046 -0.328744335525808 0.672322650740655 -0.4766773838960822
P 2.167745047754723 7.828022471370001 2.2578280076627735 0.2699946282904253 -0.05918602344185291 -0.10366559391146662
P 8.186221440752881 6.969366826686096 12.594861402275422 -0.13952785502571455 0.25016936603438206 -0.9005329960054426
P 2.662296042320956 9.27844059687259 7.915517548708873 0.49207392095681063 1.8817153275328367 -0.3344131037758112
P 1.6874131881839727 5.760351695713488 13.49913297996717 -0.0708806861709618 0.12905986561485513 1.7977891210318264
Ni 4.21316761685497 5.410997028297798 2.9753274554195177 0.4861069047400984 1.3214822331012854 -0.02463271094701564
Ni 2.835210203289361 4.405931690277069 12.293016656648973 0.20127366877494368 -1.6572490226915135 -0.3400744158266466
Ni 8.260824502362516 4.822751413534661 6.508628935139122 0.17942494833096842 1.1462610384390193 -1.4367951814436932
Ni 1.2942730644055251 3.577363735243607 0.1912957107482326 -1.457188914608697 -0.09855861170220445 0.6656256983364536
Ni 9.361376071589579 3.159482316573019 3.8581224516140873 0.7196841707437541 0.38214074886907734 0.6792777419022495
Ni 4.339926465628037 3.32727758894305 7.368240105694722 0.010989409131968173 0.20518843044831755 0.25603765188970096
Ni 9.383520004489212 7.467112386914648 9.79927234467981 -0.13776433536738855 1.330355110110883 -0.1749589421398148
Ni 5.829987539498034 9.222417204990387 1.3005967877091829 0.22807150569407816 1.4193160508223233 -0.21491208549398472
Ni 5.030189634272099 0.2929028055989559 10.83691656480219 0.7009202598726896 0.8043559971615373 2.091146078197276
Ni 2.763773269072054 8.503564095582073 4.554477097690215 0.49804582226952937 -1.1669517340191518 1.9880484409741372
Ni 2.195311210799299 1.3618518733273912 11.991282820275492 -0.40765766219325916 -3.941540998350276 2.6453710187615345
Ni 4.334295688169825 3.235649483032157 3.836131137430073 0.3147091975889806 -1.19143017877649 -0.7199834471517278
Ni 9.350171393213138 1.2622420929723668 8.480221015631155 1.4976691341109303 0.9703369041724579 0.03970117524436388
Ni 7.642311088905661 1.1872124573128675 0.13678333894488245 -2.1215095209804815 -0.033168259221852556 -1.5479066901102438
Ni 1.9738718818029757 4.517106367095087 3.6053640558767124 0.5027892504917857 -1.7457636198941546 0.05183832482753008
Ni 1.4168704463365804 8.150806315190797 6.613017292794962 -0.15468476527181102 0.602247234079808 -0.05802748435737748
Ni 3.368418286196648 2.6277909413985836 0.31606577650659784 0.6818444741881612 -1.0473779535178607 0.4412000169250789
Ni 6.006883058265174 9.215516184805914 4.651026920194211 -1.2455045920233905 1.5202141092909818 0.7037875541181557
Ni 6.085875092876749 5.901234885248734 4.152974226649757 0.9059539099106979 -0.317533297301337 0.38916011760970404
Ni 7.100799031161012 9.392402224149723 12.087513186213254 -0.18702615771699405 -2.5006495353500227 1.0211647854576027
Ni 3.2828380523705003 1.1578167655655387 9.777754053719978 -2.1200648181141553 0.04023210804716942 -1.2914610041488468
Ni 1.9582782304245958 6.018789213968059 5.265343792942733 -2.00523652271765 2.3040182504430966 0.25470890577594846
Ni 5.306912960130862 4.58049527090495 11.76724328545966 0.3485533998319352 0.08125405898548586 -0.17875003375113085
Ni 7.013863239798628 1.8842534136381108 8.715095531313544 -0.45243008131294343 0.4035667799533372 -0.4280529380201596
P 7.39681298349698 9.234446593196566 2.95914987156399 0.21392246788720576 0.6026174729350332 -0.05618965981769032
P 2.434458102576665 2.121011490736235 4.051596533843628 -0.7264178899231618 0.7760437804804055 1.5623634889655222
P 7.310957846394252 4.821338979458443 8.462295426113517 -1.1816605009842358 -0.10556178249291498 0.54979313004515
P 4.543392807990069 7.127957579002385 5.0279856683477995 -0.44822581342360873 0.8784415634230419 -1.1413013804408991
P 5.0979011551205895 1.8926142650154547 1.7326243498156109 -0.46589160613448793 0.1178295441166745 0.8551039171383661
P 8.46906847408303 0.4251701472692729 10.25872767025019 -0.5351396417980333 -0.668331527303391 0.07819547466482017
P 1.6624254282852438 2.8545103091898967 10.90338722913674 -0.7442099237992603 3.230573895764546 -1.7874859393336053
P 6.138353180433412 1.6840195546317174 6.11898861445423 -0.1600185187798986 0.313538317209331 -0.4794418340150968
Ni 6.587365025320777 8.569228060991215 9.77167679542291 1.8088770034148718 0.13401746673044662 -0.8145560776229906
Ni 2.88198167800117 4.624963245747491 1.4462907845845683 -2.5269794314938028 -1.2544165498010396 0.0860648501105679
Ni 8.877413592883315 2.118158184313808 1.5719765626366424 -0.2408827985261335 1.6785233586892576 1.5776823787107797
Ni 0.6112948325908149 7.876756186711186 4.255712216703788 -1.1729382906198895 -0.8359579403375346 -0.573001192730497
Ni 7.039798942030389 3.952094818914569 2.6579573102626677 -0.18438743454256631 0.17100381414680874 0.22469898967741947
Ni 1.9794552621445354 2.7062995254203113 8.231777653393744 -0.5369779805583527 0.7053384435450434 0.814784391583713
Ni 8.930659513729735 9.074614036424006 1.2304661180267942 -0.7122909636034765 0.3348036543460105 1.886510692038951
Ni 8.651026004908562 2.2582071845959866 6.208005139237619 -0.5484466433195846 -1.0356251838573067 -0.6831266833346945
Ni 5.487211591873588 5.978937718287384 6.659815309892095 3.0961255121442677 -0.322324033821761 1.0760233851686953
Ni 0.6118996197992894 6.475583665409618 11.73382073468161 0.8313268693234264 1.3822523132008064 -0.42017224972050216
Ni 3.9264908964993697 1.0288681700031674 5.603801863240218 0.5382979849213568 0.538318553746647 -0.7786956162809557
Ni 3.9246803266432773 4.998575757465475 5.426005799256697 1.2190721088634748 -1.486015351922086 -1.420473304355218
Ni 4.203024633891525 2.335189581461532 11.889280433471892 1.2638884938472168 1.0607332917788443 -0.8683540972800529
Ni 1.5655552012726823 2.125656408168093 1.9985354454238078 0.48070553121886883 0.7766119942790496 -0.03133120601311378
Ni 4.20669317072036 5.884778606347295 0.42440420986418287 2.3910534348867336 0.6874690194637902 -0.1665612049944228
Ni 3.334254444514167 6.665977882999138 12.284303170723742 0.23274628546192822 1.3348152027647655 -1.0558170854241493
Ni -0.013467416725388578 5.015686116576707 2.4892207311559353 -0.2906380155723898 0.22534819322564417 -0.6801177213050416
Ni 7.284946308775848 7.549611808158441 0.5229646180565406 0.3958727537431892 -0.7311803443088117 0.8573924560622266
Ni 5.662495608674574 2.8414002667240617 -0.08169272231838265 1.2562260922059525 0.3870790667109592 -0.5117024938210154
Ni 0.1307013409361478 8.906060410187548 11.960440568527956 -0.865111421973039 0.8017311579441805 -0.7214430624163898
Ni 3.7447513924104343 8.293661224778752 0.4622441719141625 1.9562112418588826 0.2428484068929366 1.1860231488283057
Ni 5.195397024072952 5.86815169782591 9.2532300705256 0.7665044735314025 -0.24957415565254434 -0.25653464613077753
Ni 7.716809876858662 7.0639999097927015 2.962174755548696 0.9501989957720024 -0.1322796581037335 -1.4628471413357387
Ni 0.387264777198314 7.055800208611973 1.0785043264454002 0.6998511951782269 -1.7097782029384812 0.035321043898797234
P 5.897822292849819 8.035877786733973 7.738192612064869 -0.023215775994830986 0.3838173652405518 -0.3371587848417484
P 5.1380180746545125 7.320825926081118 10.864650513639713 0.6182148131526579 -1.2533279447225512 1.2782463052307858
P 0.8878930300616168 0.6548537307359779 0.20176668175890636 0.7280721376971332 2.2986775549564733 -0.47867153150797564
P 9.073969435637544 3.4443674259191885 7.928337520820802 1.6267387699177984 -0.584142296948981 1.267895558124081
P 4.628119893716488 0.4999779644228426 12.981310001124996 0.31870212079845756 -0.19998246076734588 0.8717790638012018
P 4.973161423516881 2.4828031615613075 9.677666510429106 0.8385516692066396 0.44968388602637394 -0.5087565238188141
P 7.499949109330884 3.347411884096654 12.636400235308894 0.5730122484740906 0.829358689853462 0.41569853021986475
P 6.289331955815451 5.824214570689867 1.6134044864171493 -0.7099797989717966 -0.39045106850698563 0.3138185674539112
