# total energy = -340864.169377276 ev
CRYSTAL
PRIMVEC
9.29158519630398 0.00000000000000 0.00000000000000

0.00000000000000 9.29158519630398 0.00000000000000

0.00000000000000 0.00000000000000 13.59917414261938

PRIMCOORD
 96 1
Ni 0.4703734824522336 1.9389772495755846 1.423371402180405 -0.39163171907864813 2.265476385614156 0.28099869271041283
Ni 4.939833999395542 2.1342770747097806 1.1919291697096561 1.5317519347272521 -0.11925084994423335 0.029927383687051685
Ni 8.839605140128855 5.277099951758693 6.3046581953266925 0.21469225617369478 -0.4961342070691132 -1.2064595623057868
Ni 2.793765903319603 1.3750523727001558 1.9494823155776169 0.4128962848843793 0.49594780208992006 1.0178138667074987
Ni 4.012413025699385 3.1645094364410435 5.867377622013712 0.9264677135933335 -1.0103954627562406 1.3127708213702165
Ni 2.1890509682901644 7.533830825195509 2.348318955949319 -1.9529076314069465 -1.2237422606456343 0.9991083198781955
Ni 7.322447266424732 2.8318428186533455 2.1955318488283013 -0.319322785101592 0.173941556618894 0.1832980581331295
Ni 6.619696818050658 4.785212733395345 11.080974236083664 0.5799370006183819 0.41028018741777084 0.2875904869953176
Ni 0.5296407865390591 5.736856869188883 12.157172068814443 1.604729869746875 0.06779047728141228 -0.4146739456100923
Ni 0.7795816355881261 9.098533739349305 1.1153962423741337 2.0662637131332993 -1.8896240408569522 -2.4507529076298953
Ni 0.6461433250730102 4.276238290215317 0.684659732377296 -0.7840957042506045 0.6608938400784231 -1.1521177543301127
Ni 3.8270923628561695 7.322001270344688 5.904625727965373 0.4536454417772832 2.374813318878787 -3.4632183655412874
Ni 3.3888454647030937 7.999506482271281 0.5473691307208016 2.1720720644193814 1.073091556233881 -1.8996785968794767
Ni 4.065951138474648 0.732253089068974 6.050639269620724 -1.270339134568567 -0.14950373529150382 -0.72615435184913
Ni 2.2965453151657305 5.317778510892691 5.980577002079838 0.7918601786873717 3.246100273534919 2.6451144226660377
Ni 5.067379586703079 0.7528822660880017 10.8839898465888 -0.03152686696368764 0.08793918431514532 0.4538465020444958
Ni 4.669383834773959 7.0289632625858856 2.1689458366651886 1.3259556954916067 -0.9617139383901374 1.7174390619178488
Ni 2.605406892181089 8.319322838002716 11.967028144197254 -0.9535905379520544 1.907706866500592 -0.9714363078842239
Ni 5.452357828045919 7.747081992551471 10.123986509756099 0.23593676737476788 0.14933147137969766 -0.21497687729364912
Ni 6.466153375910566 0.2339751185419977 8.969443890614619 3.7632157108413895 -0.34578252195501735 3.9793495845576183
Ni 7.991673676115512 0.28161864979268064 1.6453371471087221 -2.4864884133582916 -1.1067488392770102 1.1294164560778548
Ni 7.59162448390119 5.476320825763275 4.327787074641884 -1.140812099509306 -2.5576166967636853 -0.10756338630397605
Ni 1.261973783239041 0.8303843057391196 5.871878465788154 0.23261001699438005 0.7751948022165488 0.7047342343021412
Ni 2.6415883241746454 1.4485116437173762 11.11614195615362 -0.8504306800324127 -0.01207210067318566 -0.06473703516706915
P 5.669427836837255 3.674022791551124 9.531253073585338 0.3611464060055974 -1.7069523034539118 -0.480011847585954
P 4.471185035119478 4.416847846034138 2.066802513591649 -0.5200827474649108 -0.27782209475464414 0.028738505585273088
P 6.934532884221603 7.177256959200461 1.4238201857359492 -0.7928086586435701 3.803976694808836 -1.3867265469220764
P 4.285585624726235 1.679203116120051 12.603850151197348 -0.037183036808200474 -0.7259643473255111 1.2025247460277548
P 8.57095754299745 2.234923523439673 9.239727735864685 -0.41817707366734436 0.3420338535458626 -0.7958363897263003
P 8.84698265861958 4.250946595842831 2.6125372545107894 0.21006401337306405 -0.9105651834304641 0.13226705969824318
P 8.257654588351654 6.132511141697773 10.625048239149349 0.5394272134297936 0.02715702003076613 -0.2597256422642495
P 7.068118001779734 0.003679467660361659 11.528563822955157 0.2961538031842964 0.06274108778296292 0.25302586164657065
Ni 5.959780576530794 8.632254129248475 5.035420250933938 -0.6248294902556981 -0.2575489463279048 0.3131346540130091
Ni 5.700805519385339 2.1099795799323924 7.878558849472893 -1.0411947075252843 2.8022936722249288 0.776288806611676
Ni 2.1036613021317714 5.244440030480482 9.630730640922115 0.10541497250240556 0.31248236514099087 1.1879301360430317
Ni 0.45847467870006403 7.684549625495324 10.28860459205878 0.47890447345438814 -0.16167430921576673 -0.7697628325677001
Ni 5.669344212572247 3.578793336876764 3.8886017264037154 0.2942121060768933 -0.5451443184192288 0.04101603740104549
Ni 0.4538920689776136 5.889164530523853 3.528686606442339 1.4881038590199984 -1.0514996889957182 -0.2675567082728941
Ni 8.981255353467779 6.728278280371331 1.4369157456362363 1.666795528729368 0.4313457498388184 -0.12187903159569977
Ni 2.607590414656303 1.7951342221764461 8.110451723816187 -0.7797045171614443 0.8104981055035332 -0.041334854193044945
Ni 4.020236540270154 0.2023028927493846 8.830269884678438 1.9387339110097255 0.41630016835960565 -0.05146140110408556
Ni 6.794675946787858 6.704305991068975 6.3380307811744725 1.2948252926353894 0.7392006435101269 0.16485322116438061
Ni 2.0379883793453164 3.822864691680754 2.398133001456215 -0.03355521024762608 -0.5398465603553992 0.29067066858253815
Ni 7.707360466672566 4.370454962124577 8.097696235926932 -1.7063594070649195 1.1017614133647475 2.7546395606820755
Ni 6.745346922018009 5.272426284503233 1.9387932761925664 -0.9132969805393304 -2.768682926149019 0.9057513069815885
Ni 7.645246220941461 1.9197901265486985 0.1946066728931281 -0.35361050263986843 0.6089297883063062 -2.6269459792871275
Ni 2.2854325795046377 8.755367630510575 7.398127226257171 -0.6042863759970238 -1.8448554783920101 0.34181016757083066
Ni 0.7848220895286411 6.265241433435818 7.824039545321535 0.6937376260813213 1.509301061922904 0.8830199268223438
Ni 4.830407002839787 5.537189999104258 9.530219849333237 -1.304851823633456 1.357377661446314 -0.42232014930144035
Ni 1.0581628662440081 1.7379816828358283 3.824876319833452 -0.12855361540239796 -0.4809994083102038 -1.0474180627271767
Ni 8.399174719500564 2.541592286394816 6.940012131896642 0.39374465165659284 -1.8101000771886955 -0.6321892730548789
Ni 2.9500317798649625 9.192778286013569 3.7123301381928897 1.003461968861201 -0.022213559982561745 2.0064554827264156
Ni 0.7022254738215227 3.685098360872213 8.267658837922138 0.6778487227652068 1.1221543751988028 -0.8322077292664828
Ni 3.1533967007799513 3.257007165125135 0.06619418070500631 -1.3225718666210382 0.8712746133609575 1.8546174428747801
Ni 6.255606059789872 1.0290709136061487 3.365251342910275 -0.7566774601386517 -0.10499922512122563 -0.09807421586661819
Ni 7.755407252712289 5.691123687814388 13.328822354259605 0.14258129714005768 -0.1840601331101346 0.7349855769875148
P 0.2858007922015917 2.106634609332064 12.645055543200899 1.752304763446782 -1.730434445736252 0.830698234600492
P 5.578509677603319 9.324848875216551 7.305938907353609 -0.5483661677906363 -1.9443062628911807 -4.079700512273555
P 4.521610466919435 -0.1121717307650255 1.8353993057779037 1.1479201713089973 1.8964570046183855 1.387325871068972
P 3.7241137262910478 1.9701319340836467 4.07198695209124 0.19811583987225234 -0.13450674766203932 -0.584758076156109
P 2.6417369895346594 4.566330865528831 12.047481191244662 -0.7045552855221157 0.6219385418611482 -1.2145886191708244
P 1.8359986130104626 3.1124022277559216 6.590172806710257 0.28452496069611644 -1.053576369019089 -0.010012132820363402
P 5.738798810454074 6.609884904289694 4.418738683581823 -0.3933353320333161 -0.11033657817373901 -0.2453909708091322
P 6.5976293036734885 3.9176760250300733 -0.15906914774013511 -0.046488630479842516 -0.7176095476029125 0.1376920873685564
Ni 3.084230142033153 7.6095572429529525 9.82630085117984 -0.4146862869052665 -2.3767169636594034 -1.4003582787728979
Ni 0.21171805583081005 0.8979397036467597 10.697245712923445 -0.6460135805324809 -0.24468957386673343 1.972945266784112
Ni 3.4279444543869366 4.441210381906532 4.169588548416334 1.7726200779653665 -0.1472625046658109 -2.1238916480594128
Ni 4.996317544616094 5.397565351295533 6.736051620383095 1.6852516785520266 -1.770909008811531 -1.0905190076817088
Ni 5.127802763964018 6.0988663124094655 -0.03541487623098097 0.8232836873039757 -0.032982368463291584 -0.6892093991936646
Ni 7.598091427061826 6.923345815880504 8.649781775194198 0.5901157409235965 0.23535595517063337 0.43063021182903255
Ni 6.506878392969569 1.4388576869014271 5.8490453248069105 -0.8934753178277128 1.3115840001509669 -0.6001445859145084
Ni 3.6071233795445488 3.1984980543743844 10.149389703148596 0.149516076586678 1.2251172866162903 -0.7251189686060802
Ni 0.9124290012971837 7.705753022467408 4.663768929957907 1.3135516654002992 1.4685598754498 1.4894572877240992
Ni 8.01872148005317 2.6535651772408224 4.448656658126264 0.5385466105970531 0.816020320873343 -0.022697184487199623
Ni 9.220327835541276 0.16826874604953934 8.503617709861832 -0.03664850446096914 -0.2381296612610286 -1.1905086954034851
Ni 1.3157163108843235 3.928389222536126 4.787847826901603 -3.879267080011719 -2.246314467973725 -2.586956583378383
Ni 2.9878299476486774 5.622821246472674 0.86325142936285 -1.022077527079859 -0.6815750225768584 -0.27883433806924235
Ni 6.995522848167599 2.3344921483094603 10.921904159185027 0.1606247849053298 -0.8436421963556697 -0.8867027749905696
Ni 8.50645535992111 3.714784974950131 12.195209030332682 -1.0773158787278736 1.4809855028076622 0.1327619970567907
Ni 7.975320486513905 7.605580444572562 3.7204621333856887 -1.3184730139613163 0.9957275763314205 -1.0667746128769178
Ni 3.3553400091898005 4.1876523188166095 7.853237422028404 -0.5269959296449762 -0.23943681010822637 1.369736440121983
Ni 2.1850741699097735 1.179157886125901 13.400652810426166 -0.5825703244761709 -0.8570839236828722 -1.080307614366346
Ni 8.97363625376703 8.105012429956652 12.545741507760138 -0.40761035389509154 0.6337774434776053 0.3955781053209058
Ni 8.263638369092243 0.12551258850933678 5.360155571764857 0.77977188006427 0.17383537005833288 -0.8707871322015778
Ni 0.7541357009046249 3.352143703949486 10.474641636105567 1.1635684193692155 -0.0776678842961243 1.4876179205225155
Ni 6.176423172412089 -0.09236764649407893 0.09206474082304915 -0.6890469054738714 -0.6350282851655709 -0.2911427231229502
Ni 6.842852815017593 7.1218791125950185 11.904022835464561 -1.115242478570318 1.3978044020027927 -0.12559658965660306
Ni 4.7979793711865995 3.7236677302110035 12.215308587006659 0.9283780432421689 0.72548226548277 -0.9964109755516904
P 1.9908986265606878 0.1476785936875155 9.599575027255554 -1.2152460502491653 -0.6087264140462484 -0.37389264992767224
P 1.5592394621732595 7.4113863180534745 13.523235762184715 -2.8411582105006103 -2.0015091944647336 0.2882569169347229
P 4.158225869118717 6.934189095576571 11.707963887835792 1.1052462865895547 -1.1516842663371198 -0.07747479444871173
P 6.806132471093983 3.987715992766957 6.229808903193336 -0.20582786380452936 -0.5410804327625004 -1.8372298435259522
P 3.52778253522175 6.489252256222837 7.648229748885254 -2.4549183518614948 -0.5865323944477124 4.797987545559466
P 0.19349168269301853 -0.30184921781516916 3.0354716205823604 0.7066489348263507 0.6447388275851155 2.5056819555676073
P 2.725705043187913 6.364336187470559 4.055953393013665 -0.5895624395232878 1.6017877563994156 -0.09266178660179526
P 0.15394390945363132 8.228163097558756 6.664832550509595 0.13059121465771703 -0.9992525587655436 1.2073843881129014
