# total energy = -381163.8262028126 ev
CRYSTAL
PRIMVEC
9.29278928305448 0.00000000000000 0.00000000000000
0.00000000000000 9.29278928305448 0.00000000000000
0.00000000000000 0.00000000000000 13.60093644529508
PRIMCOORD
 96 1
Ni 5.8418934759109415 4.305405089573807 12.363101938190422 -0.38586036381250965 -0.9296255424960247 0.0882482309151319
Ni 7.538738236276657 8.547693553486852 3.4102855133356056 -1.9811123759759366 -0.6030262783376775 -3.2708918786573027
Ni 8.534692941104725 2.3489848426677384 9.064575227394068 -0.3960038800044148 0.01163475602545093 0.15825577045252098
Ni 7.3601772877973355 2.5408066016326183 11.388785493499439 1.5689056609594143 1.0991728267019651 0.30016498122621854
Ni 7.622977372262349 7.615004158950079 0.7154769470717609 -0.09625258927684714 0.8592233386233783 -0.14605691439348395
Ni 2.8674202709640113 6.624457857557607 9.965297426366497 0.28838855741658076 0.6665443534959812 0.3464985741854355
Ni 7.564404920622214 0.21008116087312942 10.879430049733957 -0.14582680066054884 -0.841481441258925 -1.0447579993965104
Ni 3.7552347854483963 8.77145462964785 12.17393977555418 0.28644686030917765 0.4539845702842568 -0.1447230260734088
Ni 4.2528079015231715 5.727257625770899 8.12786577215929 -0.025523598192401204 -0.5005886432960411 0.14291091256533453
Ni 3.4362876673788003 0.8195868546490904 8.400835885352679 3.444472452392352 1.770379618670622 -1.1284780034239856
Ni 1.4926821770666934 3.577584530331082 9.714931094129708 -1.389455515817465 2.273362987451085 -1.9880386707821245
Ni 6.741547004101424 3.1308522651087847 2.9177816138830246 -1.4467191254256246 -1.4368062371872867 0.2089494401526466
Ni 3.874201075452678 1.004113773928502 0.675676859315212 -0.5419378956667893 0.6397465165768467 -0.6585538790913368
Ni 0.5398711056242592 1.4007671970297968 10.792288775616072 -0.6072128056151994 -0.6132736670972986 0.3570385544848109
Ni 3.231586102294101 8.842758202777272 2.623620223723085 -0.8008176449909756 -1.906591007728594 -0.14317085109494052
Ni 2.70099570545185 3.413576090065063 0.03919698572395419 -0.3346571014658172 0.029648418994052163 0.7598859397736203
Ni 4.908367730327426 8.789594154572734 9.780664569287831 -0.09917516224028082 -1.011844279387625 1.4275770052795351
Ni 7.224047215756035 5.984426279854518 11.370328155176795 0.6677291178327015 0.8676192759965574 3.866793887245373
Ni 4.913515935659592 0.9964751010349293 2.8647792602141897 2.527703968364653 0.5696636437168319 -0.03873624022793329
Ni 8.702167591820018 7.432856193759176 7.110243070268029 -0.9980510822582748 0.8207341814092447 1.6964388055170978
Ni 4.942100555879336 0.33562302866268173 5.388622804061008 1.2995489233633037 -1.8778157353681142 -0.6533988172529586
Ni 1.8559280222453671 3.5775473591734492 4.710507516805073 -0.7602613208351681 -0.33297431444675557 -0.9712776708191724
Ni 6.887248649233211 2.367170831539663 0.22982555052881587 0.7229165616381227 -0.28735445972511153 0.9004077832814881
Ni 5.985485657847058 3.864843236518581 5.45151361493915 2.2025216391584905 0.6019189042061118 0.41839844564953105
P 6.997981527821793 0.04216324410306423 8.636268705010428 -1.3380702193669538 -0.803487735623971 -0.2331484059963533
Ni 5.539524694145645 1.5419246681409546 7.197343456112518 1.6369357650554581 -1.172506859509426 -0.0279211518903003
P 2.092643246841452 5.463091501262875 8.35539507442533 0.1855799121887707 -1.653792945822113 -0.7964205443645446
Ni 2.570227572899104 6.5295227209630315 12.22082282739769 1.3554115388588786 -0.26352239030252034 2.821155542126438
P 4.922938824119546 6.43974508249003 10.68284201908159 -0.1894432517989189 1.935859417675408 1.5677368374622935
P 3.0866000019467483 9.154912291789445 6.016265234925029 -2.1408354750026035 -1.263740398305127 0.783612851076915
P 8.744449783627507 7.600739727208431 12.029919196026343 -3.079251619207065 -0.2808518827199034 1.0181815344595624
Ni 9.092789994595364 9.205864656114823 8.75768364502378 -0.21728469949121934 -1.2118277685962355 2.8637366100217583
Ni 4.9064720012881455 3.2767025948711037 0.8476715227986719 0.2769003542713231 0.5483641109081073 -1.2439506172727093
Ni 8.782187801414366 8.524517336702703 5.024254389921818 2.210198696087774 0.3700804752704336 2.3201997452989653
Ni 8.224750535971713 4.404698544400846 1.8355963282990801 1.3639257469774768 -1.6134906466586407 -0.943486102528201
Ni 3.054028775070869 5.60621904372858 4.102586243623217 1.8193308517583442 -1.5543709576783489 0.7199333106400827
Ni 6.699097542084585 5.445100660968524 0.7422355341727866 -1.223721691820344 0.4957207736807786 -0.7968337206425632
Ni 4.74159933160716 6.500557096377549 13.228991974623947 -0.4858030003464343 -0.9884053316383945 -0.7088060903786696
Ni 3.7186583663375656 4.10496891482749 5.86951164603223 0.6246430852765048 1.6406983174216843 0.5209679782833415
Ni 1.5026998040487756 6.166434853204298 6.402491219031338 -0.034723262413798264 -0.5310173920995436 0.009274997544022737
Ni 2.9443552744748263 2.098953050849646 6.420607511982701 0.5816226158509208 -2.1439367396357465 -0.2115141155560293
Ni 0.47943266187095124 6.574797190959974 9.054171020372603 0.24240463448729865 2.315035941709839 0.41315776607588195
Ni 1.6176794873969231 1.6211549906356044 1.995977792859063 1.3911817544799525 -0.3349833744569844 -1.1196701753243685
Ni 1.4542564928636232 3.651852503281732 7.152025310005357 -0.3901857306607409 1.0987082283607206 0.7832588101716059
Ni 0.5536792614059622 1.907103413516542 5.756460216486293 0.4156892742484841 -0.7208681637495262 -0.7639151155376714
Ni 5.9329906904799135 4.816573556552838 9.93858530321251 -0.12294861051079471 -1.7674714438848915 -2.0614606353177014
Ni 1.1273547470605743 8.998914235993329 6.991275850984807 1.1735640971293466 -0.16574128019628875 -1.8642899329675378
Ni 7.269907131485697 6.951025062941958 9.445170710397925 -0.10703039661864149 1.509259667162007 -2.082382215961717
Ni 9.119107174199499 2.1780439815031727 3.270603737182476 -0.6877968351168542 0.5213585288535408 0.4832684068500387
Ni 8.173277775439475 0.8321692915078468 6.904610367684625 -1.116909838970412 0.45024130119174066 0.0985562977093593
Ni 0.7322820274376213 5.807863281097969 11.18874240374509 -0.8540775327563807 -0.06774702563798655 0.41237537938390273
Ni 3.175606338898866 4.537966437304409 11.373116921278207 0.1835456553675613 0.08261751499191577 0.41434972950145416
Ni 5.104324780578973 8.328987754763935 1.0595127379857219 0.058422405802950994 -0.5271347692156857 0.1319875807846114
Ni 5.365489334108135 1.6264611733877095 12.159522942066237 -1.1028705872685263 -0.3792310314214501 -0.30084195268858516
Ni 2.7493460887429206 2.1896599682634723 10.798994452453059 1.3633071395568714 -2.4276962829207482 1.281894186396018
Ni 1.8014908618919003 7.414168394259207 4.473362036059387 -0.9266620889923266 2.6029308473194526 1.0996937322024416
P 6.639094000875584 0.2803216388942485 1.715172928915586 1.2105237050728312 1.1037838431114153 -0.863257913704068
Ni 3.0736644390904786 7.868530039585669 7.917214034016494 0.3820569309060194 -1.5197088875197893 -1.9715933807419077
P 8.252089922410754 4.168057662120027 13.04831691655425 -1.021907320050582 0.9191380127011397 -0.8639731946035379
Ni 2.131217615675054 8.932424327777376 9.527265999867135 -2.124969968725256 -0.6475480148991364 3.4522217573204674
P 8.197485491847939 3.1643063069784465 5.992776780416763 -0.6563722980589857 0.11091687615724125 0.3831396224472369
P 4.823710418818365 2.2802832505726234 4.791079718090272 -0.6917185387687637 0.7937771932044264 -0.9805436695021307
P 6.562447073836424 7.849860825664515 5.478702458189776 0.9414011949747141 -0.5549677322675538 1.1585642812864045
Ni 4.291317220830916 6.129375209044238 2.098570187926027 2.075024490045065 -0.11052632558704191 -0.4753514659958072
Ni 5.159105774140545 7.756115166114196 3.936722962591314 -0.4387453847369992 -0.5034824199040683 -2.1185057011571518
Ni 8.8283543791945 6.596635246069337 2.3426387967808515 0.9743012881368447 0.3350954745548164 1.516227870949724
Ni 8.910307488985765 0.3669852636365492 1.4756336256183373 -0.01416112199173045 0.39693101980437445 2.211952188443771
Ni 4.625755418844047 3.3365295730813496 7.967333764410894 -0.7685400159041925 1.229779725088966 1.3145705935831165
Ni 6.300678488995726 8.026070698423553 12.487918039127191 -0.1320613714453403 0.6948192891812743 -1.2271237755233575
Ni 6.485539948693834 5.729664458227633 7.192528861920109 -0.16800925029485902 0.9694336756318981 -0.3535685936583395
Ni 7.064917489929342 3.672138662559919 7.805196891931694 -1.6942168581651145 -2.3603282378887345 -0.2117457719508611
Ni 1.0279869499182694 3.584228874757973 11.977678851088985 -1.2421037938719577 -0.4499355970258639 0.6218130720268775
Ni 5.439413473850681 7.755092959279289 7.7939349604478485 1.6689804521958287 1.3859834981084647 -1.045494877562535
Ni 4.311733479160818 6.831714939729571 5.908342495853499 -0.5989983881252071 -0.16938916136152118 0.2855289764805986
Ni 7.239436075016079 1.2492018017814104 4.725618521661811 -0.46464770642505787 1.1260339127588672 0.15749215281361909
Ni 2.8704032563640567 1.2657615525068933 3.893485472032657 -0.9354640035546729 1.4107859018641251 2.7884354261855977
Ni 3.9576224459704443 3.222711488409232 2.791959103853343 -1.0001724994766517 0.8301924986086671 1.6447385489293287
Ni 8.248084730175803 6.011003657562084 5.561177822745784 0.9350860513899638 -1.0357614523248548 -0.9714895297196625
Ni 1.0978687262682303 4.147390498476103 2.3265492611994256 1.9356285326115246 -0.502263974115935 -0.9787534103709274
Ni 0.3439103382569497 6.134607049481078 0.09750366358701208 0.08261057301338032 -0.4622154428344814 -0.4241572025101792
Ni 1.3839286626220668 1.5492938501416886 8.467956773969453 -0.6603101996608112 1.6258136870003679 -0.5752740479250739
Ni 1.3157102955761806 8.211266698540358 11.700559507424815 0.4865635326615426 2.1659011597219795 -0.920220190021725
Ni 0.08543418870359061 2.714368029410307 0.4423981082422943 0.7998781638958418 -1.0921328891360482 0.5339548774613128
Ni 8.775041646359432 4.966280393919575 7.930814960594393 1.2489501273698296 0.33387702876668307 -2.7252101996773646
Ni 2.6794736051823675 7.920486025167135 0.6187817561632657 -0.010810203241626543 1.0156811366352119 -2.225628657489599
Ni 1.8333651295621616 1.062621176042778 12.8446840222515 -0.2390380320079109 0.20816371102655765 0.6512380621562139
Ni 7.262686634115495 5.291267825104527 3.698053464382676 1.8250312445772312 1.071851770289509 -0.3967916660130328
Ni 8.288591999206318 0.4875657111610424 13.068310352966078 -0.1193889181839944 -0.1876077412520769 -2.240376505222735
P 5.348715849226264 4.938606467061838 3.577630994278123 -3.1931445472734943 -0.31322335707207344 -0.28498801637546406
Ni 2.1163305670430543 6.672083403274834 2.3576540859066846 -3.481233828282101 0.310817061623426 1.1418436260976141
P 0.9469445334890128 8.692094208101485 2.817937096644077 0.45893548653162897 -0.2301214462445714 0.4593867151364346
Ni 8.351364791658975 4.633468434052887 10.011717697297476 0.2938629502675907 -1.6179407120101943 0.844414812855636
P 2.655238010405679 5.5785729952390675 0.7783872728076607 0.18348394889169048 -1.9325519505687299 -3.1754543290825827
P 0.742143535557645 5.316172500718609 4.017961456877084 -0.6328898986663294 1.5274435371598856 1.295776086584433
P 4.352454482347723 3.3398656844789074 10.168726808581209 1.6782490219819484 -1.3299118519258775 -0.836174941444347
Ni 5.9768526564868045 1.6239428274580763 9.650299743795403 -0.7564787138642843 1.4320946906442302 0.3321929561960408
