# total energy = -340866.9751619783 ev
CRYSTAL
PRIMVEC
9.28132829405305 0.00000000000000 0.00000000000000
0.00000000000000 9.28132829405305 0.00000000000000
0.00000000000000 0.00000000000000 13.58416212938562
PRIMCOORD
 96 1
Ni 2.3436653818847315 4.83929395510776 5.557172229025037 0.7081363180051546 0.8402509112859334 0.015175679299173865
Ni 7.406592946917139 4.881700344970625 7.153854947119003 -1.4917483977511212 1.8997274478395414 0.11614572865634835
Ni 5.73715111040515 6.394937423025182 8.411925101710045 0.06737421567960009 0.07245214442313974 0.18264294104763384
Ni 4.878052782874737 6.38085764770849 0.6880053900449605 2.0510594945890355 -0.12349111327782603 -0.679910490390242
Ni 8.363284443501616 1.0018451596798659 11.224266943867944 0.10628631936376534 -0.8177995242609529 -0.010496528655949664
Ni 7.577369391101141 5.295480531634274 4.894278401337916 -0.5310515877715887 -1.0982063490236376 -1.0864247830076774
Ni 1.5995627143238726 1.6461549833349427 2.7948057001121787 -2.4820424617717967 -0.9473754102802782 0.29688451070273386
Ni 0.713044558040591 1.8117153209085421 7.116579275644448 1.5509853290355677 -0.3698830145476469 -0.2594924432075208
Ni 7.536531545752793 0.7958024516390187 4.063362827762107 -0.010610171415678502 1.364709419221037 0.1468776105225664
Ni 4.254542416361854 7.658794485928655 4.478060009680398 1.7351089683937861 0.021587753473104754 -0.906298180623994
Ni 3.600069538012131 1.4163771339510658 3.581641460298689 2.430405968542427 -1.1109168546117707 -1.4035518460095313
Ni 8.276355520880562 5.614943858200217 11.196759870627286 -0.2867384234076675 0.2224539023969846 -1.052343267942936
Ni 9.409503634683858 4.07310172574484 8.945782475690573 -1.6258404264732451 1.198535936583336 -1.1373570510811704
Ni 8.609805809478315 4.7498405111379 0.04856362318197672 -0.03846858838884343 -0.8993888550986704 -0.04209204407404364
Ni 1.0190527426971019 3.068314384934195 1.108250022000685 0.20274511111414759 -0.8874242265376264 -1.1673111742410993
Ni 2.6001734573147997 9.27921234536565 7.958267687196581 0.506102888246051 0.5905268603190862 0.9954221292758599
Ni -0.01994650305412166 3.4044562587935427 11.376899318990244 0.45220845222044054 0.22514996117190902 1.5002685194069902
Ni 4.6321625472352395 3.6453531397063563 11.273577713993227 -0.08364595625643013 -0.3163737297755971 -0.7297829497406527
Ni 2.2280478729064646 5.159323442711486 0.913382961592553 1.467450444435705 -1.300976656948766 -0.5940320452588673
Ni 2.7126445959355463 8.010612523604674 12.115714413711341 -0.7688611466890372 0.516144331642453 1.1872287391006326
Ni 8.669633252913645 7.186987433556396 2.400171965986962 0.5119868578306537 0.8037795558327769 1.284913175728
Ni 5.942760380405595 2.5240387197255956 6.288040650294485 -1.714056775709177 1.125959607877506 0.625555055567813
Ni 2.492342982938184 7.583689975801647 5.750828076065451 -1.40396502228755 -0.20398335439662288 2.1104175248323784
Ni 0.275943177284487 0.20932180139574974 9.172664550586111 -1.3137146733407246 0.8297389560110162 -0.5864046106205965
P 7.906058358184415 2.741890062002057 9.875930300931472 0.3826814518638958 -1.8652199009809747 0.10305881356540315
P 7.638013591443438 7.032341938284992 6.155093044762937 0.9942090828043653 -1.1953284853896318 0.07417838308562709
P 6.387150388423531 6.639092050237374 10.529192894046323 -0.015421476761392798 0.6920460973115113 0.2670918528213336
P 7.076066276793189 6.219668815852861 1.4488190895489332 -0.7456057757055223 -0.21779866301316037 -0.9088258321418542
P 0.03004922911359373 7.770912934066847 11.544500620698413 0.17432696498277073 -0.14291476922007645 0.4313056406295024
P 1.1356262285096597 6.2010040642629685 8.217453425895512 -1.2298974816137527 0.10011901421078886 -0.27220757678134405
P 9.188199638209763 1.8782717274978613 13.179911538175345 -0.5406245761720044 0.5983612687618405 0.51370718295587
P 4.586925352183456 7.609724102211218 6.742145424841083 0.1562924760785631 0.9495706181593839 -0.7543611533006492
Ni 6.194952638088622 1.4220480256573933 8.175668885041361 -1.330814823356121 -1.3884638413281571 1.4676623033361949
Ni 1.3679750058847848 2.2323172840110646 9.561280271319541 0.4990588369150759 -0.6691329401587637 -0.0813306778596922
Ni 3.301006571463386 6.571291945630628 7.998911552779524 -1.1750566225144732 -0.7006047855147998 0.25494570437710284
Ni 3.8777483237239228 2.098721841751036 9.474002370747328 -1.084922744540854 0.0683059834652501 -1.187773298750193
Ni 6.909169427917281 2.673152543217996 12.326676225850967 0.1323393076970753 0.3863912966153152 0.22992064308767501
Ni 0.1812754829699227 4.239432413582965 6.374124043890256 0.7061699383074032 -1.349118249650999 0.15600862628955714
Ni 6.489931820102533 8.32594565899334 1.1036576206646935 0.26496709316884687 0.45524363950233854 0.2905331145634093
Ni 3.8436023162156108 7.080502751810578 10.326585205678983 1.1830219001081368 -1.7419748422756838 0.16340389031236374
Ni 3.8055952760561818 1.1105387976058902 12.2214946426249 2.7380664868147426 0.3998006280426856 -0.6667425855497162
Ni 5.4404456012924225 1.2049391896599926 0.6513181547965626 -0.1716710154171624 0.8762633248248006 0.16180080749130196
Ni 2.718278362327921 3.875836370055341 3.3060314827069304 -0.5645690028027438 0.03423243882030878 -1.0903305458199866
Ni 6.785755603008874 8.057074854016909 4.293777376280279 -0.042296960995998126 -1.0537072381699983 0.6553351150437231
Ni 0.7119530738103715 6.782405043424612 0.5093704450299481 -0.3132027882467832 0.7248050369100872 -0.42124619951097125
Ni 6.250900486215859 5.14953164115637 12.514803185510925 -1.025064891842957 -0.5017137580394199 0.07145429928624468
Ni 1.2585574243366762 5.89907316721135 11.898625996636614 0.26039001532112577 -0.6635040240077605 -0.45038219764497917
Ni 4.1183574834536 3.5787503264745957 13.460478673312682 0.22860063872467082 -1.0018529725028682 2.186727609549027
Ni 7.229365979433796 8.575659801970003 9.284544468582157 -0.670555017317271 1.2569439442085837 1.0026235321203056
Ni 3.6275701143228485 5.649266210949807 12.485393439930172 -0.19688968077463512 0.5799945933291947 -1.169785861033837
Ni 5.188726691362297 0.6024909418855192 5.214525072028268 -0.2805842308808135 -0.7735554668409129 -0.184382806556876
Ni 3.698201024118514 6.053876445067055 2.5299824824894777 -2.3755113733870763 1.1502956135197093 2.5173089982835744
Ni 3.9480079803800585 2.9665446180604134 5.234290589176868 -0.5663314940198053 1.1865576811755372 0.6782194758410642
Ni 6.511752223378434 4.073426572241929 9.219978906953568 -1.235098309088402 0.7262523108795751 0.3540085094092355
Ni 8.141637037873455 6.649997611211082 8.801233209548698 1.7207809818068882 -1.4691993088060116 -0.4476486007639
Ni 1.988292595397707 8.590018017141343 3.5989205095452848 -0.4698107386832361 -0.5327225477161083 -0.7530398633860644
P 4.054204940942741 1.788632656958237 7.196210289675181 -0.3327146330274657 -0.8529326205186601 0.5277914289630782
P -0.1538268820987397 0.16730893986078763 2.4015576683302595 0.9577446693297441 -0.47640099030624394 0.4019338723356045
P 6.450560424655329 0.5025830095064829 12.258063076868648 -0.17639901702045105 -0.454642772693546 1.86545001471391
P 0.4707564059873872 4.863731693017351 2.0700230459324844 -0.8054145203330387 1.2423213091994023 0.15841260774535945
P 2.874464558128376 7.227259117866961 0.6469104518974875 0.13066320554623304 -0.5782153899415848 -0.9739770720282065
P 3.2585816189435453 9.35409410360894 10.299498576618841 0.08301269354780541 -0.07039140523936908 0.07236601246723666
P 1.866920662756718 6.315396437880785 4.086251511947008 1.3033261310175488 0.9021471345700979 -1.7333287365649117
P 1.6812105610351045 2.697748063711887 5.245809645963648 -0.09405738139774124 -0.1315641200939476 -0.11933903878266545
Ni 5.229564536710646 8.073354304185319 12.262396529139817 0.24438464103180488 -1.0869104643948442 -0.15875610712770724
Ni 5.729020666649433 1.3021054176035967 10.477423500004502 1.2485539203726754 -0.01511063038919333 0.08302812016677313
Ni 7.860728349847749 2.77373430004528 7.564951901716697 1.3454186893122249 0.12976229099851844 0.4437230404572487
Ni 4.845493882537918 8.667071606250886 8.85979467977823 0.057693755167042574 0.8965755540195913 -0.6545599274405953
Ni 7.6854783053324045 6.891674123716909 13.060601916724448 -0.21728984169754192 1.0551755951854085 -0.18981246221287956
Ni 7.609380693057154 4.288168669474823 2.4998525058180356 -1.0576173718576818 2.2087293106310995 -0.47496014409465953
Ni 0.6074007646558093 8.160181132193001 7.222889468414688 -0.48589864538403416 -0.5584184098203157 0.6090424026247705
Ni 2.5427220339724648 0.6541795883694935 5.647860089683835 0.25286696747120324 1.0101995446953504 -0.2123119288669763
Ni 0.17878715880221993 3.5162034537922047 3.821835744644941 0.3807047877534992 0.6922016490527692 2.011423368254652
Ni 5.97876265361156 6.188910493242764 3.327345125447373 -0.4892770749379638 -0.6717572651554883 -0.659957958527715
Ni 4.999062743704684 4.222790991603513 2.342819852859451 -0.5414964372539964 0.4652166915546504 -2.6757799700706952
Ni 8.957029589552647 8.871149457050768 13.674768769848198 -0.42526380531079666 1.3373266563327098 -0.35632198803376053
Ni 2.2061160936887036 4.735686485193302 9.492096320635193 1.3993074689108804 0.8616905692169482 0.5783593717186168
Ni 4.750165357634989 4.456105027141417 7.263437736314202 0.4418913865651486 0.3925976825363432 -0.5010211028477694
Ni 2.092856042146455 9.179113217619754 0.8597099670777886 -0.4297146419932987 0.6331619213807935 1.0701509855483182
Ni 2.630931779924897 3.467225883359652 7.414439382021115 -0.9691071455304148 -1.0612395419913012 0.8231723585370919
Ni 8.258247648999966 2.2140237855607023 2.457592760945286 0.2497127381129377 -1.9554694785968514 -2.050007656285753
Ni 0.3283938208373474 6.402306797844861 5.538317210201135 0.17814042519158999 0.7429948204452365 0.21906364576851306
Ni 5.887480787929513 2.868292474683683 3.658772084434684 0.6816498416788519 -2.4343135311269495 1.4165467156073024
Ni 1.5813434665014163 7.856282593501872 9.93578280395372 -0.2766697263177557 -1.131036508179781 -0.21388364422947034
Ni 0.11851328346660438 -0.045876678584625165 5.107278393213563 0.3868180997400887 -0.3498523211490168 0.5330411073977916
Ni 4.110913858006015 8.42458761816658 1.9535794987187622 0.76440002559389 0.9390329518528536 0.9506350548681564
Ni 1.7099177100492957 0.9815468942760393 12.504561239524127 -2.7008435979075425 0.6776756875224523 -1.1901289434665634
Ni 6.636818124757751 8.68370374690185 6.822333318581111 -1.6045372941200946 -0.13881668789130286 0.3436924721952081
P 7.460136930965917 2.7214618579993943 5.096546393082587 4.035357981602437 1.7059508587725911 -1.8467164428601486
P 5.708267616149682 0.3717719657929327 2.9467169160109417 -0.4672164955934986 0.11212400909146496 -0.17891895522882734
P 4.3933632465607735 4.753636574489599 9.484108809338197 -0.0027721634284984514 1.132885902683694 -1.0471300991731127
P 8.22679322675325 0.6884750252664665 7.204333308368107 0.9924185665628458 -0.982959478032475 0.4169385732745529
P 5.1192188223137105 5.014144902498109 4.9960101147648945 0.045418280233799194 -0.7700022022720158 -0.1380787812840138
P 6.520281764259146 3.527341047978118 0.6939046024320993 -0.9745141754785989 -0.1637327344066922 0.05049826585986787
P 3.2858501620420557 2.1177207211665063 1.4299232328796827 -0.08114401577018283 0.1518092434962289 -0.5436523072547347
P 2.149472145924847 3.370597972468367 11.185796765416951 1.5063805458419992 0.04061777352136231 1.3461023456428107
