# total energy = -340874.40228280565 ev
CRYSTAL
PRIMVEC
9.20766282624414 0.00000000000000 0.00000000000000

0.00000000000000 9.20766282624414 0.00000000000000

0.00000000000000 0.00000000000000 13.47634527102779

PRIMCOORD
 96 1
Ni 6.843448044160548 1.972032762174493 3.5860826443686444 0.5799627116499947 -1.2035117925313725 0.08879587588848578
Ni 7.678813250551087 4.3576184907840885 12.255563987247193 -0.7524935039642912 -0.4934785146138211 0.998189407608352
Ni 5.186446256595544 5.019944090410258 12.524510609605542 0.17157974125493677 1.291675177042182 0.8643354630389631
Ni 8.798198023283016 5.87252762621331 8.439332128441357 1.1993036679872957 0.4801483731638182 0.8695925976728444
Ni 3.42850086189183 6.265022667853536 5.63561906652386 -0.9289801956025421 0.8822385685716291 -1.0364224829476214
Ni 1.1879542375099976 5.380046574364267 6.541162316381435 0.16822136630566514 -0.7090739993280756 0.15627704945959536
Ni 6.423937719901971 -0.1878639438521484 7.374929993278353 0.29507753940098214 0.8183286572915455 0.562287920078051
Ni 3.728062963018419 2.412149835751361 2.196927163458891 0.4046425295160192 -1.3096291904174413 -0.98557711816098
Ni 4.818360729004823 7.55256698607249 1.719043019426778 -0.3300188313628575 -1.134542978671143 -0.4994517014781205
Ni 4.788104349085293 4.7804251583205675 1.916228801084931 -0.9480377264546254 0.14558743095623314 -0.061459392857061895
Ni 6.560376867086265 6.814931912507846 8.921435223562677 -0.12267093136937585 -0.07814945191823315 -0.2779586203325084
Ni 8.587489868055227 2.692440298663837 5.48759483802041 -0.0004244891319283012 1.3764693879704424 -2.0925771542168476
Ni 3.9426475442797204 6.4350605765491995 10.465325477615366 -0.1650573667553867 -0.3614446539723065 0.522496756223042
Ni 6.148159011755342 8.397471331110816 3.550087128233703 -0.003967212177864136 1.0915533624834943 -1.3939696016377348
Ni -0.2379517878832672 3.4156101339894134 7.7105308865549835 0.7078414124725552 0.29322068869790147 0.30974105495042786
Ni 8.779782697708134 8.453518374497968 8.126290008993957 -0.03364005665194852 0.5934707734387585 0.7960114818515839
Ni 8.675478293652008 7.242241127147384 12.906160866014721 1.3808307502629316 0.005970615761138104 0.47399032398222235
Ni 0.7475931608692623 0.8288056674207662 5.203850580796365 1.2440542327301092 0.5089544987622331 -0.9136934446468007
Ni 3.998501226748334 0.7340707872996273 7.17800018464569 0.46539306923151463 1.3192723699341602 -0.6867650514182301
Ni 2.696224648069475 2.434948008813064 9.304284317666779 0.27245465979514366 -0.16308275952751913 -0.4464545804557988
Ni 7.2899552357119 9.296424656711421 12.299065590086455 -0.5070850496536621 -2.5838725451364213 0.0510821633877959
Ni 6.340368972443162 3.0482428040961125 5.570191256288865 -0.6416429622686111 -0.44789645510864795 3.0193341169158256
Ni 2.506905893496911 5.79082803430035 1.6240751854371167 0.019386374946411777 -0.5381401191872538 0.2868489808436028
Ni 2.9042073351121815 2.0063589290460713 -0.19758907728824307 -1.6010357087247395 -0.8299801254875447 0.7646589356822314
P 7.676060159377642 8.244651751827668 1.039875683796101 -0.35138778395693676 0.9111701640043146 0.8117389198891698
P 0.22334567240355035 5.31636637852633 0.11888934191143166 -0.5075761303574677 0.17891175613997573 -1.3696983877951958
P 5.393591046324593 0.9298450342524658 5.305650500574306 0.12064618762986318 -0.06496972000316553 -0.3723376467357265
P 7.314769886924052 2.0317260400254695 12.999753995950217 -0.5677417441037705 2.6686407879227523 0.27970234249649245
P 5.938178261887761 2.897006942812403 1.9070911165346751 0.23000111861662323 0.4350216560285089 0.7419530094442834
P 9.38527860261022 2.5733944264850193 3.170256305991323 -0.7948771111368246 -0.03918618328115832 0.23721640541813988
P 5.916402139395465 5.275097633913022 10.515228247624458 1.0890601637479953 0.26863014384273093 -0.07610028269868829
P 8.633850450189989 1.1693915893305176 6.896195981970958 0.4011653696006962 -0.6105794080945871 2.420521876659496
Ni 8.442911146966836 0.400293932021188 2.7086513097674048 -0.45662766433405877 -0.09826961970687592 -0.15402759130378635
Ni 5.5897695096738005 5.530094647148399 4.684525508856818 -1.1516130467795522 0.4603465079465427 1.733505114241776
Ni 1.687976365181954 7.759343469290042 11.883993359291425 1.4920330188710758 -0.5204825540064907 -0.2715352333046679
Ni 4.9071502212641125 8.48552421034711 10.986550090387961 0.7791825832197032 0.6255275447639872 0.04940091903063105
Ni 1.7769592183597787 1.3477071868720902 11.243719191274899 -0.6023747607966077 1.7106940298845312 2.6054366444604415
Ni 7.703250387588954 9.185140844262415 5.3126179390055634 -0.7593647771628277 -0.2893619770734436 -0.6185405719231928
Ni 1.4378041672471953 3.695458629088092 4.720871836943961 -0.2631503516750823 0.7684479704110185 -0.6558719613837994
Ni 7.1994807411625095 1.8517438555193704 8.5589617664409 1.280326584798582 -1.1291261785309457 0.7178689719118863
Ni 5.978912962059398 2.983448481060894 11.117553954228828 -1.3065852613847948 -0.17059012364815782 -0.5113055154929129
Ni 6.788763734865939 4.725547488107423 7.520878814589514 0.37999233506750685 1.0464590412480173 -0.7941759713047419
Ni 2.617526754225221 9.168300029024186 9.853701873128239 0.5529293616812864 -2.2485173891623145 -2.41190790973824
Ni 9.256923783353301 8.906295984407567 10.845493300315768 -1.311289865949316 -0.8338984867053446 -0.4899666448058207
Ni 0.9954956699269165 3.512631276780674 12.656996907155188 0.47173520939945845 -0.7800205057399663 0.9766384209104536
Ni 1.5605699351921396 3.154692593581712 1.5889691295274424 0.3856855287975422 0.7309661714154766 -0.06106370008053999
Ni 2.5511947515045 8.085681453802508 0.6221369138578281 0.6050057706615516 0.6050631062620483 1.2886065654191872
Ni 6.89391524389851 5.234639163625008 0.9579376134169467 1.1454138599473758 -0.5656316397393032 0.24184207711560932
Ni 5.376823892388664 7.87065490472741 5.573048394051808 -0.6643738282072236 0.6244440818918214 0.508970182491517
Ni 3.086159959454793 6.095905525436617 7.9040520184237355 0.5520019647710106 0.9700574252588261 0.8684885659753883
Ni 2.441577526020021 5.522268133779074 12.342486165493188 0.13437382162860081 0.6719778658067266 1.0725392832748366
Ni 0.8085396016256098 7.729289657951836 6.104676745007933 0.2937750185394747 -0.06844919391133372 0.34274347801837746
Ni 7.511491602377719 6.986350970621625 6.623111435955933 -0.08468236794074449 -0.6217729628175613 0.5557125808533784
Ni 0.4385886015541531 1.4023730808411243 9.306885482404232 0.20096179396147973 0.6302167227095404 -1.806428284764063
Ni 4.585167461250105 7.999783167658475 8.622583033237 -1.5104452028296762 -0.5993920240192 -0.9724680915828477
Ni 0.9584256195446811 6.095334650343796 4.190900865289576 0.14058046465994498 0.4561358122993048 -0.030959681606307972
P 2.3376414284753926 3.9911535118439567 7.838125152865661 -0.44683021862766276 -0.1790814489486206 -0.33203663312383463
P 6.238265199793235 6.170690162596209 2.791867403741456 0.413281693248256 1.3035135644380067 -0.525189986784489
P 0.9704508271450784 0.08831529762573549 13.28806709544939 0.1452706710467627 0.313324401426312 -1.1204895859018704
P 0.3528201434554236 8.357114145113467 4.001531468571681 0.8304511515866924 -2.351011845583815 -0.6910017152073971
P 4.158254176110427 1.5384255061883452 11.547058275676894 -0.05117652287381509 -1.0432065957489904 -1.1465490019930833
P 8.397443708122456 5.02806524898878 5.8722900685133945 -0.41799452534289305 -0.4204350164635856 -0.6016466243813317
P 5.658808565254029 3.074604342656555 7.992065304710042 -1.9201787737153577 -1.6437340189242144 -0.8033427254056745
P 5.237917091577336 6.264313677818903 7.0036567728306185 -0.2930684793907533 0.1396129585403531 0.605840350747705
Ni 2.9322446682999375 -0.2892973986511504 5.3059607988102435 0.23430977329430613 -0.2668450269178501 -0.5268969421732668
Ni 4.41146490276504 4.2813790429040814 9.246349703408205 0.5789900633240802 -0.008209018173353604 -0.9462803774438865
Ni 2.5003316222666787 7.69150140987218 3.186333805984473 0.4072141468979374 0.14905893444460136 0.41681078944743705
Ni 6.294910741261568 7.218273580911676 13.23983551623622 -0.979594932435616 -0.18749281294076742 -0.5000636240305065
Ni 9.082337289240641 1.6632998289116132 0.7399268608324393 0.11488203145257635 0.26816631683243497 0.2476972503448057
Ni 1.8378679076986975 0.9414651046902157 2.792500890941232 -0.9308450167254226 -0.390047919531296 -0.1858802170380089
Ni 1.9284989325154742 2.1628063274674725 6.702581852708054 -0.02595271531001982 0.39084161907718495 1.1313062169014
Ni 0.237211491795157 5.4778043301785235 11.31936198260628 0.4588565536645775 0.5864573182354029 -1.386934292057508
Ni 7.696998384556282 4.004679568478707 9.808178267540855 0.3227981452447021 0.4661798267988681 -0.7298662534830785
Ni 7.434045950672556 6.944124629078422 11.058931527560032 -0.7850040749974868 -0.008227015895482604 -0.6359536251933177
Ni 4.939846631822313 3.45753262266063 3.928961274312469 -0.977187351435388 -0.6460246362760745 -0.31127343243455424
Ni 2.9753733607963087 2.085498790704122 4.5700576866159155 1.6097455777939114 -0.7274424745329342 0.13092365829647132
Ni 4.941771033344888 1.005973990179024 9.256780143813817 0.8218747227715911 1.60088092831443 1.4865462847248914
Ni 8.055231712964442 1.8246549115987205 11.081544626599708 -0.5113206850015646 -0.08346777880735302 -1.835969745866606
Ni 0.5572523557272924 7.56882771855511 1.710337174261253 -1.1009376319118718 -0.09695630021209109 0.7660000230911582
Ni 3.5136809503384425 3.709288538594828 11.33078961289177 -0.01738374269408619 -1.621501175667943 0.83068640752595
Ni 6.320811896682638 0.8702567237572658 0.9867419449148969 1.5038441525733908 -0.11520110535489192 2.4453016547073374
Ni 4.721173848283389 9.161210128677856 13.276436896582574 -1.714462752898344 0.7841144733036818 -0.5126388895923558
Ni 5.069232709311426 2.663205969313714 13.35519279870239 1.9561274238958248 0.4078306974360137 0.49199395964849457
Ni 7.626412441627763 6.701217277082955 4.36710422498771 1.858647904190412 0.5169370027470774 -0.6513943852284201
Ni 7.396340571557988 4.3819543435312935 3.6726006062182712 1.281314145522832 -0.6647510090409842 -0.4448658958124403
Ni 2.1759732852535123 4.910713586762852 9.802019261902336 -2.0267785105544838 0.19920315939916014 0.437279341714434
Ni 9.462070510257476 5.027236559337911 2.091542700557798 -1.0831605104341087 -0.1687507564465739 1.8214602393965211
Ni 3.941165110570942 3.860349454285577 6.280313833444639 0.16781924577124 -0.1738410264852877 0.38164658284147823
P 3.9265433420644866 7.169242776568555 12.815707549089742 1.359139124222111 -0.6168320738725184 -1.4488695961097242
P 3.2710682435521727 4.854279821538628 4.005209929855264 -0.5255301437327271 0.21496530732942334 -0.4898807699602338
P 2.516537108772574 8.442008796013667 7.4325276070789075 -0.3923079192100663 -0.9604073037635719 0.30342308315220007
P 0.33527310048139825 3.1942855435677067 10.700999289725022 1.4585045480963268 1.238291876325035 -1.7696975050019326
P 1.2014802941447478 7.023227660085324 9.852084086776486 -0.5310693283834015 -0.05330333940883079 -0.309277485050448
P 3.77784879571011 9.312814296473064 2.269551682928549 0.19571982883625003 0.6255766528343678 -0.02493121602404093
P 7.075766583950459 8.999588023769913 9.851531627009239 -0.15387358222442532 -0.28789130606518804 0.02314378510631498
P 3.464521238716298 4.164312818224563 0.26386399249968223 -1.6306067375136368 -0.5668434006592172 0.18506106357082322
