# total energy = -340866.0769445375 ev
CRYSTAL
PRIMVEC
9.24603192835397 0.00000000000000 0.00000000000000

0.00000000000000 9.24603192835397 0.00000000000000

0.00000000000000 0.00000000000000 13.53250233037932

PRIMCOORD
 96 1
Ni 0.22494763322118722 3.887494086828044 0.8076575240189937 -0.6577591511041833 0.4591288334893577 -0.6047149788940102
Ni 0.3571603409038818 6.633907646274213 3.821159356000267 -0.15055043138846327 0.38068936113453145 0.29832432847305396
Ni 2.793346417062388 0.9377325491404452 9.817965479975701 1.0375090311435808 0.8046581017829884 -1.4737712444474103
Ni 8.907460645395588 1.4837199752821575 12.413540200598934 0.24839684751499158 -1.5557796651004174 1.7773483366789713
Ni 7.711273768251564 7.805879166031145 1.3170426839185219 0.5340543791536545 -1.6088369499367132 2.250385809829621
Ni 1.5758289444651303 5.606692000993152 5.755129645347426 0.7622174161202744 0.3828866258961664 -2.6188601169551995
Ni 1.988525575611687 8.690493262254888 3.542403515887167 0.2083354607177315 -2.124375786784683 -2.021538345201467
Ni 1.9479262498053795 7.6352713865326285 10.47438658580267 -0.049408375229798775 -1.178411397919319 -0.8072415462394484
Ni 7.4667994403889875 1.866635137874372 7.012718495332968 -1.3853764606520849 1.3658571596722349 1.1051200454243355
Ni 6.434063914099872 5.250766005339815 9.571727933841373 0.003457105310665014 -1.9436647726524394 -0.1285880681847592
Ni 7.008316459574284 0.34993549162466325 0.4501587783497941 -0.8029930553757396 3.0305022177175034 -0.3113086565478639
Ni 6.1511076017221855 3.262138723377896 10.776324076943228 -0.41843238421126 0.36220467206678264 -1.080463937438552
Ni 6.731037210745918 5.967222520502454 6.3823878421501 0.22402433220789802 1.3148716697633032 1.6089701330804678
Ni 3.754157061673692 2.0953357354191255 5.792221951277093 -0.004605102872179166 0.5238843805991881 -2.7840061867696506
Ni 3.761331982380979 5.799481010874117 4.448431421850699 0.7430166748221075 -0.19714550553918306 0.8515609369821142
Ni 8.84341338284485 6.43448923156448 10.695521155493335 -0.1608304731582327 0.2711266850123395 0.37054481650136184
Ni 3.034621617908571 4.115353295475423 6.294575503962843 1.285864741007992 0.6437492099783364 2.2256391990125604
Ni 3.710987339016063 3.498199162266722 10.963397189941146 0.09543832090566788 0.6673244261951152 -0.7632803101671499
Ni 1.6475689055061549 6.277732007761216 0.8786097231473112 0.9632763977812505 -0.43285832982860295 0.6047103509083198
Ni 7.974924366148821 3.7297105534906185 12.109870927694876 0.4379041197826265 1.243837745843929 1.4698919639976622
Ni 6.616293955620373 7.235103128528306 10.258529651085869 -0.8577719508888324 2.6138305249510916 1.5658144236286
Ni 6.589683875986905 9.077393464569836 3.4974890670214647 0.492434646730339 0.21587470651757013 -0.1981559490815684
Ni 3.013078363723033 5.622317794801547 12.193474472188889 -1.3817560902906785 -0.3645700869751657 -0.8093552501483415
Ni 3.6655061083986125 0.08399002862489541 7.2955074545343646 -0.26875304257384036 -0.2200458071761243 0.5671637601131136
P 0.07161421500801031 1.177398940446593 7.067727761760804 2.251020615200143 -1.5974168810252296 -0.12256217370565343
P 7.905384960685547 2.4848433187127514 0.388819678524783 -1.621863186993052 -0.2716463049612354 0.8627372653139077
P 8.051472263746275 7.901991667000528 4.865164870498288 -1.1331005897976616 0.07602237827290133 -0.8999334147482307
P 4.287995201978582 5.979695417453651 9.843880258014854 -0.7205722297756623 0.21334216990370355 0.13969060585582393
P 1.792981248242615 2.961577966378207 9.620120739885015 -0.041283946350451475 0.6606364726519783 -0.7313163556660437
P 7.231885509448234 2.1187559340680386 9.36974189608987 2.1497250641827494 1.1133174936334633 -0.7176059480584868
P 4.372328258384715 3.2019747941996584 1.108150784986256 0.3778125538073687 0.6813405379685492 -1.267493694699972
P 7.502692535989098 7.107332214541204 8.402642100621483 0.17328129732707576 -1.354084849627655 -1.1389187391413353
Ni 2.583433756215064 4.061254763183757 0.46155173878216305 0.39507442621160993 0.08739539599653336 -0.08182201567381392
Ni 7.16337241351912 8.438927227971579 6.694122428627567 0.3024938864697113 0.7583214234999779 0.709124907170669
Ni 0.6459647684199178 2.1006337116630367 3.0568842133712053 1.558312201714284 -1.1964605421115457 0.636172168962027
Ni 0.4168499486487642 2.9400162201289906 5.6535139062273 1.2254366176289218 0.14856605396858283 -0.1398739255112236
Ni 8.112551550076603 9.152193862149664 8.846332355096513 0.8982316015657756 1.0684962235537148 0.6813310248868523
Ni 3.0340483639345353 1.377113228175183 3.0108731851293635 -0.08920313862923346 0.03864470895539151 0.6893487529850063
Ni 3.251302374062252 1.873051883970837 12.870004772663123 2.339854543415415 0.9552149609293551 -0.03291757666362718
Ni 8.433277902517776 3.7745815460066763 3.593556262434836 -1.566391893398625 1.749943719413773 1.1370441478264417
Ni 8.142055637675766 1.4377209668817066 4.87904871190816 -0.7500005623391084 -0.3926388201869238 -0.21612307508295037
Ni 6.500173041750772 0.30959505470985593 10.719785516849173 -0.6949956668581386 1.3166117923828615 0.3429118852754417
Ni 8.808241477728204 3.841596784777826 9.96710767195613 -0.5376914616856094 -0.4560365677172791 -0.8605777957687437
Ni 1.5986758891400075 3.033632292501767 11.8010996944219 -1.74161977292911 0.9665075031240385 0.839614049032883
Ni 2.038750020562692 2.044020258711085 7.576469397844318 -0.6379364599513012 0.6530748582546365 0.31823880800879384
Ni 6.084231053428626 4.392050044297913 4.883257505601404 -0.4059807887114686 -0.1345669114760134 -0.38082511538144737
Ni 6.442505541169141 4.431336433583041 2.0234478378686727 0.09492384316309457 -3.9317502375120994 -1.9797787447661774
Ni 0.2734153321227275 7.401115630202695 13.048106460967379 0.2182547767139725 1.199122148104109 -1.2444596956986438
Ni 5.131159337466803 1.4777285466502996 1.9103836621251404 1.5123591320229373 -0.5171838286505609 0.7218667802173697
Ni 1.9074378763811437 0.2667887011035108 11.71369325703239 -0.984847181973491 0.3327639982081624 2.2367677048255543
Ni 9.225191283520832 6.883078958311147 6.407639679706375 -1.886714580519641 1.0244897360657776 -0.010773693576736283
Ni 1.6717010486066928 0.6820890148160106 5.360332407238545 -2.243985305619916 3.296604452932058 0.5272620388221694
Ni 4.9936893360802905 7.542487457025388 7.8828181707754 1.2475195655708902 -0.30085532242502383 0.7442819146877763
Ni 7.725235276328887 1.800979065783598 2.4303971356239287 -1.6779762279365362 0.30723680047133534 -0.42902532923575787
Ni 0.7014418840588214 4.450854806795776 7.448329567186829 0.7795625922669412 -0.012720532890461963 2.4654359635633667
Ni 5.339121085596038 7.946243175383355 5.246104156086448 -0.4095661920698817 -2.3312955981018106 -0.27032398660538604
P 6.481255660607591 5.585361405539918 11.999418755945943 0.7844055221815395 -0.4600300051473884 -1.7236655024435348
P 3.7830416651396233 9.398036602724455 5.081481332997502 -0.7334984509190271 -1.718351803540105 -2.158390453167231
P 4.249994011119114 2.1057745053656802 7.768441058510689 0.9593073858311738 1.6101667244917304 1.7271007533773286
P 5.9516152187577385 2.4654913740731246 4.140986069543477 0.40623378526253917 -1.497202735997473 -1.1607134664189236
P 0.5725623708541896 9.071744139116031 1.0740828560712206 -0.06966095483124776 0.24082289182247554 0.6465635394986801
P 2.3988737146710646 6.404513596341513 2.9690718751839484 -0.37037203836892346 1.236659740038251 -0.518989514400732
P 8.475772664851137 5.776467637626132 2.2184910303120553 -0.44137536616067863 -1.2785759206560625 0.1313255217205803
P 4.678020563055208 1.5693752142413082 10.909619494954303 -0.6886581546758849 0.6824317141501989 -0.6191668926532821
Ni 1.7607403352190225 1.7884691847050431 0.8990490011312381 -2.133118823084636 -0.594451392184473 0.9532696642775259
Ni 5.075239336902799 5.003832233007988 -0.026880988366357883 -0.22961699580432712 -1.2674191327082946 0.14320813209077918
Ni 4.543120958520016 8.497695006342084 2.86958087418049 -1.3463957085135134 -0.9545174206416982 1.0211519299417962
Ni 7.214271818794392 7.89250523833342 12.508958324577188 -1.2875611548738082 -1.0790747704005093 -0.15792435525503123
Ni 3.3637248751961377 -0.07739945712985191 1.0294864707007896 -0.6880418612481247 -0.2998896160776448 -1.2999268755280127
Ni 4.408998020659325 5.826701328608976 2.134738624705429 -1.397195050553568 0.07626843284543638 -1.2056355237425946
Ni 5.898811130923572 0.7958152064392355 8.374629397957996 -1.6859649025689674 -1.0149404018144457 -0.2585647891869289
Ni 1.3420707675042869 4.335177702454461 2.8433683739161117 0.6977722011620111 1.8452989936873319 -0.7914665427933788
Ni 7.761341030661301 5.790114780620919 0.1882381130096677 0.37916726806305023 -1.0494122103390702 -0.39469236028184285
Ni 3.922980357027226 3.5416000357203328 3.2642421956213337 3.1199449831613686 0.7045092627755286 -0.7984044075637927
Ni 2.252888117960569 7.950487103997587 5.9020786785755766 0.6137464929686591 -2.987564794924029 0.931857260040021
Ni 5.83105620960528 2.2442523242226753 12.79452109333037 -0.10083815176500054 0.19062827324595558 1.8671191748862166
Ni 5.747869661147219 0.8981623066778505 5.739526966618631 0.7406831415929244 0.9261941482169727 -0.0657230532294223
Ni 6.3715330007707776 6.072904664425499 3.215985306245729 1.155663819810158 4.422481014177454 2.8158657544824086
Ni 8.84235008918333 9.162651124159897 3.387753462740076 2.237363172317708 -1.002456667525138 -1.928055091139641
Ni 4.593262189184467 9.287916363518551 12.254181143436092 0.1266016338823497 -0.5887677115361344 2.11085641214201
Ni 7.691052696619044 4.155185200639069 7.898420849504196 -1.273265821297059 -0.6406332900571741 -0.6126771711638803
Ni 1.28267425896871 8.885741716605104 8.32319279823286 -0.06358852338492275 -0.499026955235876 -0.7515311400510218
Ni 0.30100549113115865 1.5937662462333462 10.368481612512296 -0.41854011343371794 -1.4683202486351679 -2.7195432311995744
Ni 2.8870641957853964 5.949987917154024 8.036588001691392 -0.251650835675915 1.0455645544582057 -0.10206045420787585
Ni 4.8134379453733995 4.404310282516807 8.040715430304449 0.32053557446277053 -0.5454039998385187 -0.22203455547137887
Ni 4.4117625841792725 8.305534726626192 10.083500419161805 -0.5535065743409951 -0.4093453343083273 -0.5604930329611573
Ni 4.820437191475739 7.019097332698892 12.25852492919419 1.1568879220252462 0.3211055880336276 0.010098778996898736
Ni 1.4838494197279073 5.159137829812486 9.964319993356584 1.2045600312902287 -0.20330021228666922 0.15862138132205586
P 0.7623242299109717 5.113268265857784 12.259161056184732 -0.40126024330734766 0.22215899686438514 0.3129883582431319
P 8.459286990081688 8.873962272041853 11.144773822722879 2.4985317176760713 -0.5466666686010263 -0.37339308458343434
P 0.5538992555865896 6.603377249140888 8.44080324783177 1.3693551455231643 0.0891548018898013 1.8515979393221662
P 2.329805856831594 3.4566197570854498 4.455373342555635 -2.072318918188444 -1.37663625256561 1.225194933931761
P 8.38642825918811 4.6849458409028335 5.818664677734268 -0.15089084544701756 0.030588414309818287 -0.39330422168506457
P 5.294361045462051 7.599295076645965 1.0378864906267815 0.9055461329493177 0.24546321880796437 -0.44480856021194365
P 2.804580345747121 7.788015832517643 12.723948906110646 -0.8521708026519711 0.10220829263964978 0.19813023804995555
P 4.5096040931026025 6.123156847472022 6.436490997457685 -0.7446431546819369 -1.31545299618807 -0.4654712307676177
