# total energy = -340863.0087125686 ev
CRYSTAL
PRIMVEC
9.28811309413287 0.00000000000000 0.00000000000000
0.00000000000000 9.28811309413287 0.00000000000000
0.00000000000000 0.00000000000000 13.59409237012252
PRIMCOORD
 96 1
Ni 4.227930492896131 8.753052739669032 7.938283671442267 0.47289889069025653 -0.016644293424900366 1.030027378054555
Ni 1.6188066506133174 2.683410170610669 3.1439324639988797 -1.2844010119782718 -1.7138855402386355 0.5578309127479618
Ni 3.994418042222135 7.529195232986331 0.4069243081108007 0.8554361036668042 -0.7751042993852716 0.282104781290398
Ni 1.9756095141685284 0.4999122521035898 8.159337047245172 1.125613280281681 -2.4588056027310428 -0.1684360534196325
Ni 7.801922097038697 0.39111129561040386 9.587723447769275 -0.21487043362277192 -0.5248274612387478 0.5015705475933361
Ni 8.074230996002948 5.5730536038109495 5.190550531393125 -0.21720988038922592 -1.5275209273650403 -0.18531046057746797
Ni 4.045651273912114 3.570768628907537 7.363987565823594 2.022462913898265 0.3482245557376067 -1.270244775082548
Ni 6.863506881200166 5.821036934646836 2.83109209722304 -0.9908561071717321 -1.7151289257274334 1.1049004732143617
Ni 8.55362766395918 2.786424632661713 10.435736530293497 -0.5625794831765407 -1.544096315225218 -0.1425969808693415
Ni 1.7691068962999092 7.758407287309264 0.7940565760823382 -1.7293054743381315 -0.5817336875074884 0.796499477231596
Ni 6.6533911873476095 3.0342129131231452 6.406433264194567 0.03510301435072019 -0.06505868017254603 -0.059097320382788546
Ni 6.503703957123588 3.09044314964438 8.99421859551209 0.1826498830261693 0.43796428359660056 -0.4739036778056871
Ni 0.6865401656266293 4.462455347894675 9.007690074707728 -1.0877782117117782 -0.1966253713696549 0.4440251450786998
Ni 7.166754484798086 2.934941560639009 1.5649114457176916 2.9248779574177695 -0.29450084096190576 -0.4831326526031228
Ni 7.22795386181137 5.489618484109884 7.899541094207814 1.3498283883441462 -1.075299105408161 -1.1913368477317354
Ni 2.106785535045536 7.700124377799726 12.057130849207907 2.0368857741918145 1.4539022734376252 -0.17888116001235643
Ni 5.035541212380425 0.8147764987172194 0.8700816391767573 -1.2067506111836444 1.1456514298794787 -0.5956248436672837
Ni 3.918701344481615 4.1605638088048655 9.710559671921406 0.8359903362373666 -1.047666431292557 -0.9894808240907604
Ni 0.13270948834474056 0.6034384891847491 11.264037450450848 1.143613059293211 -0.46267181364560955 -0.11900042449632407
Ni 5.622717144392225 3.6842507943876246 11.530427963767375 -0.40478394018988995 1.4514934068858163 0.4719848635164194
Ni 9.137608485075159 2.2925292202043828 8.226778036240992 -0.43272823200864186 -0.7669796133956082 -0.9331713508657542
Ni 7.768039060562076 7.962922248981064 2.767866053938046 -0.6167850226846668 2.4304777023206268 2.220419602484834
Ni 7.81006777220043 1.153295711695613 12.798063133779365 -2.217680092066484 1.2629323005815345 -0.6678743851613143
Ni 6.005926113403312 3.139019980996554 3.946854544005816 1.100016662759499 -0.5538192204854075 -1.060599080193825
P 3.2800785541792425 7.657278312211278 10.111775505739844 0.013630189188924911 -0.14538122848269802 0.20085637873186699
P 2.7712942964719063 1.5724218139454866 6.1121078220109695 -0.07156305694996706 0.6251184822510266 0.8479552219087269
P 9.142187524818299 3.623116434165826 0.4406522330991656 0.3764105312535195 0.532815878760863 -0.18621446044897608
P 3.395232580011795 4.122612578803913 11.6602785709094 -0.9502815281834793 0.696550155829452 2.3226008985412907
P 3.0337577955827517 4.720739196124359 5.025885290033632 1.0635476212991877 1.1418297421405432 0.7360980933254032
P 8.073376489600577 0.29749175992890575 1.4100609534384745 -1.4533186330200134 0.16744643581285357 -0.3010640960017202
P 4.192923594738131 2.1144017877623202 2.624624774184084 -0.10930170915132145 0.17488540858940205 0.6913750393864158
P 2.694509465728422 5.70926378197149 0.877236272674 1.289478169390863 2.6247286599208346 1.9487087628342505
Ni 5.570360051020867 8.190954712944203 2.1039712367855534 0.031566204842055315 -1.107688063261828 1.1441121104168166
Ni 0.5132481248484179 8.104612413852463 9.512139570045646 2.277740290583174 0.8102913888093658 1.281742234199186
Ni 5.163540698587749 3.693650364813705 1.3804123677101239 -2.426668355876866 0.6066368785070714 -0.23685979340966948
Ni 1.7793795493544988 4.5769313414731725 6.882307879674941 -0.6393767919422537 0.6233814449552618 -0.8668654285496684
Ni 8.14978979582129 6.614715484527255 1.1757422945500677 0.6170066517771696 -0.4187470872382014 -2.103506913755474
Ni 4.45707753042758 6.032109304145526 2.4297267247841843 1.1238230211504774 0.5087431540823755 -0.8623256316977859
Ni 6.578417538652629 8.523571330067089 0.02105522351668118 -0.10259164412099751 -0.9571042075322678 0.40435148063816173
Ni 2.2091962697470784 3.9348162206567627 0.17387904952418795 -0.7961464647675515 -0.18150548500908098 -1.7577632154581921
Ni 2.0667537677170715 0.11061028091907577 4.105388701928298 -3.0380360642007034 2.222810985535146 -0.8182692648085197
Ni 0.8498131188370416 2.878748476570051 12.037649960856465 0.6186920098993925 0.04474285143332939 0.6161260489444292
Ni 4.891575459807061 7.322924817944443 6.080909050211361 -1.7221274685324535 -1.3100511084462083 2.217846442441019
Ni 5.269824576439168 4.76861013088327 5.435176209354478 -0.17407859641739054 1.8438355217679276 0.5034471957907588
Ni 7.9559097236137815 6.99090264005799 9.904982169932158 0.02730023047684976 -0.7999095313544093 -1.227026330713545
Ni 8.91428509443813 8.370363904989823 13.16576931326657 1.0753975786592382 -0.3482780346833615 0.19450164015843277
Ni 0.7251991498434587 2.23577884935127 5.6210889381711855 0.8536175624008266 0.4931908081700732 1.0159477600330373
Ni 8.971221227552627 9.419075463525688 4.9417786397576595 -0.6830791179262107 -2.7115355304037494 1.3990043358481647
Ni 0.5807244086739001 5.220959813581848 2.005291537103928 0.6585245685152982 -0.30185239623097043 -0.34404394199735583
Ni 3.640169409760968 0.6269021204202867 10.234257852784033 -1.1986801754706842 -0.7428212709818497 -0.3402042565362915
Ni 5.4905008548514616 7.752611504754054 10.174715475142305 -0.20743403194938467 -0.4415579144851299 -1.5902645862511644
Ni 4.871903236326391 6.07089646432271 12.185540870012892 -1.559085589545199 -0.7442016962691441 -0.2528083463191259
Ni 5.069777197153677 0.9765893605531457 6.037326437256523 -0.8616725714948192 -0.20838482589842822 0.5731567444717549
Ni 3.991678048866706 2.8757391279356135 4.838653649161092 -1.3937562000753478 -1.3493437353982438 -0.33751796795338
Ni 2.6919087940690325 5.830743012804201 8.860860796875114 -0.04490688781501943 1.6511164274312145 -1.202444784719439
Ni 4.547376565686822 8.720191395630026 12.10336428963271 -0.28854436626815466 0.5939991351384029 -0.02960676712283934
P 2.844020221804128 0.29194582761525706 13.304960046911033 0.15029537795486375 -0.9566092701737202 0.3256219878467424
P 6.856475779606745 1.0311663129480544 4.967798359709856 1.377506570985705 0.14301787045684403 0.35419440016779646
P 4.466059135765544 8.083937074160314 4.016279473953227 -2.011915220289406 -0.6915442179744283 -0.33041375280843094
P 1.5807160989163263 1.5250710135184538 9.988001182167721 -0.721281597137861 0.7554505297100861 0.7174851062099062
P 8.054242976677923 4.721500821396037 10.706231460775323 0.6927480084745424 1.08439438284121 0.33840782675750103
P 7.935271536373909 7.388229540934335 6.208612245611776 0.652275759392109 1.4480406724505257 0.9598609443417985
P 5.2036281945946286 5.260731513744373 8.254060939570603 -1.421388617080636 -0.3354723982782609 -1.2445969926074565
P 6.728643479434667 8.773570181439004 11.512157316548855 1.3239134682505975 1.236154004046426 -0.37707644697229253
Ni 7.092013038929837 6.586442468344461 11.935395266454483 1.2194621452130419 0.605466512348054 1.6682006366070108
Ni 2.5525685218041545 6.851571655906181 3.5678921002899906 0.01652910800327476 0.6796577509494875 -0.17386236664152638
Ni 0.07393988171037269 5.638339750574702 13.008499267532812 1.3956824705637834 -0.8813137427645145 0.212557212108563
Ni 6.771359511440144 7.815296979858417 8.018366711136641 -0.2287893576967092 0.8051800357247294 -0.8793964711371435
Ni 0.1190030198884494 8.98046290005653 7.477281182608376 -2.3518695655984208 0.1542952431428762 -1.9540327461503253
Ni 3.9063202897603055 2.0312453114533313 12.195776370615205 -0.7600857144892522 0.02942319035712352 1.1066652784242683
Ni 6.406160193670332 7.86092019125457 4.710706176386956 2.9896669288686963 1.0736782819752864 -1.3062440759952922
Ni 3.236489439545256 8.91239960748507 2.3814944824268798 1.4282814875457273 0.7552427845746541 -1.6249377121533175
Ni 7.244616736657603 4.623409059271696 -0.2267014773603155 -0.5405230175971336 -1.8106261248954947 -0.41684498511948204
Ni 2.99047518868005 8.799242525962407 5.789330103062339 1.9994906213728083 -1.9784026903542569 3.1876639837748972
Ni 3.0312035644887083 4.3166505489336 2.8552625538631466 0.7090382609941337 0.17638384751179945 -0.9068874774685607
Ni 0.14774415696993434 6.653158984520878 7.720520145288489 0.5593517202678625 -1.00151281555463 -0.366136403021021
Ni 6.532580700655885 1.1070316204976824 2.7683416053271914 -0.3930360556253425 -1.3458264662736048 0.5051814048730462
Ni 6.1797159970420354 5.414626259188765 10.132736919314524 -1.2863661061244427 0.20269780281597993 -0.75803371705623
Ni 1.1581069542654843 5.166633640239809 4.316940338061361 -1.9167949448447892 -1.27109272490514 0.2281607229737748
Ni 1.001936621119127 7.337182071505741 5.401884825680368 -0.7133731409240618 0.04279524078865533 0.14070619160453188
Ni 2.647418732467328 1.992551032406839 1.0320263922182669 0.7188346782592653 -1.878972988901009 0.8225028432738932
Ni 1.7101738188755227 5.500504152627043 10.934884370691487 0.21662726841287852 -0.6973932205560377 0.5715402919142544
Ni 7.20344253142162 0.8780629147371632 7.4390680278188706 -0.7876584819011984 0.4492005186320522 -0.8023690486384955
Ni 8.652165255510845 1.9273020380953627 3.8451023365208834 -0.8337023115341384 1.4242445984721923 -2.31731316777979
Ni 0.2606012324404615 1.5329937739665234 0.6145154928311358 1.072953745104436 2.519860303950518 -1.871884457485344
Ni 2.2514293198729547 2.607786354000842 8.189624655152686 -0.5824556532751776 2.159678832961352 0.5279780910525875
Ni 6.011851929541493 1.570684936801537 10.915308743586737 0.7634736571248787 -1.6920399051184536 0.7478320939328797
Ni 0.8386209425885962 0.20637722834218425 2.1533041205415637 0.5583189081279739 -0.22287222088132586 1.6840044364084867
P 5.9123669504567635 2.416200445721437 13.20704104368978 0.8819878860134036 0.20666861453826987 0.3470842714855764
P 2.4193769803911205 7.086077934678587 7.110539109257762 -0.4104640212938028 0.3537424002320424 -0.005078957184804157
P 5.076269588189082 1.5244579980558832 9.057471574324982 0.33120410992021027 -0.15986656658306658 -3.0142441039874277
P 8.696581012207995 3.813987157738899 6.635684328592393 0.6372818570864379 0.6582492033667244 0.5585199683951866
P 6.17210903243832 6.311542185833891 0.35004483248602514 -1.9405329118916772 1.0333554139865235 1.7698031773418614
P 0.24867622407085238 7.1101155713018045 11.533921223092719 -1.6791324530281662 0.2360480961416515 -1.869427511304419
P 7.955863283048435 3.892146629216631 3.4669693213021415 0.9577580390661827 1.9878748915107503 -0.01049215778057548
P 0.45866374196305376 7.568112426746485 2.8786574530619724 2.500952925523054 -2.1012949937058196 0.9235860211701642
