# total energy = -340886.7069523525 ev
CRYSTAL
PRIMVEC
9.10869416427076 0.00000000000000 0.00000000000000
0.00000000000000 9.10869416427076 0.00000000000000
0.00000000000000 0.00000000000000 13.33149463032776
PRIMCOORD
 96 1
Ni 6.030966459415565 1.803840206234848 11.5021736169612 0.05566026967678156 3.965265081440094 0.9824275167884048
Ni 4.852747788389314 0.2944940949418007 6.167748983842898 -0.7123742673459021 -0.07196209216059864 -0.8624490446495277
Ni 2.8815990916950933 1.5843206820585165 4.6449730141911125 -0.5127407052775427 -0.3116812093959342 1.2186183091555076
Ni 3.5685130284880273 4.709513576037744 5.197936319505527 -0.5499296556230141 -0.7652366625625724 -1.2147354291613337
Ni 5.4432279823417975 4.639577023895591 2.501095243268337 -0.4950065212225733 -1.1388367209504904 0.7590238488836412
Ni 7.5038969231690045 5.864304686226589 2.5259984125255195 -0.42255617657164646 0.45018165159839885 -0.3112361514387156
Ni 5.084545832009201 4.609390812147859 11.363698697198101 -1.035909804977261 -0.3029240320285944 -0.303125092295807
Ni 5.668249157663461 7.46750769084185 13.03221559177628 0.04023827869475651 1.319853953469243 -0.03343025463398759
Ni 1.8946265588267774 6.432240862654741 0.4924187275033088 -0.2537239161548598 1.731298079288128 -0.5330367365224175
Ni 2.7581307452133434 1.4519622502823224 0.7140268752021979 0.2624967772514834 -0.26472566658200214 -1.4389435952452638
Ni 0.33732044128287364 9.246872836435127 4.966274906294879 1.0518778982707433 -0.23884725615334348 0.2057669286596069
Ni 8.446446355646948 2.182288222437264 1.5144178320839763 1.5165456593004591 0.7964364852041445 -1.658775229528053
Ni 7.112368822455501 0.893996450250993 5.098163329463293 -1.3718689130839534 0.2872171628162989 -0.5817809958056561
Ni 0.7643815570923056 7.474867515552823 2.7269835662539674 0.4310891537433221 -0.6856772176706901 -0.17828440696862197
Ni 7.719590795886661 3.7411501049076956 3.7774518937729384 0.39712128143830966 0.6085628918851906 -0.47044451561249295
Ni 8.113596461354355 3.794190029774035 12.33029872517958 -0.32587035641212264 0.4728767792030694 -0.14549255724958168
Ni 8.14116847793866 8.86174814756793 7.287327704962828 -0.33925371969756407 -0.30491252321353296 -1.02497901699737
Ni 6.659858015751933 0.7369261317905504 0.38232558721660137 0.7401465523631641 -0.3372045504780193 1.206958356319076
Ni 1.853509914339974 6.691374096816253 9.306516564414656 -0.3650208013593391 0.05989719057626459 0.11535074355887874
Ni 0.2515256529751198 4.9273662092213675 1.1704343811772442 -0.5301815264618094 -1.0720692856169538 0.043799513683453604
Ni 5.985158837544912 2.3750646211786703 6.980823797048973 1.8448724476728744 0.34993151112638443 -0.2138273370702382
Ni 3.2000390321600127 4.42557736825249 0.3291226167285708 1.7898274429825884 0.06505148108369442 -0.30123456014131345
Ni 6.32288188310034 5.645887314018114 4.720002237120277 -0.5581913814111742 0.8718060603843952 -0.6265009644208501
Ni 5.128896062847979 2.805823866731487 9.652042117206992 -0.45366189683751545 0.3578121994260418 -1.7404015842512928
P -0.048075686664011553 6.064978322621974 12.552415138000834 0.4657591943216817 -0.5941868256691767 -0.7944312818486575
P 4.045435134975519 6.12992331047995 12.441003969699674 -0.8601409653416411 1.0187731452969744 0.6564517451466695
P 2.4961373811517737 8.460473744328755 1.7725819012092914 -0.37781075403515574 -1.0371081961607365 -2.0516971281730347
P 6.729184285399488 7.991084527737274 5.812051752517463 -0.20598521531800007 -1.093532340586736 0.39553773900127365
P 4.695795882950211 0.7389446183696987 12.837949010704781 -0.7409078560092207 0.6043144010214817 -0.33788075060943745
P 4.145995116174967 6.109920618567451 8.051996185914533 -1.8926242611358564 0.9835667725991706 -0.21994219171872445
P 4.912783190208658 1.2309580089922671 4.082023847700162 0.15639789130817583 -0.8636201821394933 -0.6262261134929086
P 0.33706995219926994 5.330863133784154 3.4265540332893494 0.481773567472067 0.6997666058842206 1.0182589246647173
Ni 1.2201459892745363 0.7948282774869864 2.697907704298645 0.5195109341218407 1.3773255653231506 0.17096833292318298
Ni 1.7718869078609656 6.517325172834455 4.950476787509342 0.6613126727833966 -0.08586456117430373 -1.553471071571899
Ni 5.937474824720716 5.537584942961823 8.960883529033719 1.358111197178229 0.01388961349789866 1.3572444783025592
Ni 8.83247280521512 2.390048422725146 10.340346951565973 -1.4144412392285253 -0.2118858970731512 0.21894794612625515
Ni 2.270460379865766 5.328503982051305 7.054093220307147 0.006140308569782973 -0.10380571903375671 1.452448314599918
Ni 0.5633180685958944 -0.03561043899449662 9.209142804358647 0.39686648511502615 0.5266274905619639 0.1096439229820886
Ni 1.348687878286005 0.9753407306951553 11.501773745296827 0.6400200819532075 0.94607957428699 -1.4893279612350865
Ni 4.0778438680468625 6.524402628033003 1.571849969172632 0.4062319854903262 1.5807234795299487 0.06473137874011432
Ni 5.781415571288638 7.939483776514912 7.918173987020698 -0.22701169697099613 0.0008512922567017597 0.482545155530769
Ni 5.3995062513855165 3.234497221369933 4.577528600713468 -0.12706674644422636 -0.0846977945597122 0.21675273824714927
Ni 0.9341967601265042 7.358686124230454 6.931417330198979 -0.7776453206395704 1.2039897606090555 0.7352671127836756
Ni 5.247026714675482 4.768783847565353 6.814993647617561 0.6184585537323478 -0.3421631800348752 -0.38894465916478826
Ni 8.138873087063455 7.287237528892731 9.059177267178601 -0.42718570492385777 -0.3017166419840545 0.43800156459243916
Ni 4.54681408471668 0.40380297667947984 10.200899223289095 0.11427859354062254 -0.9490710528151461 0.37704302263119577
Ni 8.45349648476365 7.024788730133698 4.638013972013905 -0.4345902249180451 0.16053685317721386 0.3755967771029725
Ni 7.367840361649425 6.107661662468043 6.871238921884632 0.27943006267171233 0.5515396804226114 0.011595161036767129
Ni 2.6610229590206513 4.979167351710612 2.7674452956458215 -0.5823749206359131 0.48148354703547397 -0.14360742441172686
Ni 2.2435259718579066 5.3192950924686375 11.479123156053289 -0.7723488481273215 0.6627499194505554 0.46386429129181406
Ni 1.3524497688870352 3.3194813359162048 3.8629606690906866 -0.9064966697880453 -0.21019256853112833 -0.012436425991139873
Ni 3.8658572337665404 2.464138539308145 2.4796442690179115 -0.2944136805647381 1.3556545081076201 1.0333340738302847
Ni 0.9723439703858601 3.3963587128476673 8.528329870772906 1.2929265329507797 -0.13960781633403052 -1.587818438703517
Ni 3.7104173715230093 3.1023665069424693 7.267557284746033 -0.44403131572628685 -0.8969452786541843 1.0525147605237937
Ni 4.269108223592697 6.996169213745232 5.885507904001595 -0.17231610520032906 0.27660570584903976 0.09837580626743703
Ni -0.04455062210566134 7.8511476625953245 11.328744084167948 0.4528483997972846 -0.3502521276905968 0.06362606149107752
P 0.1279653086844826 5.7417381004458115 8.029719053122912 1.515389691319145 -0.7281168748921395 0.2539157204506918
P 8.546113684839373 1.6515701694856475 7.9817253447044445 0.6824322283708312 1.3694088815792351 1.048903903244084
P 1.634937694334362 3.34000322338381 10.628134315152959 1.8096722456226577 0.197381275699073 -1.9092387297640858
P 4.3741223561333165 6.137082743924042 3.7329914477373745 -0.17683764721976641 0.140026649039004 0.4230847953816068
P 6.827922527809091 3.9435635018473825 10.349399171612712 1.8335935323249453 -0.24789034019221826 -0.17074593249973175
P 6.343330901016351 7.761964440138459 10.140680736721372 -0.5693175732313228 -0.5668945656121269 -0.39431492233776605
P 2.380511620160307 8.576472961772142 5.832755813864051 0.7128895164194239 0.44674665777492095 -0.20803104210343526
P 7.1153473653768975 3.7875224658032023 0.9572089645198272 0.049957562865049446 -0.44884776327832376 1.7556767652428087
Ni 5.088280396528383 2.8508754670043563 0.35590308780868835 0.43868187848891543 -0.9667689843155415 0.6874697907947386
Ni 1.6044964391560506 1.2087327957561573 7.179729435948813 -0.56330941936403 0.23606815074630957 -1.6080021127402437
Ni 6.941945158665494 1.0626475621984806 9.37905273780992 -0.18694722484994256 -0.7223475765085301 -1.415720620161581
Ni 2.5101192263638348 1.6303924560536984 9.236339542752244 1.2528762018971134 0.4432185900170044 1.5535433195707309
Ni 6.3656654185798525 1.811628139561436 2.4939758880776224 -0.5685529271511564 1.05834602249359 1.0335191932578973
Ni 4.240670881083216 6.8959826889977025 10.160771782965178 -0.23583803701337447 0.6167374572761831 0.8216276397577915
Ni 8.293229014727029 7.365690709877408 0.8112293918119615 0.09956571281048014 0.6342176163388175 -0.9487455511549273
Ni 7.911428999151298 4.132058814432652 8.302628276013234 -2.4080769660279238 -1.658383136295957 -0.7274273050242827
Ni 3.0632628838184446 8.375179934188209 12.420673364805005 1.2887204652892323 -0.5804764180616196 0.0671628709997424
Ni 9.150138506694356 5.0399769925156415 10.18363551564713 0.004395557964534366 0.4519899084517312 1.0222009400316008
Ni 8.76931312137119 2.40128855105849 5.856379211621368 0.44958438433403214 0.12001678157598039 0.6910765343093904
Ni 3.790118443578731 2.7156751227160036 11.674349793467037 -2.132461392006295 -0.7932732569848144 -0.10409728213224653
Ni 1.4433909692761013 3.196331793722678 12.669599396527014 -1.1035208192580155 -0.5894958479514105 0.7717754921223546
Ni 3.1157198522720333 8.472369698626444 8.14552972060155 1.0239058385378494 -0.06913927799982286 -0.9327586888083677
Ni 5.804843132126045 8.154521823268224 3.8195932663290297 -0.19047683526975584 -0.11365304414148167 0.49465350875852876
Ni 3.3523455036850103 8.27968438682453 3.72299283438931 -0.3812552609403305 -0.3704645980827297 1.0632570866419624
Ni 3.3193447055069667 4.501926440934898 9.500569091178349 0.011983654724437427 -0.2708945143968754 -0.7147260554075304
Ni 7.017465340198522 5.947266670716133 11.385123256236074 0.981930265437012 1.1415867728918017 0.20192698608822643
Ni 1.0312590028494497 9.090194191814502 0.0773054855470758 -1.8695108150468447 -1.4175581875909522 2.37305057055141
Ni 4.550484888378218 0.22678188586204906 1.8180288187995566 0.6826366310721533 -0.8220120196804037 -0.3232612009240497
Ni 5.71459419247712 5.110050175067031 0.29109564122934467 -0.1329617717724226 1.7245674454325137 -1.0392136725395136
Ni 7.000586930310607 0.009063150479479252 11.572590197274476 2.567569179990707 -3.1096073486807865 0.20598572953863237
Ni 0.1813131074063058 4.707992424148223 5.857138876696733 -0.13987855349691394 0.8794363232361435 -0.09146185275642311
Ni 7.989417636744565 9.08919223548009 2.777257180767927 -0.06542146282860346 -1.4939461767333884 -0.14249567940478686
P 8.586301242543355 1.8422606773126806 3.6209408491209785 0.6660401601660529 -1.2242482537477755 1.3429871970525968
P 1.8298637448477848 3.306437686180914 1.4490001030100343 -0.059512296433020084 -1.0870793858725405 2.398100314431186
P 4.792712386569969 1.1642641518960386 8.19701570228015 -1.105403123882393 -0.5775471602299665 0.24063828661549527
P 8.596329914581451 1.602765787305698 12.589636904954949 -0.5338018968232161 -1.0426242408829591 -0.20953899410752946
P 6.389739696687655 7.913578650923315 1.7693556018124759 0.34349449725178904 -0.4925614021161904 -1.0762941223315785
P 1.9515558960094361 3.2995150787795033 6.152777934467951 -0.9588746691691292 -0.5470443636554191 -1.070060482717041
P 7.0905717178350045 3.9663625628022934 5.869656954791154 0.4660065344457974 0.34262700704517124 1.0784255668522849
P 2.5204211592204087 8.683700506942422 10.324962367485732 -0.8956283596149737 -0.8834428732923754 -0.9230828562815004
