# total energy = -381172.41221280454 ev
CRYSTAL
PRIMVEC
9.21001128716296 0.00000000000000 0.00000000000000
0.00000000000000 9.21001128716296 0.00000000000000
0.00000000000000 0.00000000000000 13.47978248096864
PRIMCOORD
 96 1
Ni 8.879215300894984 1.7542492677415424 9.183411842325267 0.6770203133266405 -0.2325737644398059 0.33521580218276464
Ni 8.145941833142357 4.914148876432146 4.206999605663585 1.3145137722032523 0.8804629647284449 -0.19151838916039274
Ni 5.988855882204612 1.1620639627242921 1.6750652747959405 -1.0363345512195055 0.3257227750906649 0.03507061845088799
Ni 7.125288383548098 9.108074871089604 12.978334360479545 0.06982293433040877 0.04783486009509181 -0.11102229138685396
Ni 2.5753770330548953 4.448370976176503 10.077808931342842 0.5167814510058196 -0.042819409158371416 0.026088212446619588
Ni 5.578070959277313 4.375298746713582 0.7053035845088732 -1.3325387480257633 0.16875924108700613 1.913991413957723
Ni 4.600151962003189 4.734479976462062 8.313183664897881 0.799398910266578 -1.3345069274957275 -1.3246410904452413
Ni 3.9107365679463557 5.307978168600529 5.868908379351915 -0.1531413320440911 1.0307596282348894 -0.20967860500918725
Ni 6.598586258702435 8.525385087697797 3.0734710208753864 -1.5830343870513124 -0.20070828318977693 0.7345328057208124
Ni 2.3733001756505674 4.7762105375531245 7.594388334870956 -1.3413761438117349 -0.46434560180360673 0.482775269263704
Ni 1.9379797826842953 0.08412700599737269 10.124933796038196 -0.756050368077614 2.5028833097765473 1.1623633433175207
Ni 0.3382247700913169 4.197352118852089 0.6497791895299081 1.1788626265241247 0.5579561254719165 -1.459140896128745
Ni 2.4945591841089505 6.5015219498658166 11.758117465558149 0.4205784840199854 -0.615727785064746 -0.380096464745539
Ni 9.197264620285333 4.998098129211894 6.673017885829676 -1.039606537102558 0.0037352986727161477 -0.057729750611300576
Ni 8.053399639842203 7.777642692230746 1.6586604027113232 0.3213657836735498 -0.49450669876801934 -1.9719101406513782
Ni 7.440160249048266 8.733945793040354 10.300616603128075 1.7998534597600226 0.33965069802566666 0.9110014996369343
Ni 6.997057396553866 4.333733965825486 12.422630831127227 0.422705300555001 -0.4504575309676048 -0.06627095531309232
Ni 6.2714190281489515 4.71220095918568 10.319029257670836 -2.0322626735975065 0.04339867870060913 0.6036436002067023
Ni 7.139471800912971 3.8722387208131304 8.44676843144679 0.771906104162948 -2.01113926135533 -2.5388095913595112
Ni -0.045716653971268575 6.1696760335841825 8.992551857653845 1.2706458671757086 -0.7861153057837946 -0.6378444144581272
Ni 2.1603647149519634 2.251009645929284 8.83215582727969 1.165836903688418 0.914662236317973 1.9438437214324653
Ni 5.3592779314072425 0.5571485801215051 11.362121978737678 -0.18767716103743162 -1.448185682668822 0.5644900699356924
Ni 4.875015538520885 8.469388219140379 13.528174796653632 1.1572949276556779 0.933610752396018 0.037162725093226316
Ni 8.531822885579645 2.5252469416802197 12.645532445027474 -1.4190098324358142 -0.5544442556639161 0.6815454548905037
P 8.390633412720234 7.149068632662449 6.928432681536073 -0.5310983818491241 0.26806064449250605 0.2520529562103401
Ni 8.417020095025663 6.109599130031544 12.778254233519831 0.011475090519135075 1.5155843238284543 0.5392091838817166
P 8.887476681009458 0.8583067388318705 11.237056472618969 0.34757252397590466 -0.8652980840625485 0.5960426479309929
Ni 3.5269646080912467 1.082774975650145 0.9759130568182351 -0.22468459149971626 -2.2750074650330427 -0.08809216495324185
P 0.31029080589153896 3.6863346432092676 8.370809784450005 1.0314152595410173 0.014776129867910038 -0.3901697898211409
P 4.819239710234088 3.48571296758653 5.0953843993202605 0.908559465854345 -0.7579550412994946 0.42739756382434785
P 1.2900554894253518 4.035394070565543 3.6834721717047207 0.24779469515461838 0.6700629081722008 -0.8682355694243176
Ni 1.1737146269882945 1.7436761747968192 6.9953738064926325 -1.3379961715959086 0.35004746787895846 -1.2105761555773216
Ni 2.5249153812742873 0.024050102444734607 7.725546263448667 -1.3428786964991906 -0.37818304977290995 0.2049302916909245
Ni 1.4340908557690135 5.796366646538486 5.001834630786524 0.7086189140685281 0.5533677347702857 -0.8080794687597115
Ni 0.632988417972831 8.722525379058247 5.459635740276118 0.5513954415352632 1.3786908211017934 1.2161420797008733
Ni 6.246257277343218 5.1469134914077435 6.2099468078880165 0.6023007130255628 -0.3967387012879103 0.6478658032498714
Ni 0.862808592343526 4.746674031391342 11.821189464777708 0.7867822499438321 0.7618836869299395 0.8930089197142557
Ni 5.799967760947359 6.164849987675615 4.199989866081504 0.2625093756569737 0.6419270691679332 -0.40397969912103976
Ni 3.885482717027862 2.529861157329441 6.992690930207965 0.14522850495491763 0.0415035185604253 0.09084478799771452
Ni 0.4510004371634766 7.513831129244119 10.978945906612118 -0.5804962155559615 0.08543133029162707 -0.13462244730429718
Ni 3.790011740141974 3.117358566607263 1.5475195126406343 0.3673926440256253 1.016616503965288 -0.7011565442532118
Ni 1.9136837729384943 1.8651838535596517 2.7775229655437927 -0.4176708234548871 0.778648307982788 -0.10001719852560195
Ni 5.192733297505303 6.488729244203604 1.8626096554080398 1.1555506912710616 -0.056640117091547613 0.04724762013305411
Ni 5.982445714356591 7.789099946257953 6.574103285727733 2.311026306329813 -1.5360886144293933 -0.5464427255156782
Ni 1.1265041091880763 2.5598950041001225 11.281216634684613 0.006900840884891342 -0.7057480202786363 -0.9545786128969367
Ni 3.272538046594753 2.061053163364029 11.314686736662328 2.534194204074687 -1.938786618624532 -3.7101424851654943
Ni 4.524022008796673 8.702521234567012 4.637139367287167 0.5862292613849969 -0.38144937922900757 0.6872049671691262
Ni 8.08774377189 1.0963413222595328 7.1793999627973415 0.21399960098204437 -0.5511961810402636 -1.7946464616377866
Ni 3.9683543984883305 4.4639911553004135 3.367937185392689 1.3734830516486087 -0.4331460362723508 1.588732465877354
Ni 1.1975961862266804 1.3404434611157523 0.25879671184690384 0.996928281507741 2.5890438049247155 -0.16482673880181933
Ni 0.5918684806293597 6.561221242956143 2.565444956894974 0.6904715537355399 -0.993265230833857 0.27646326673390453
Ni 6.422113232645083 3.864622041487969 3.319072549567321 -1.4888865028222937 -0.7500964644870243 -0.48553432006608
Ni 4.08859109569509 6.969869443267434 7.737004438477004 0.014269622545136716 0.4401234960314485 -1.7026649889324679
Ni 2.521756347406657 8.755635369595076 12.72515759751319 0.43219729920583627 0.9224272249753727 -0.8869359740472983
Ni 5.792332661599644 7.336602882262145 11.414706538117379 0.9287472536561295 -0.6712417589716504 1.1207181569729088
Ni 4.371366071898777 0.9153664426905265 9.405342721037034 -2.081380257059764 1.6290327081582976 -0.9542927062254019
P 7.7831226489399015 6.176288821680273 10.609828916699207 0.3852504981426526 1.3125715608752169 0.4080541263007295
Ni 3.5294328911131854 6.749308093232393 3.3144896479564374 -1.6258334844947098 0.9385508700101126 1.046004984429734
P 2.991559022589865 7.470111205717463 5.585240032054466 -0.017451876927860266 0.0020787369058996455 -0.3111230228996191
Ni 6.794197688191087 6.086528051785437 8.41688378685878 -0.5832010160816343 2.3523675882807615 -0.5564623145352093
P 4.430936424831241 8.792143854292709 2.4775436882767417 -0.2174986152742383 -0.3898185771293093 -1.0482166473690724
P 3.7191867534303715 8.181437216599642 10.996213756753287 0.4816357563426222 0.49746089630033685 -0.36345834196822563
P 1.2424489411402702 6.426681398237926 0.2255356771251505 -0.27825146898257885 -0.19679454995766751 0.29336904135030767
Ni 4.564232918027213 5.086578707539381 12.350271456537062 -0.7953738482675851 0.10291560311931952 -1.1960237116844432
Ni 1.501775228635538 8.570219422588837 1.4781386556970908 0.5092473474123036 -0.4800244459914443 0.6167513412332539
Ni 2.1547742381074975 8.879988941842159 3.6403905019594847 0.7437558669809772 -1.1834836702359037 0.040747100010374994
Ni 1.5206649617623906 7.008735690851696 7.109007846615706 -0.2196100051902863 0.3096320401763893 -0.12519781155628762
Ni 8.585167270889606 4.004402382622169 10.286516075864688 0.2524854157620684 0.08080000216720278 0.5236460393361368
Ni 2.301885748217307 3.53258271496954 5.408533992711836 0.3956912338600024 -0.16472235201347113 0.7392551508971462
Ni 8.871801241817892 3.3857567152092836 2.584370609065803 -0.8682625660075111 -1.7679527543966844 0.2720096018379251
Ni 0.28168727387200376 2.1976652606193228 4.843595585053182 0.9371953844234827 -0.568452139907234 -0.6051199276419128
Ni 5.721139274437007 8.429868060755531 9.054437607421068 -0.7842121752238107 -1.3393125764144869 -1.5189635247133324
Ni 4.397375143741893 1.7059059185543897 3.6057746745790475 0.3531405049819854 0.6888445596550781 -0.6617906408610796
Ni 8.267900802457708 1.0151458628512762 1.4796758065790372 1.3235967083411269 0.25608418885692025 -0.11050524254111936
Ni 4.3679952077718 6.2680389540106995 9.896600117487429 -0.10547693608859253 0.3917499898240672 1.6055613645092348
Ni 7.41928115348582 9.102926474786381 5.098593167248781 0.5299223592631519 -0.30508093047059714 1.1157117048972527
Ni 0.05805991108321792 8.523736495679413 8.524938402150916 0.23288435370168922 0.4659993353569458 -0.5200459806897043
Ni 2.425944600103561 4.921839235847516 1.903790378825932 -1.94195396060892 1.0123183908105662 -1.0245959226263386
Ni 7.473426809776784 1.6822453995866253 3.674885678192207 -0.43417036377180707 -0.19218559043074643 -0.15581965020720262
Ni 8.505694083589942 7.053929216182493 4.680584832477802 -0.9890023417924452 -0.11323678253966951 -0.19853158725343226
Ni 2.427906332505326 7.371895645471359 9.273308920386985 -1.1792310656071368 -1.947098738034653 0.3883137104490087
Ni 6.073827446235983 1.6494761794670045 7.949203098273536 -0.1302178904786983 0.7861957813127427 1.0954606679577006
Ni 6.91520802634502 2.1673919535554687 10.478441658840728 -0.9791377902935396 0.11947067926452329 0.4454989014107489
Ni 4.5392922074921005 0.14641983826299018 6.990750380832135 -0.15083968049410795 0.5575390925391559 -0.06614548547882157
Ni 0.22673482059327152 8.663074756272371 13.141992576847622 -1.6785313291090578 -1.1769011319223797 -1.7340666431722005
Ni 5.884884064911076 1.4930625579685448 5.627148346363154 -0.6324818645946333 1.2097958257678714 -0.3956189858611703
Ni 2.648882133047783 1.2688079934118708 5.143804191601004 0.37873146607721225 -0.42059211086674014 1.3146284434042457
Ni 7.640726664603347 5.223549995234435 1.5895632141150773 -0.1974049298481568 1.0402698817181697 0.5168315875174647
P 6.452727310126146 6.747226630684042 13.668095129959225 0.13745606009835037 0.24754889769239946 -0.7624740122157707
Ni 7.667012036784741 3.288296375887803 5.629548475301652 -1.0900824343649227 -1.1321857912928759 1.3288085915593697
P 7.172775201686593 3.0225322905106875 0.936558678636352 0.7920069886778811 -0.6963994891842007 0.3150601531704961
Ni 5.600764427061109 2.064626647739075 13.012047606754946 -0.3630845035685747 1.1033871218936289 0.09645416376469194
P 9.167608383976964 8.987119793003325 3.229526372935214 -0.2721877792870022 -0.14908078882147227 0.530852327276589
P 3.022799380837688 2.9631829778488448 12.95452924433475 -0.533697252924552 2.0937997137700393 4.036743034875422
P 4.784646907881841 3.1889664042773167 9.73261862972357 -0.6245374129365759 -1.6906000873481337 0.25480095126912244
Ni 3.3045796758235784 6.972604816616374 0.5113646930679225 -0.9767726324954726 -1.7357517441841073 1.2036665729416818
