# total energy = -340891.42746526416 ev
CRYSTAL
PRIMVEC
9.09033950929894 0.00000000000000 0.00000000000000

0.00000000000000 9.09033950929894 0.00000000000000

0.00000000000000 0.00000000000000 13.30463073745727

PRIMCOORD
 96 1
Ni 6.383690870162493 2.0554711923071016 11.413722932038104 -0.20097027860191197 -0.5033793186673008 0.1997430910630302
Ni 4.659098943050186 0.2358770367647752 5.91172680979193 0.03684262274964622 -0.6112463522546246 0.4757597571778194
Ni 2.9326798577108897 1.4710532698539203 4.779422311984068 -0.9898366647682825 1.0625083814013958 0.40004642550490455
Ni 3.6942775861453274 4.245243059467575 4.710651167035629 -0.3236252691316878 -0.06986947129762805 0.681212239920801
Ni 5.034948117443547 4.645327078801988 2.631096938456088 0.11947376458831681 0.7656308126771976 -0.09242395955937631
Ni 7.356784435955706 6.303132282065119 2.6237928507178525 -0.3874621610819908 -0.41927364916563276 -0.7577100151682241
Ni 5.247643879608107 4.351290959348409 11.905449390346341 0.7685968372840569 1.0199085444529983 -0.6708203551635157
Ni 5.629547220067012 7.890078289410961 12.58064616952676 -1.407356564467602 0.32596394456719346 -0.411522030244672
Ni 1.9011990417089846 6.3901177401449845 0.41693750865200835 0.2488781580267843 0.9007692803859648 0.7547491327676873
Ni 2.7178387754390205 1.6824036617816922 0.32162620868110525 0.1603620181622464 -0.9725873907695315 0.17907990628672385
Ni 0.4338400858025675 0.16214438455121163 4.670284605728342 0.9096120754885754 -1.0268322681560254 1.5352602049908268
Ni 8.704218179795614 2.1260940393990095 1.533345729885071 0.9407522485368056 1.8067537864242817 -1.1076482111628279
Ni 6.817027351160209 0.5963962627303094 4.8224896131383135 1.1672371264700543 0.08454738502477696 0.20735098531727514
Ni 0.8310988276397268 7.575743441992878 2.7724326270003377 -0.04764382713020827 -0.4804584482050693 -0.43114520379223814
Ni 7.203739481181685 4.181419786275107 3.8060687624829344 1.9959859506536595 -1.1829398819172918 -0.5928503662459402
Ni 7.84002688046669 3.6206458366995227 12.681668020732461 -0.29606098636017397 0.33425935180676625 -0.3213688689973433
Ni 7.976572869161187 8.973392220886938 7.298241740942629 0.07337697023025426 -0.7283061080848102 -0.7882032986610747
Ni 6.96771790801985 0.9815748524886379 0.5458330676756923 -0.8871054097456269 -1.306903306845846 -1.95239135389216
Ni 2.0759971787575493 6.3441206225899505 9.178917523302998 0.15516890399708116 1.303016313086614 1.4153390684524465
Ni 8.795230658246403 4.68473370026465 1.3519898219661106 1.4749878904633307 0.5232256639692666 0.5433712856792062
Ni 6.408543858185311 1.8750734061648808 7.223137356507908 0.021744847876259323 -0.7015784622819788 -0.9781957380952443
Ni 3.277694600731391 4.321929162964465 0.6159168576389416 1.274170078278883 0.21164318493472584 -0.9392180712804664
Ni 6.104944701643215 5.85496036710499 4.87196923973195 -1.7153289575533812 1.0135687182778996 0.35816392633850574
Ni 5.506654921208021 2.8668839808604294 9.06484376273257 -0.5158275717329825 -0.2655921283473555 1.0438195467426412
P 0.3338827133450285 5.574250685267158 12.57414021359116 -1.2106468609142569 -0.7353151924127916 -0.4219080014646863
P 4.1401860065854565 6.089282046791965 12.68675042951211 0.010148658398227681 0.3011114042998879 0.22532196797339904
P 2.350134545181886 8.477159681319405 1.447304758072789 0.23764115166038433 0.16876129796953515 -0.8949683574334716
P 6.456768108902593 7.800538445949088 6.020584533592973 0.11493499617769884 0.009049254686461835 -1.019857893720721
P 4.511717269745885 1.0466707732023917 12.447666320993696 0.6233901867060103 -0.7581126499232814 0.4666505957876995
P 4.018375458119558 6.158714059417528 8.327381794539313 0.6598931667280505 0.11315322168692771 -1.4226101481925628
P 4.768410274789172 1.0374258979941962 3.7217313202812874 0.3435757441116857 0.6440371735324005 -0.057625106712636244
P 0.2532732193468043 5.7516941110921085 3.7614188332325758 -1.1220047369948158 -1.6474502914335367 -1.0060425851041837
Ni 1.465708150264521 1.0039461778449494 2.582255453690981 0.4916075228433533 0.9507723517769688 -0.18719353653279375
Ni 1.8781004891976527 6.146932979506198 4.987706532419485 1.5401422156734765 0.863353815851984 -0.5857525788588944
Ni 6.0650017501537254 5.469557245962549 9.237578392728764 -0.20034987140909366 0.019159603647586357 0.7053780385337272
Ni 8.756551263938762 2.6238992076892744 10.256579990750522 0.27557109393693835 -0.9312851895866349 0.5222015935801265
Ni 2.431711251296287 5.163567330148323 7.114531435109291 0.12063924565132772 0.0058166066817770794 -1.093310454383917
Ni 0.4279022760818268 0.2978967866127931 9.398311047565294 0.5073473021761133 -0.04406947951538862 -0.5068942737990948
Ni 1.6495511750536507 1.2393677886038932 11.440838505546978 -0.9746954382514698 0.6821990293141025 -0.6619595623387761
Ni 3.9858865849690264 7.036022718555131 1.604764890711726 0.7693288303540751 -0.5087392974276335 -0.2401235517626058
Ni 5.737731349715719 7.7701767122269905 8.062566571208391 -1.283751294209415 0.9670574620902377 1.0320055848268486
Ni 5.718041674493545 2.7662630136239343 5.118517425962704 -1.490650279590936 -0.4430021031308241 -0.9535332023515579
Ni 0.37732817261988444 7.23435574440804 6.5733126237322015 0.5833845928473501 0.4569531659942776 0.48478201528108766
Ni 5.007613466754222 4.680597595820473 7.047595629693335 0.10141613575565761 -0.7549573921237515 -0.38818618373220887
Ni 8.30057983774104 7.238019151201455 9.39171237016743 -0.11795449973031298 0.0659505958591961 -0.892018016555896
Ni 4.482773628976078 0.11219751451047427 10.30013907926835 0.19640348516683595 0.6733989145239693 0.2189525741119455
Ni 8.042168758544017 7.331631466731442 4.490273159012225 0.011694148508476634 1.0968459783410014 1.5288658714287091
Ni 7.107827309773947 6.03236743157219 7.260789542459084 1.7803745250998049 0.5140581385373857 -1.032674328759099
Ni 2.3767146976978775 5.180557174557485 2.6005097643159343 -1.195153136154032 0.015599397100153782 0.4643548577749874
Ni 2.433365693073958 5.380026492840114 11.526506773442312 0.5197940125798983 0.125430496392384 -0.7526485414849167
Ni 1.2306228820647742 3.214062224667116 3.9223514755367352 -0.6622966339632207 0.35879024706859497 -0.51232315812415
Ni 3.716367110979069 2.695712889247528 2.534944782087192 -0.6034294273133672 -0.5463653353105234 0.34121290030646395
Ni 1.1771444151524695 3.586484341092445 8.299361732256381 -0.8160275199621947 -0.5887743964043537 0.12821705799858563
Ni 3.81218837899243 2.417866664332588 7.023488049504413 0.5234904875948792 1.045419030019277 -0.38455372918594416
Ni 3.983023128046134 6.927402252613413 6.100293174952916 0.3343984484877918 0.19443144904212964 0.0014621863678232882
Ni 0.603560359241203 7.390845937828969 11.394298694727512 0.26498714777350496 0.028310416908918987 -0.26901169555186577
P 0.3323709898965301 5.691852406573376 8.185687037587272 -1.378585920092813 -0.17004736377081037 -1.7011704066648121
P 8.602170029267391 1.846129765395073 7.922029014466777 0.5035955484431649 -0.04988994285190763 0.7860610555070914
P 1.9604498741642629 3.2992023438411167 10.404367093193747 -1.186965201026601 0.3473282691755825 -0.12157846963614545
P 3.9130093336965555 6.265443734756193 3.7798585867820593 0.5746577544973135 0.12091383946895307 0.7326924100779639
P 7.026714210970871 3.9688240178443626 10.415263683077782 -0.25126645575330275 0.23517314973586595 0.9229293614227719
P 6.415752497359449 7.933593744299488 10.273143498240053 -0.06832963761433393 -0.8119520643412405 0.6235609079559196
P 2.2413322724514124 8.499185573777082 5.854915824441744 -0.46189816870437866 0.033762184052109595 -1.2104419439923024
P 6.7933470169248595 3.9294173963817007 1.5684962544229764 0.02682174817853445 -0.6888227052782072 -0.22857287081052893
Ni 5.182647952628169 2.756372724315658 0.432531076923531 0.46636160379237107 0.12125322508624278 0.2544366259511682
Ni 1.5535844616092855 1.4834524928470163 7.073526731973471 -1.1592199125925324 -0.7187899410642589 -0.9108225508569088
Ni 7.090064786512576 0.7812846765547806 9.358304463699739 -0.7765459169278046 -0.20158014427176896 0.72914557326697
Ni 2.8136145917551927 1.6786948032910889 9.146162303206939 0.06824684809254053 -0.5120459932033633 0.3086030846912427
Ni 6.574097120025679 1.9065896129955726 2.604487696853895 -1.3677443493926187 1.146623821095077 1.2616999708363303
Ni 4.434603920295421 6.778238872779314 10.3128446467005 -0.46039227358281354 0.32683452009760483 1.616494466481971
Ni 8.334504984522736 7.117526701954031 0.5186220456027205 -0.5510087476198059 -0.39319649246260674 -0.15030257704371533
Ni 7.625167617515944 3.8104793951781324 8.209661898820404 1.0090487189203592 0.05716667901897897 -0.11104748819783457
Ni 2.585683420692958 8.411954676532398 12.328522878118834 2.4516383955586423 -0.4772258002003846 0.523146473991899
Ni 0.2841340127040341 4.999032186324983 10.234467740068185 -0.29660220357562467 -0.45981223270962746 0.7970664054786595
Ni 8.316497022096547 2.493425565739196 5.675197086655524 0.6457253598681009 -0.5871718278039242 0.21585850856765404
Ni 3.8115429648923493 2.696449206741986 11.258817184781174 0.14986368973408384 -0.42753846027758624 0.2629716600053729
Ni 1.389249305253575 3.5129253143621426 12.575869196152222 -1.4836633067501415 -0.22804193800772338 -0.030782532598495376
Ni 2.64758863226406 8.59032531698 7.907288120034516 0.947151210084614 -0.7852182478908218 0.9657672825239045
Ni 5.581113891542661 8.053531682841209 3.602467884925847 -0.5217637347117595 -0.9472355422683042 -0.4493316448932778
Ni 3.026492160708507 8.515902708003109 3.6123672645735607 0.5984746544112532 -1.2859362176758757 0.46310633007986696
Ni 3.596238275309154 4.1804834813130185 9.217461471553015 -0.2791978920562482 0.3997870011959308 0.20649120842014118
Ni 7.435579498202155 6.082955170543288 11.418259920451485 -0.4169290601928562 -0.25033957306365917 0.4476303459314549
Ni 0.5815062867312689 -0.21822723371243272 0.1790496888036021 -0.0007425345929793663 1.8227625031477124 0.39276197602834934
Ni 4.632473338837005 0.51080617175414 1.539718057830936 -0.05821311800562233 -1.0953660513613652 -0.21769813287955408
Ni 6.33768466226802 5.736131449974674 0.4022720640370804 -1.059991271406497 -0.5888844396196568 -0.0821374900317037
Ni 7.6853365742544355 8.839727869794208 11.830490451342625 0.762890530927899 -0.17232638961297417 -0.9363880580308389
Ni -0.022948561910609056 4.83774229368092 5.957387584787766 0.6351866651203061 -0.11863609917836987 -0.10155137578194125
Ni 8.056695120965546 9.069340753652426 2.4397898359546186 -0.449726052118219 -1.994144012348914 -0.04619526760913979
P 8.565335973865615 1.6745859698652241 3.64097183568234 -0.5622097585419479 1.2465052653737627 0.4948370855242445
P 1.6230164742348479 3.1739829180860606 1.5297668632484271 0.25909957864447636 0.1788780746885629 1.0647904925673533
P 4.673343504949146 0.7360520565464622 8.09529542932008 0.23970137662352264 0.8685276467434397 0.8297664668148419
P 8.69642775889746 1.5674654099307352 12.447107265118273 0.07797513112389796 0.36891370865584205 -0.262563883043993
P 6.166695377443875 7.709507786819423 1.3963743133048865 1.2196794034301703 1.1970112724086932 0.45569101145240226
P 2.0089831964224296 3.315683129241764 5.94885993736121 -0.11544484593458183 0.3491452677796632 0.2554342139777472
P 6.96743610749728 4.18852843171543 6.0641708931291145 -0.4696395032126944 0.3555393442314651 0.32814269738606716
P 2.2855658641555214 8.38684715900532 10.165242987181806 -0.16921278368465698 0.36365888801480595 0.0348908983399141
