# total energy = -340895.0180385223 ev
CRYSTAL
PRIMVEC
9.04163031705552 0.00000000000000 0.00000000000000

0.00000000000000 9.04163031705552 0.00000000000000

0.00000000000000 0.00000000000000 13.23333991101516

PRIMCOORD
 96 1
Ni 6.05441124873038 1.9380191971474126 11.210676676075327 0.8336642592073514 0.4509128733374686 0.904048979578501
Ni 4.785563107366568 0.42386077678514034 6.031623627977896 -0.38522890087609785 -1.1997476975032497 -0.34006233164178856
Ni 2.832670428436099 1.675793836252453 4.54861633636162 -0.17691915118997917 -0.7489767490602843 1.6845952759149503
Ni 3.4639932199377084 4.1631101551532135 4.748386636213136 -0.7122323424513991 1.032222843043977 0.3998649056217178
Ni 4.938203909470861 4.514784364242568 2.6750666754803043 1.081425530020873 0.5230135479584606 -0.41932995632486486
Ni 7.114750354593239 6.0864909529044136 2.670448210741833 0.4819671715401119 -1.0837397799763464 -0.9494652029297713
Ni 4.914225506012706 4.6613672740704795 11.207288777215684 -0.08502201066835036 -0.7561858652142138 0.9426972880783183
Ni 5.659689837957663 7.751018917848849 12.436441449234723 -0.48395000629809554 0.694584547462649 0.6926860448883554
Ni 1.907377112185237 6.365606079131137 0.4865744284541125 -0.015186477932451264 -0.2733764002784647 -0.8359430279391991
Ni 2.623284354799609 1.5914263842660081 0.3833714523032522 -0.21575592155151874 -0.6387651265001838 0.6209296409806596
Ni 0.6820942579188725 8.943600907942095 4.486102504721466 0.22725569466100218 -0.21089756501795295 0.8610799322161429
Ni 8.471040102233003 2.346275928424225 1.4660424807533274 0.4249311045617263 0.6047193497693844 0.14006135893168137
Ni 7.038086371591088 0.6856557560795692 4.774086566073416 -1.4749431532683244 -0.6011092638206228 0.4199822451968831
Ni 0.7512961834647574 7.27588124751473 2.377872809542201 -1.9276807385193573 -0.9732376227590206 1.6754488335289919
Ni 7.613667512519723 3.8933350329884346 3.805286733321818 0.36348431011015464 -0.5344361879731053 -0.2288657194605994
Ni 7.572546178082433 3.958543270447039 12.710993264667579 0.8961662343963147 -1.0764900403924684 -0.10246128919072031
Ni 8.097439939755251 8.872587943854478 6.898659007953518 -0.37815451052781973 0.10257287506792012 -0.005287473651184443
Ni 6.777289588277723 0.9477527258247906 0.2658908378036839 0.02492684514866675 -0.730093024781904 0.48958972108237625
Ni 1.8072862651709896 6.820391039742666 9.185380430322752 0.439750686073062 -1.6871512095675847 -0.23630469223714792
Ni 0.08183489134970663 4.903872839361277 1.4597567393943114 -0.1942347596502913 -0.39701329510553557 0.4935811016299564
Ni 6.4686716225019945 1.9834081810689592 6.960458550802875 0.633168863359329 0.06477123083911426 0.21943748416816403
Ni 3.3613978413405388 4.21752268607749 0.5323214609340842 0.7692720089742106 -0.46809992663971645 0.11972110471243251
Ni 5.854256679592675 5.6000602863714875 4.851329213412416 0.21092610426304317 0.046580161752384296 0.37423897752349744
Ni 5.334941603792285 2.8601750676969244 9.019063258282259 -0.17804426593335787 -0.21851188703010108 1.1470670792800823
P 0.3014759820307818 5.7039938262476175 12.40615017952676 -0.08704161220154041 -0.9393301713782983 -0.008578228587314258
P 3.9595288081457336 5.934247982531704 12.730552119253055 0.5484623270488683 1.5598281241381782 -1.052458710474878
P 2.1909045539804284 8.35163633297644 1.4553362863586057 1.6141866442844008 1.3408076729027747 -1.562902649298444
P 6.442396644956972 7.721054955156418 5.9147334319345175 -1.218681044072643 0.22327408430543486 0.3125389294105391
P 4.508174932520127 0.9136205715809981 12.835492896740513 1.3907634359956114 -0.3148398096295739 -1.1770978213142178
P 3.892910076366061 6.301916835556758 8.25383211425577 0.10446392144304589 -1.487665228820683 -0.11645657502854782
P 4.974903886709418 0.9476984760432112 3.7806193576376024 -1.3276662504248105 -0.14376734702835886 0.906859966664735
P 0.18630007908531748 5.465764952071341 3.6976994706563047 0.4358240973251462 0.9817394895824447 -0.46151687410556
Ni 1.4276824601984361 1.169534874552205 2.4875107139514205 -0.16290046831338395 0.06260893308047281 0.13505233575286416
Ni 1.936382662069763 6.59130325376254 4.6697678527480715 0.22571406120549511 -0.03696192193632989 -0.1493983200618911
Ni 5.929266044256649 5.604129019989952 9.289288653634149 0.36704683065043237 0.27305629793488456 0.17326278538431453
Ni 8.508119827942616 2.3544314789216823 10.317982053575609 0.5319278197289549 0.43165968153481143 -0.06978308223140885
Ni 2.2930297678039087 5.399055803989036 6.806647761742517 0.43948457689586895 -0.8407250227088746 1.0238654722182174
Ni 0.6005486987375901 8.962434623780458 8.975843361460868 0.12165714539288082 0.6779240560878325 0.35411803840390627
Ni 1.3884598681164302 1.110945110446304 11.562511826183366 -0.02132987182602778 0.2335034753429269 -0.5793754716879571
Ni 4.030776854620194 6.86965888304715 1.5897473535261213 0.5700403103299602 0.4041596763423298 0.10640664699171352
Ni 5.690187256835626 7.67766417152305 8.091380239152818 -0.05640306138007706 1.0621052324257063 -0.03770471363962539
Ni 5.242047894467589 2.789568976971156 4.880641274562866 1.0273660291723081 0.004507143841734173 0.3494710265501981
Ni 0.8386609358834716 7.397852839766057 6.759391681171607 0.04952921707837921 0.16980156630859145 0.11781566015960356
Ni 5.133973287930886 4.451221703491876 7.27910458870358 -0.2857212949970628 0.7072132919702531 -1.3877927834030614
Ni 8.227223500554034 7.111386868135307 9.194206869785743 -0.5494038650265313 -0.21380419714178664 -0.25991796078071366
Ni 4.6651466755205195 0.25438445913066393 10.470470052128451 -0.4177209599665322 0.15063193535867606 -0.2833949608567313
Ni 7.9283795370928845 7.19052825782959 4.522785302862523 1.5740206135884764 0.10723737042312499 0.7780888359348922
Ni 7.2960440830017905 6.031526882534079 7.028094465987164 0.05410166694041005 0.017436193198576422 -0.18389069741180586
Ni 2.3821350340482996 5.155456201436384 2.714886015159685 -0.7419319263983609 -0.03857683183193356 -0.3187237180650124
Ni 2.363210901907304 5.214950128568611 11.319494504619668 -0.041228410522167705 0.7066772169611248 -0.08842409437136385
Ni 1.007517901864915 3.298296303733273 3.8812463733264604 0.3908285064510624 0.4273823943156962 0.00987406458060235
Ni 3.7610107740856784 2.604812304171776 2.5867471269057902 -0.2664087107113799 -1.0017442148391458 -0.565605414487058
Ni 1.1720303645048635 3.489671449885356 8.227775944163117 -0.8856103132573393 0.11028284211766815 -0.048428784925348856
Ni 3.7859204654609493 2.3984913431945305 6.954067022369779 -0.06427449370835382 0.6208373383771695 0.335100616761139
Ni 4.093372060932717 6.943302961541372 6.06726121366052 0.6191617504469594 0.224246218410717 -0.38979929385559964
Ni 0.6895626445163221 7.469751883619471 11.248722952060081 -0.2121692326415249 0.1933482432802799 0.5574894702481431
P 0.3090881305494173 5.582917355392353 7.994326475743998 -0.4864789433675364 -0.055022121872150394 0.08352845684195936
P 8.475533792473842 1.6470143271245077 8.1293071656181 1.105976994107992 1.0800476758367399 -1.145992358158665
P 1.7223853569990126 3.2623106152855126 10.41874107706631 0.3358488077810732 -0.3408673440415871 -0.013613477018376556
P 4.027494742834631 6.17388735102905 3.7456707441810377 -0.2889338883970895 0.5910670490932725 0.8065774302928883
P 6.864342404452355 3.835685598429912 10.519340967864379 -0.3759212503219268 1.2761968789009246 -0.48640181027269785
P 6.528952171467125 7.728993506527557 10.452498907817205 -0.8532038719021758 0.06143779559050709 -1.116814193932812
P 2.5282749039933115 8.556429258439195 5.674495507513745 -0.27762077737711544 0.6880220637537828 0.7883287684953455
P 6.870092881299786 3.954031496945674 1.6462801467471315 -0.34870792313192844 1.0605078060315996 -0.8462210128264394
Ni 5.317644965098676 2.882869559657698 0.16484790712271555 -0.003150629813839735 0.7259844019301691 0.6302226362468114
Ni 1.4958744356439153 1.3174016958774988 7.10142027909612 0.110568491678887 -0.9789498426524494 -0.7131363423229072
Ni 7.113972774390598 0.5713415204981931 9.297916177231345 -1.7203665199772886 -0.8167350875521805 0.01549912407686363
Ni 2.7505181758641517 1.5751876163131997 9.215380559536237 0.11326275068159848 -0.021850520216188173 0.3189103801545217
Ni 6.2710125433169495 2.1405245901535643 2.6615422049325255 1.091226575271695 -0.09779782227677995 -0.810435627696714
Ni 4.190298337354825 7.028791575680461 10.400518575433745 -0.23772831205755185 -1.189752276853435 -0.2816306698674569
Ni 8.019582461558352 7.017525704372444 0.3497827000382813 0.4281701803243142 0.5399712588587217 0.19470552863912274
Ni 7.385538139347503 3.9478018136942903 8.299831408220086 1.6083137304433914 -0.6774535442093171 -0.09831024313682424
Ni 3.0843080402927856 8.091924545294665 12.322912931323222 -0.03107640968983035 0.6955978192185117 1.0757984136420826
Ni 0.03236270720127334 4.8730589634241 10.204533102010425 0.7029061799544669 -0.5530214071744606 -0.40256430683075184
Ni 8.683536496680054 2.151492087662894 5.7465120925605815 0.3095667341560927 1.184441920384115 0.6451625453860954
Ni 3.5040024338526177 2.3520625717927093 11.486922893019516 0.533749703429042 1.367111600904626 -0.32542169891047823
Ni 1.2201137542448608 3.7095548562574865 12.791214225015295 -0.9604240159341202 -1.276419536434692 -0.25884658209340583
Ni 3.1543625915724953 8.430036308989136 8.025107801812227 0.4422102033571481 0.6771966910035048 -0.5862174343104549
Ni 5.7224297103543975 7.872972426839651 3.5678933057818654 -1.0643732025242767 -0.06465527408654027 1.0098884412128348
Ni 3.148666364506644 8.578481794651278 3.399221693220819 0.17283058294290235 -0.8246833958649797 0.761714765452243
Ni 3.3880525673566186 4.231582421136854 9.194974504195093 -0.036460299709563014 0.7343173472758966 -0.24336519862835507
Ni 7.391596031623884 6.013452663637829 11.440963382228357 -1.0149404018144457 0.020941378138357482 -0.1844455414740114
Ni 0.29702026663704906 8.955156111418535 13.702329360850344 0.7228743955462776 0.989697825197573 -0.3997744027904405
Ni 4.80766989336023 0.25558247514054533 1.723642143605605 -0.4900918575297753 0.26344217188388824 -1.166512589599204
Ni 6.0090313064390966 5.6525198251589 0.4306926326120568 -0.969882847354175 -0.7815212586552088 0.11817638593313196
Ni 7.937285542902193 9.084849255914685 11.592008336591187 0.063992957912193 -0.28879607726764456 -0.2560924163870364
Ni 0.05360511334176774 4.884008377672903 5.834884082590622 0.1536100441503935 -0.7227607527865488 -0.17610231171563864
Ni 8.000486538442354 8.898709213685027 2.616946171985066 -0.5956109597102129 -0.3968574862539617 -1.033835953167368
P 8.55780358623921 1.6237773373479392 3.6461558490145594 0.377077475413557 0.6893058155622128 -0.6513810154919815
P 1.8509844642333073 3.2432508586905686 1.7413754930409298 -0.9583115975768077 -0.4399987975281261 -0.28900947883003125
P 4.9411243560458935 0.8860978490596458 8.318755540361082 -0.3015104395105195 -0.11276704199210257 -0.4612538502521605
P 8.697587190109154 1.9412561007816584 12.519506906463256 -0.9180440083060124 -0.9076706354914883 0.9402542258544646
P 6.325840989233335 7.762339038938446 1.4743002016727593 0.21739679958905142 -0.11603105745535502 -0.8045161768884853
P 1.9288871505815237 3.2311983655496475 6.052188816011672 -0.37952233740962377 0.13014512825923394 -0.3203707667501321
P 6.991666641819531 3.9185973479439724 5.869872479220345 -0.8951925576291357 0.19558793124407606 1.5164039915162724
P 2.3437985217320927 8.631836454834753 10.296424998701951 0.8322972036564956 0.09819068683982445 -0.3189098659338895
