# total energy = -340865.35661321937 ev
CRYSTAL
PRIMVEC
9.32649535152518 0.00000000000000 0.00000000000000

0.00000000000000 9.32649535152518 0.00000000000000

0.00000000000000 0.00000000000000 13.65026868355475

PRIMCOORD
 96 1
Ni 1.4046168322659038 3.0059201249790415 8.782637561851304 -0.8519054648057264 0.4339947574258913 -0.02281134146756071
Ni 1.2090961837374858 3.535562469440038 1.5584788240121294 -0.6548216657424142 -0.7995374927269714 0.50870433042464
Ni 6.25366694790186 3.6972559193321004 2.0814611181433156 0.8818482751117458 -1.412808845831425 -0.39684771606194874
Ni 0.4576483289016847 4.772535547780245 4.710065749272889 -0.517048074403645 -0.8988252692857166 1.0396055086612934
Ni 8.819908102571075 2.047604074721838 10.035514180063227 0.6987443352672934 2.650635352484267 1.3177348502437112
Ni 4.349327168259446 3.859928651235967 11.914213558687978 2.472806030775193 2.510515886621141 -0.1577721459478831
Ni 1.016849135077102 4.736404704792308 13.191701865480402 0.4935294224564145 0.30749931010410264 0.03479448197136588
Ni 8.45497166600036 6.246886585782028 3.1141727565125916 -0.8519342611611328 -0.056344697338315874 0.6841777503070282
Ni 2.5602255651681256 7.792492048261828 8.067077128474791 0.11961491815187142 -1.4075568534038663 -0.24202128300595094
Ni 7.450461484272004 0.1711066816493473 7.332009397423118 -0.35607696190249 -1.6415586085394502 -3.0736113902021516
Ni 7.7148209949826505 7.902554019893381 1.434452290892235 0.8395765109267282 -1.4672740667588409 0.06039289926576051
Ni 4.8805923229114345 4.487769665242648 5.807657152548097 0.08924607605202693 -0.05321643612197932 -0.5681279237985958
Ni 2.2552491672059394 5.365831223008578 2.8075054649433553 -0.7706508915996083 1.484726200797017 -0.8511577880064244
Ni 8.180744723208857 9.409221364284734 9.567514373971994 -0.9702458871205485 -2.6096727940289766 1.1908977033117878
Ni 4.252909859325713 6.331160797769377 12.620123867325301 0.8446963486517969 0.964090923262746 -0.7144854001516341
Ni 4.221768691350308 6.5747128973530025 3.7087918614311652 1.5271566020470861 -1.0160431479603211 -0.45176133738069296
Ni 4.103536709791695 5.805267704439292 7.653733383086243 -0.42765338858889573 0.8356085274179158 -2.7123276872877415
Ni 6.747448917740086 5.465456846342893 11.49979167043691 -0.6513329358628653 1.01782440823046 1.0064231083720538
Ni 1.2548519699271643 1.9232818916993322 6.161376613160735 0.7729080630649011 1.3153105570729349 -0.9188659899866756
Ni 3.7986255972969625 4.0156344911129915 9.35503442629818 0.7532499225143415 -1.5105333916681083 -0.4217984724700155
Ni 5.915339002566195 1.7813139794736317 11.627107658466933 2.06173034403932 0.33137251717727445 -1.464891168348961
Ni 3.5481625646585986 0.43480587648917746 2.1550359746645418 -0.7672958590844464 0.5437314972321023 -1.3336944588967612
Ni 0.9840105449479016 8.515276784936859 2.6934843960355046 1.1799378618661744 -2.098570395685805 -0.7466447584929979
Ni 5.2347939633336935 5.967959089333861 1.3439358555667793 1.0685260483503856 -0.03493460709365596 -0.21053632502379224
P 0.534011807532718 7.997115356252358 11.231550472361372 -0.7796690359378184 -1.0478464085138468 0.7214865140598156
P 0.16038774054298827 0.9640611713931274 2.190226706921145 -1.1487884328465634 2.2133819789117624 -0.03894372825304906
P 4.591135213212523 4.281001263321496 3.1115380215760684 -1.237019951591147 2.763598569647576 1.7541662421355528
P 3.4331202445098654 6.054882026000759 9.544690574550188 0.4554472708727124 1.0724374675896498 0.19993258136601696
P 6.2676287114415965 4.224165600655393 13.442456817423237 -0.6301889547953985 -0.3978288490282955 -1.2595921804647081
P 6.165419648895187 8.218946048164609 8.894160062654748 0.6369468423445224 -0.7624899530553707 0.36784567240264393
P 5.393064589432114 1.406817885168628 1.6689502287895697 -0.2604830892555643 0.41925565144350374 -0.14420623433799035
P 3.3973531348406 7.745281328797467 6.143125594409291 0.1114030717650404 -1.1381178405065948 -1.8362777640253276
Ni 6.710329466244994 6.804321886387592 7.190620660558685 0.09378175913885138 -0.07568710642066966 1.3480592122588655
Ni 2.682449286736763 2.566091930743606 11.093067871448163 -0.7229217038444453 -0.6065281208433491 -1.0043824237929413
Ni 8.707719689999603 4.61203588929305 8.683891427028545 0.1633550393522993 -0.12378344770726424 0.2704589695213535
Ni 6.306697400464949 7.722235558786318 5.20774153091996 -0.9848435824290652 1.602668359232156 -1.7089371950944245
Ni 6.087039781969371 1.1665580384437386 8.720474605040982 -0.5162410051213173 1.6329752377458133 1.5636798937841005
Ni 7.8379866925816915 2.5797459199367756 0.4958962863341901 0.339683351035815 -0.38771181519895165 -0.21148789030378415
Ni 3.084756990177034 5.411941416021577 0.6611319391603816 -1.2757232816986157 -0.10886025073852865 0.32610689790296093
Ni 0.9280422463493976 6.292092108746026 9.433441340060515 0.6451913417415017 0.3829326486427534 1.4163479693329348
Ni 1.7315851062646292 7.191623258808867 13.107138532137187 -0.017668363814040536 0.16355584250919575 0.13219224059624976
Ni 4.198993389704325 -0.1950076912841392 9.260151325849609 -1.3353587339730615 1.3885918822655892 1.856531114957725
Ni 8.428838826028187 3.98472648552135 12.232524047052811 -0.6858921618949736 -0.5733374930239933 -0.8259946584772355
Ni 8.900628919829874 2.0673296123881992 4.516723770058354 0.5363236348038054 0.4797974175823027 -0.5910199979054208
Ni 2.791336119954149 7.613982927252769 10.722163410502649 1.1194243778621495 0.45862464015942955 1.8568432468815055
Ni 5.474205098981686 7.537869398697128 10.87271169845083 0.21484652236337193 0.1091744395448378 0.05136472762522121
Ni 6.765532992224756 3.1068794371484807 4.63366589730999 0.06555927395804839 0.4805425232784434 -0.09241830313242148
Ni 3.863864432273889 8.841955937579717 4.099530980038645 0.503691707701397 -0.5730634134270001 2.57444071029956
Ni 5.145865830166433 2.170601895404569 6.647489405872223 -0.0045284839979728465 -1.5981059366724542 -0.9709282578995537
Ni 3.6461653778019207 3.0720636300049686 1.688224364080966 0.23614785494430945 -1.5321741098663355 0.46726971742893714
Ni 0.8267434497491992 2.0914292763739577 12.549046646258947 -2.7850379704682746 3.5928127635033738 -0.285469841107889
Ni 2.4843825049776513 5.937069736732919 5.026943687951881 1.1611574959348778 0.6569559384765976 2.4365637606137067
Ni 7.9472092796316955 6.983455882585136 9.765389029926887 -0.44428045562261553 -0.24200148551160902 0.07116813550439356
Ni 7.621490756009941 5.332973979888677 0.9588784379268402 1.24781112866938 -0.21085745580863685 0.7218544389221955
Ni 7.695888209421083 4.626006979328137 6.461818469083496 -0.869852021981818 -0.653969602154764 0.45365366930739937
Ni 0.06695770807002824 1.076827826676332 7.883426310578987 1.477517341753404 0.1442126620958936 -0.06738784252635491
P 0.3008419625732982 6.4570778114968235 1.3225921709571016 0.4922590403844232 0.36076562562741094 -1.5664204326437152
P 3.490356946476041 7.4360986814321945 1.7249166620890035 -0.11636247265284476 0.29691510683035316 0.3593399489244779
P 3.38191778503548 2.740562679265888 5.5866182800911055 -0.630797534913675 -1.1275405792113806 0.5951545888990848
P 6.573257964078321 5.609439281564306 4.835785041298904 0.4258356186538666 0.055855159296407025 -0.16712993301369927
P 8.029123888295363 1.47499456618097 12.019525546237507 0.6882971717920404 -0.5287465937874958 0.9276097976175767
P 5.914471638498596 7.729808673010945 13.348925126150958 -0.25437543369592963 -1.3887816296788922 -0.1775758109373716
P 6.212145390601321 3.2228264273462144 8.05616979216235 0.8375648798133382 2.4764461986309416 0.9966732280741415
P 0.1887151048711396 3.5708446013510766 6.844217835548534 -0.10348561669017663 0.8883937895397472 0.4757975523942903
Ni 2.3895507002535075 3.385415220791927 3.854672238456411 -0.2999186695433673 0.6267925275193399 0.2667121008844116
Ni 1.8092561595438064 0.3150676659314549 12.051398844097928 1.8446541610144813 -2.6378621119789987 -0.9700150020566648
Ni 2.0694467268327688 1.1509361587316083 3.893274602712236 -0.8345278927592273 -0.5865527061626866 0.12364177992307737
Ni 4.338359209727228 1.9540966323374687 13.108039471588048 -0.6909099268245391 -1.9245861587544337 3.553567701959822
Ni 3.647946738413871 8.819786858131518 13.531921224073155 0.7029501458185249 -0.2803440898455495 -0.6375790766118826
Ni 1.4366346908042582 -0.35166856428505744 9.570285275740636 -1.8182232205164623 2.4775072929056043 -0.7840157429422885
Ni 1.8556834533987228 1.1932038356601902 0.636244186317504 1.0184273319217816 0.26454157559565405 1.6241864358095899
Ni 2.910155670719845 0.47619219960713466 6.562380472551002 0.7421265589076703 1.0043932224262186 0.5603693628990994
Ni 5.501578362835479 8.39038568569797 2.1852165136188426 0.04031232646580154 0.09527505585492622 0.29181686637183935
Ni 6.995039389810488 3.72297839350885 10.048959255760545 -0.8566926017817246 -1.2201200905120149 -0.34712643757742156
Ni 4.588700997926035 2.191931590271221 3.8339646208296387 0.7310206788024959 -0.9344427613790101 0.17688161308382438
Ni 4.970434452623047 8.821540239257416 7.128579880837455 1.6068060355496134 -0.3668084893873812 -1.2641759431806487
Ni 2.331194818845269 4.275843711392655 6.72711156197873 0.6328770431505231 -1.2520282520745212 -0.18207935523467997
Ni 6.691918964423057 0.24517864037275647 0.36209558608694503 -0.7108560309291628 2.373502313376848 -0.9399377230553103
Ni 2.442226745993276 5.284616101496202 11.24305750232485 -0.012217368001798314 -0.10231370786926251 0.887191027480898
Ni 8.389583607097824 9.030574979548746 4.218260996448976 -0.6397704278362466 -1.0974005652928907 -0.3614778212030872
Ni 7.768466996238873 8.427495810697712 12.092581849617243 -1.2355292259782333 0.8194725410880015 -1.408120182106504
Ni 7.1865030128614285 1.2161470142224833 2.940363256510662 -0.3236211553666298 0.6715978567594885 -0.9602828623705657
Ni 1.0241984134133162 6.054443680719284 7.192873009185837 -1.4133654896658434 0.9982027773447906 -0.9829947021457845
Ni 0.8685224183214135 8.97508233221312 5.545640457469502 0.2970575459454884 -0.9836842720136414 0.5640285569182416
Ni 8.499673558215429 6.800479370303176 5.512920313831253 0.058466371667008986 0.3722916239891395 0.8345646595344336
Ni 8.672092477760597 6.543935462696268 12.893852775265087 0.7777337665883186 -0.2333301829898562 -0.4506218244596111
Ni 5.836744626247317 5.713560275657574 9.143073031765857 0.2086877018508277 -0.6352221463439318 1.0862941709670841
Ni -0.1632808194007213 9.373034562324696 0.1093223805502556 0.27312674616150384 0.31494342508697376 0.13891541825269624
P -0.276438254839113 8.04503488936336 7.890005220399248 1.0798892958820048 -0.48580737122180845 -0.2542383938974331
P 0.887252818933874 6.980657933979979 4.202931036041316 -0.2611346067966342 0.6163391933964998 0.7705426481565182
P 3.170280952541354 1.9223958746410321 8.696982095902543 1.216505633687879 -1.4397180115174433 -0.048440097779258506
P 8.811383685820694 4.016604446629446 2.9568664900334176 -0.7066479063850862 -0.9673647089180113 -0.6920841496382983
P 6.640753810930073 0.6796646180714109 5.189640668743659 -0.171130312422344 0.6211240163796529 -0.15263482472131776
P 0.8782648753645725 3.9308473218813633 10.80465159863037 -1.6188537107427667 -0.1126737109473479 -0.29683643107361785
P 4.0205122481813165 0.7912244248562575 11.367711708581835 -0.9431516020069176 -2.08892233107308 -1.1217458269064746
P 2.912869680866848 3.4750055351290756 13.475981837610236 -2.3274235167409145 0.1423028466676904 -1.5760507566446276
