# total energy = -381175.82511028415 ev
CRYSTAL
PRIMVEC
9.18271778044078 0.00000000000000 0.00000000000000

0.00000000000000 9.18271778044078 0.00000000000000

0.00000000000000 0.00000000000000 13.43983567501236

PRIMCOORD
 96 1
Ni 3.018653221694228 4.459504305138552 6.033115450937519 -0.4033690621202343 -3.920247379078823 0.5191188408897447
Ni 6.940417566432167 4.064812724231122 8.308008926446231 0.22415443002785915 -0.5480175262019658 -0.5614134878928977
Ni 4.066309507249313 1.3658833744841021 6.096162155516045 0.9301431055623915 -0.008986005548694201 1.066261420685925
Ni 8.00505269738993 3.597045074251491 10.989391020552377 -0.5979118399292477 0.2603056831374356 -0.4585061123036942
Ni 1.033386341933799 4.445537391208065 11.108723194517442 -1.6360520768989244 0.09569594544242874 -0.17764214539893278
Ni 5.091266114148144 8.692305670687448 7.780710634573139 -0.0930040004325624 0.9179007978599288 1.1888958423904106
Ni 8.8587148845259 8.09192120875246 1.9555231382007698 -1.5592064313937792 0.07870455309075478 -0.4747611407099759
Ni 0.27352194508997385 3.664060549507701 7.503944435248029 -0.3503459729559837 -0.6397966530884918 0.0641420818955476
Ni 6.378591336971945 9.027943192760581 11.30450149502511 0.4211564680106424 -1.1527337906475568 0.6284136080625307
Ni 1.4588124796626234 8.189882443341833 6.559338446544168 0.6676949221606565 0.006834763533646293 -0.09128316108671376
Ni 5.802761462709623 6.806634549303129 0.9803809393822203 -0.8320328942515156 -1.1784070270439446 0.15843189101906907
Ni 1.7637246276322667 8.743425861253536 1.5350712787600094 0.6101050395613299 1.3079839415045345 -0.3340752608204182
Ni 0.7273557389235681 3.8483485151033276 5.18241377205348 0.47691881048292706 -0.26077439524373797 0.2579562090686525
Ni 7.564723008504511 7.810241337077447 13.321820651626016 0.8754022623760859 0.7938170453034264 -1.582292109568649
Ni 3.9284769115250446 0.5237390704138836 3.6364967851782186 0.35212826166738714 -0.40177163572612745 -0.4718984744502002
Ni 1.002192649217254 5.984423170984987 6.938423080103633 -1.4047466376485807 -0.6733780885883629 -0.5498445521083756
Ni 7.443382574134058 0.11369857653156246 6.68856316250615 -0.6199863032307839 0.06492369725657851 0.10133360334418033
Ni 2.990049055426333 2.2734848465823894 2.238901812687841 0.6906913830558299 -0.3623255139153631 -1.4296202609618087
Ni 1.1652501710211076 7.676100193950191 12.863615884070587 -1.4119485547136585 1.3506192596765578 0.15311407835058147
Ni 3.4420224306127762 7.163704534961902 13.345178731155919 2.1279879296159736 0.5588634677775344 -0.5747734541395714
Ni 1.9823559581851726 2.220206717309091 6.728747654321538 0.05374942580731388 0.24729230159690319 1.0324143902294929
Ni 8.419588131685778 7.5481022891000515 5.478601419743468 0.968821753079512 -0.5366784470400628 -0.135505878350515
Ni 8.883609232760978 2.9469545603074794 13.22297052994363 -1.052371292967394 0.8192671099454147 -1.0691533975217393
Ni 4.569072495157338 5.266913142197032 8.433833281968726 0.31646114728308083 0.5157054443328215 -1.0677377481211354
P 5.887196553827855 4.028981758973554 1.9387903896378944 -1.6114844148618892 -0.7953905604381334 -0.04353751827131857
Ni 3.5682113400360214 6.003670147709708 10.748656888006913 0.8273097777442333 0.8833626548737432 -2.229461400972128
P 4.923507040777945 5.50226620205133 5.161340352737849 -0.24061463246641138 -0.036694784317872285 0.5697801146900381
Ni 2.7681486772999535 7.552491628257693 8.678599545945405 0.34026904833595595 -0.2510276002696193 0.166047755693114
P 8.033408930274442 6.171254749439748 1.2645585103268537 -0.7017664099230688 0.4865671322059684 1.130674496854672
P 6.015763787187979 8.87506012239327 4.825223492790176 -0.6696268490760467 -0.4618752858862432 -0.16830878381314884
P 4.830522839292007 3.0814170985613414 11.279664079641032 0.5434533038700512 0.14885761706707268 0.44479004826918234
Ni 2.817983287359621 5.436086354124295 4.010743044674584 -1.7708226197453114 1.6033854399038385 -0.6350455115567515
Ni 5.774432777978818 6.802272758299196 11.89070692224605 -0.4110047242886212 0.4583248495308236 -1.0395533152671192
Ni 7.522638612354989 2.371960313374332 6.0960005396809525 0.5327971097077856 1.1940606744208015 2.1539630135234966
Ni 6.082467050035488 7.122630237781713 6.536276050530744 0.013125995858996748 -1.5721529642521181 -1.3561034227195805
Ni 8.099065363281007 1.2388772031674893 11.361943068595636 0.8621662233017862 0.2224608443755201 0.5285445050790188
Ni 8.071682498494214 1.551585478636793 1.7877805937227975 -0.7293939418323503 -0.24311348762886514 -0.12849370869874
Ni 4.760348509077159 6.860720757751892 3.43734567238477 0.03459393592478559 0.40442270019572935 -0.2703340139077151
Ni 1.6510159480906494 2.4286176828359403 9.107572049328375 -1.0657741966368612 0.1249340163719397 -0.711696267442271
Ni 3.9973381130797607 8.242425955182892 5.595971246892655 0.08930546853505264 -0.25668531277602885 -0.36017838566537325
Ni 3.995152626218843 0.35363105780409443 0.9741761768951523 -1.0575466665207465 -0.08616023803785161 0.31545507461606964
Ni 1.9090870520370087 3.736741761710072 -0.18258824451177813 1.2155952060584678 0.005977814849989705 0.4359107435016816
Ni 2.2759917285699123 1.0648463334695315 12.66294594973598 0.4452435908668332 0.46886637249209573 0.07679730876571289
Ni 3.543316991800945 4.7752796083874625 1.7095475102762632 1.8989468609197748 -0.13150524183155418 -0.4463591925285151
Ni 5.9006859664273845 4.827161964539503 10.27354490024845 -0.2744521498411467 -1.8641737191046475 2.4596095866895773
Ni 0.7508396216887411 1.1290702624832247 3.1818943978561416 1.599349579271568 -0.23911259399958817 -0.4713891389139494
Ni 7.880709514265191 0.19829528348488687 3.8698930078473834 -0.6690172405165058 -0.17536029134329154 0.15061368052623092
Ni 1.3602176375379416 6.711354668341436 10.500610557195277 -0.5693137165765809 -0.9415153519550752 0.268098439708977
Ni 6.591657940475623 2.3774056650908206 13.378012457289941 -0.5768876722690969 -0.3059399360367828 -0.5473544386966702
Ni 1.2506769956728645 0.33527021335701407 10.018739170788402 -0.8363819152488307 0.6679762008465011 1.1861887278718926
Ni 9.505398610127893 1.0423394918892395 5.4783589959908285 -1.1902909229657244 0.5749056088420615 0.4638442366871561
Ni 1.5027793329822634 5.6986753552789375 1.877047631001596 -0.7150788107612588 1.94018272764111 -0.20875095098859534
Ni 9.354618382160373 0.6279197598389701 13.41612808276178 -1.4807456188827142 -1.5953728540120071 -0.2452117649187906
Ni 7.993583482729063 4.99805234471463 6.05979308298936 -0.4862629707019884 0.2922971484423676 0.3834874927049589
Ni 8.031728492898191 4.057962416675472 1.896723440652388 0.44965097590590947 0.4398309044916941 -0.3319538436020412
Ni 9.044701652933586 5.310218839827655 9.091833789114395 -0.6306648659905526 -0.2579307551473558 -0.39835566806604294
P 2.158039717105673 5.8931469550290085 12.349663754397737 0.466155658429152 -2.189863069854216 0.10676120211765484
Ni 7.035495427599995 4.968640099271269 12.737510537380258 -0.5122689078474467 -0.8278682213508645 1.7156254057478775
P 8.073665965561265 6.797966063602681 7.476836133726536 0.26089677975421516 -0.21851060147852042 0.4744806333550796
Ni 4.506942225825532 4.932818316731605 12.454467032096648 0.18881950217199095 -0.5126818270151493 1.3898488946011418
P 4.912469413858521 8.166126752126733 10.004465554079955 -1.0537514611443723 -0.3128402627010418 -0.36911605447463525
P 0.9453057118080702 2.222208549811948 11.325507880500048 0.06724951717627774 0.5854085652559144 -0.29466024935790547
P 5.830364712726089 0.04633783108219891 0.1369730933285466 1.706658426362577 0.17931387667440085 -0.5473960905678831
Ni 0.516380958558197 0.669094148644303 7.792268921597664 -0.7374114128201881 0.5957881087180256 0.605416375836409
Ni 9.433130620231157 5.458381993192817 13.287777561544166 -1.180207056367161 -0.5765886529714392 -0.4365681745800223
Ni 0.1555148373183163 7.787367186781034 9.071607016389422 -0.9682406837650616 -0.7284922559536873 -2.4397002493601594
Ni 7.464815037719697 9.05257124217647 9.157138524025273 -1.1025653973232816 -0.03888099333591368 -0.19761524608675
Ni 4.135400276751605 2.9695991426563166 0.09519356341340478 0.6360279300746788 -1.4021919895475272 0.755892245233195
Ni 2.3405003218386 4.888915742437285 8.501488792662776 -0.9702116914485033 -0.17660521949398617 0.5630682498875011
Ni 3.260094423518225 6.383889765201985 6.688589792388069 1.4868864416731298 2.6422561272816365 0.9123922093368739
Ni 5.6309803588979035 1.7571038880241923 2.192292173155713 -0.6619171391366149 2.3069930168007042 -0.5363586018067988
Ni 4.084114797263261 2.973253864381717 8.617663029940992 0.45031509185246965 -0.45812353215329493 -1.3181961061508458
Ni 6.79263090450103 4.7312943896320165 3.993915714117307 -0.9207416097428337 -0.5111443073247004 -0.06588323295637041
Ni 5.908555555670269 1.763963378297745 9.855646754656517 -0.03744811754412906 0.2721548691665377 0.2507658619678004
Ni 1.07549828623703 7.7547226246358125 3.709864864679735 1.287580438147518 0.9726555250033054 1.069776375817719
Ni 5.334699965757095 3.5594602098744472 6.316185586103048 0.005133721682139545 0.7520057656945952 0.016267626811771983
Ni 7.29026993581917 7.001455092333514 3.463633957197524 -0.19231106026501718 -0.03569925317382239 -0.525773627202101
Ni 3.3632622591586085 0.6480528688413324 8.979543841509155 0.45125791538171317 0.30460861881986895 0.25030460606066574
Ni 8.19181999681937 2.6077541436879743 3.9507073532964556 0.13890719072258012 0.9065545196091741 -0.5501371436481299
Ni 8.154648354747962 6.076369725347885 11.125334731203996 -0.1784949803175313 1.6665584730178977 -0.25744661642208566
Ni 5.900346205864973 1.9339263039646666 4.5420596939020355 -0.09747746282288373 -0.6314058579216352 -0.3994617566460282
Ni 2.6529882120782307 2.423962044859111 4.554155169923889 -1.5602276735694418 -0.15786162033789586 -0.4255746516829961
Ni 5.9190238540797075 8.735565454728555 2.3425232745926334 0.7973296864423752 -0.6400905301798266 0.5764104755223621
Ni 1.2014484449947964 3.6216639409494764 2.8131724614502307 -0.4582263762797463 0.13441573061012982 0.5362339033034764
Ni 8.229955824270595 2.0799498840584256 9.183466294525012 0.7100381630135577 0.727349914819128 -1.414058659078126
Ni 9.320091362845034 5.703165704333512 3.8360923415181722 -0.9770981341556915 -1.16951203854716 0.2887143161871157
Ni 4.269091466701614 3.7390098930321174 3.8697047621303717 2.59688284135316 -0.3275963379642939 -0.7999660956239577
Ni 6.47756267053065 6.478554404064177 9.002674189635062 1.015993268558992 2.4043959176319105 -0.5442421183199336
P 8.906033429880143 8.334455154006916 11.279772435712289 -0.5152179631734417 -0.45245759211676917 0.044871149481077566
Ni 2.7951366852169177 8.320497422794332 11.169700114480628 2.6810160216586536 0.8165656518538518 0.2651308724402208
P 3.1580744276157184 7.297193705118045 1.9339253856928764 1.0406591467367885 -1.2896594321637338 2.4777975704525135
Ni 2.9204348710035695 3.5869440845581737 10.452859505827801 2.048823663279981 0.11635733044652219 1.813190028967929
P 2.16402684917844 0.2633502484688031 4.978236039479921 1.338867261346952 -0.4020770827816882 -0.7543860930013138
P 5.835047898856627 1.7934674509201354 7.668649336643684 0.3296406220878323 -0.12294758206953019 -0.5543103011892132
P 1.0316691736859351 2.1478101693617133 1.1845926480120201 1.0376674110983162 -0.27820287513283054 1.095169876190159
Ni 4.568567445672672 1.0480603251428184 12.003197971373364 -0.5381069519564733 0.04071881787560084 -0.11055974992813863
