# total energy = -340873.39899295993 ev
CRYSTAL
PRIMVEC
9.21924531566584 0.00000000000000 0.00000000000000

0.00000000000000 9.21924531566584 0.00000000000000

0.00000000000000 0.00000000000000 13.49329741507745

PRIMCOORD
 96 1
Ni 7.439525405670388 5.417532842819567 10.801910513341745 0.07498648080921924 0.9460505208212674 1.4987286857236963
Ni -0.06570187439717975 4.56147059026933 2.088371129861694 -1.0924175102560025 -0.12326357064805223 -0.961073476592661
Ni 4.612084247615122 1.1565451184648785 10.92044972707958 -0.5526478258851256 0.8924142235530502 1.2505915196279946
Ni 2.797782845544991 1.2311288138979297 4.202150500095883 0.295025346006808 0.41294076496906945 0.3067318358104588
Ni 8.942889317521663 1.4612964950081353 12.278725764162298 -1.0831437982635606 0.23317951634460485 -1.9277982379338285
Ni 1.3677856887315665 3.129694119090197 5.799810697933358 -0.13004639789784053 -0.024712672255331632 -0.09709154023837473
Ni 1.7087502612774224 6.88748620927537 10.764494205812074 2.481257761086972 -0.3670954245001807 1.2216966909705151
Ni 1.3943739925175886 2.8581043683161225 10.89421820809124 0.22459614555096807 0.1818631254588158 -1.228931775266374
Ni 5.470423653783648 8.153740348216555 1.9754860793388267 -0.12282134090431104 -0.07824124030109106 0.0006664299394053039
Ni 7.935742071058343 3.1460674989528794 3.745914936312936 -0.3622057005080472 1.2994350234932588 -3.4766050712608387
Ni 2.3061942413569603 2.9568978022173065 8.393195497161031 0.04224965269783046 -0.3350242549972488 0.030982821534759543
Ni 1.095301671151929 2.3168148120787007 2.509145788068166 0.07646897889201669 1.4603552281518204 -0.548703496525397
Ni 4.663380129121858 8.643752461438076 4.332724516802608 -0.7006209834647159 -0.9094621801742724 -0.37233636118414587
Ni 2.1178634959544422 0.914958479979719 7.100942164216047 0.2760927707683632 -1.1102152005590558 -1.2966865142138442
Ni 2.9929358325569604 4.859473479166481 12.195916657967148 -0.5400823305152892 0.4186537561934467 0.20425254889760955
Ni 6.872901363023815 4.00585432665206 9.135663739215744 -0.23685490831366307 -1.638309248364217 0.31468194389547094
Ni 8.278329230797798 1.4936837041621907 9.817750533404107 -0.05348228818885628 -0.7825183324611555 -1.6450167422913797
Ni 2.5437465380471256 6.875823863821377 0.9038677277416522 2.188398312383231 -0.9735361278360459 -0.1524921284958664
Ni 7.607177383599935 5.682171282548337 3.6646583510462083 -0.5175592097121087 -0.14364907628293969 -0.43329875980013116
Ni 7.6488022766630035 5.965672298402695 7.898868777083802 1.372746173482584 -0.387620541036726 0.607316163962283
Ni 0.6442731371811679 6.990004218325498 2.1990702972959117 -0.8133440595927605 -1.191786019454012 -0.08976723866281959
Ni 1.0796012962047736 9.200364403560508 2.5645903300130817 -0.5515941878096307 0.46302559744060257 -0.4015212102782182
Ni 2.9324760211045557 1.0578899732449671 1.1429107764159365 -1.1166694408248317 -0.578823712949545 2.0028086300024475
Ni 6.551389398310311 2.566287593094568 11.811546956067973 -0.13018523746854999 -1.0799304335325854 -0.17692480761693402
P 8.409168761772564 3.2248736087874557 10.847356783630648 0.10881962730858033 2.709730873094843 0.9973406864548114
P 4.401608874718142 3.3514815061152796 11.562177430600789 1.1615110226195544 0.7965879231803442 -2.206834921821864
P 9.017887878998533 7.424175362049122 7.4993454014907694 0.11440612025742232 0.747022710657707 0.16658588758477116
P 3.3573726039374945 2.9041268414436616 2.81315040573255 -0.20943666420171028 -0.506553088409592 -1.4042095341981882
P 3.4749640792463414 2.5530303181832297 6.140206443036912 -0.1433881093120692 1.0674634114138262 0.15942896482501576
P 8.645918984111349 7.325050035312884 11.933795994162084 0.12566626655227392 -0.18202356229608008 -0.6392441230191314
P 2.029856579192525 5.216156865150329 9.52222024612811 0.4371209617596988 -1.2451410380363845 -0.9283083663464979
P 7.197833667787461 3.532464512919511 7.053337668574748 0.4513041952386163 -1.3450114265714772 0.5563407013556806
Ni 0.06415580694055148 1.9128551355904415 7.505970351248272 -0.5351303858266526 0.9514477805774388 0.9533696801905001
Ni 1.354887964391537 3.150068651464368 13.31121856012927 0.5194109182088668 0.19724577856247322 0.6015514935643641
Ni 4.221151364902746 4.107275245497425 9.47577645348496 -0.08952606918629098 0.7069052738115309 1.7300909463539043
Ni 7.202148274643168 9.151142852272862 11.268145270705247 0.8743008017817911 0.9532732638219519 1.6945801550418043
Ni 9.098749880561362 9.062638096258365 6.254467004976171 0.7678357907483164 0.6544378000404342 -0.9467277493939502
Ni 6.03502868168364 5.831873389648694 1.656153544242181 -0.25834444564600667 -0.23020886375205513 0.03277359488659517
Ni 8.34077118001511 4.781533978401213 5.772459962551252 0.7784909564693173 -0.3767414322303769 -0.40714395578163426
Ni 3.796208685842717 0.5657196346710495 8.70433765462817 0.020750088063157812 -0.8192442271272794 0.07928639373615379
Ni 8.945212567367046 7.652029012559366 4.356999711913209 -1.451082801710959 -0.11597269341359381 -0.7132301875882943
Ni 8.173635479828981 3.997492471057774 13.060067876447294 0.7534193582126701 -1.3253658844264078 0.13583060867978541
Ni 7.992357457171368 1.9912463793812 5.449672976196415 0.07744342699014405 -0.9040088703691851 1.8123099403558207
Ni 7.142545853014654 6.998753282227348 5.890282840920095 -0.6352303738740479 1.076886504499939 -1.057113692748386
Ni 3.851100073062542 6.881456822771883 8.866081940093748 0.37900657411546984 -0.5237666240744011 0.7788223716668071
Ni 5.764010524125492 5.18707014585598 7.3231361199640705 -3.9897201291586644 -0.5523035551718295 -2.1184756192501646
Ni 5.3378693431611 1.2212089058279714 1.7953908858683654 0.7123688680292636 1.200825503948461 -0.21624443115216305
Ni 7.893370419116401 6.195572621395773 0.26480069844812887 2.0294154339566983 -1.5773625334775156 0.13261750105912645
Ni 0.6194079103638028 8.84849346368495 10.77296761427592 -0.755406306735712 1.4738650897127972 -1.1063138086221205
Ni 4.855592176845429 6.0075184533558 11.200610610318934 0.3933505015419677 -0.5959063794634447 0.2860167147502945
Ni 5.346129787055786 8.185187194337956 10.439049311003178 -1.0089823844587977 -1.0737541295185444 -0.44636947694116025
Ni 9.202447953025017 6.405513278058499 9.418497281701827 0.24987934559778902 0.13953582544551454 1.2912578869991052
Ni 7.1607630819609716 0.7580635176041003 7.1600697947055245 -1.4832907539020712 0.11293750613169583 1.8525209653570676
Ni 5.618669120107934 3.512560162061667 5.503942986275057 -0.1782898062852607 0.4231483016296906 -0.18241077043216972
Ni 4.052365419786763 6.227489649033502 2.879753000407086 -0.3677469420412505 0.924953333831336 1.3700076915054984
Ni 4.52242708592335 9.145021273315193 13.418261374830639 -0.6277471781231253 -0.8441839277917526 -1.5469700372285875
P 0.5881085721690922 1.4399539418650555 4.413212217001459 -0.504215698525667 -0.688506202479053 0.23861148599345358
P 3.1922651377433637 8.289834849079682 11.218530057638244 1.0411258019605618 1.427037587836297 0.7690542365364497
P 0.7999059848590382 5.68821910754266 4.1130271327138255 -1.1551166890574365 0.05566026967678156 1.2854399947657476
P 5.90370053070171 6.231315635882046 9.1724337776416 0.25860901216130294 0.3403307548118268 1.6234503289745137
P 7.107226923817618 3.944398836694493 1.7643837977534111 -0.2131367387611168 -1.0485704311640651 -0.4757047355701678
P 5.58348847959217 5.725981136775514 4.817430954285968 -0.3573103200889588 -0.42119092079300363 -0.17936015653130402
P 0.8437886711250185 1.092333074127276 0.4333174415979014 1.5979087330599835 -1.4097170942799786 1.9215430010527357
P 1.8026021796344636 1.1459245477431386 9.457722405182544 -1.0596524000098395 -0.1867137686828978 0.214476797728779
Ni 0.17986286848592292 4.007504571581914 8.889222246093372 -0.30826344196363686 -0.0062732346032214545 0.20053061996133206
Ni 8.619367557307 8.39235285812981 0.43452331889859896 -0.7181031994098793 1.9414183998204244 0.7098247614511711
Ni 1.5005059457716419 8.252755044007776 12.957411578715893 0.37698825813386044 0.17865284605163426 -0.6107902385538125
Ni 4.744066965021743 0.828747472225263 6.376986166961034 -0.4454341096110845 -1.2137645806076323 -0.811011554804842
Ni 7.764595999115306 0.4009081062548422 3.0656498650192057 -0.13783324093211102 -0.601801661901957 0.6389607874507577
Ni 2.0505169081746595 4.79990793451964 2.7178335492785606 1.0712249353387875 0.01770513058924693 -2.038335105043831
Ni 3.167493025304722 4.953712605831085 7.584029702203976 -0.5577347534897298 0.5998234551296637 -1.6632054973852646
Ni 0.6457306998817817 5.061697627414191 11.609835397865513 -1.2600405808560364 -0.32844583044878267 0.35933532093878756
Ni 3.616783731514157 6.53582731204443 5.546676032637389 0.4161065642915608 0.2842169425373944 0.1218440645927063
Ni 3.8292320229306265 4.349280437724569 0.9383357205865903 -0.21941280157781565 1.862874797787566 1.8299469367112937
Ni 1.0933010948961845 6.188040497889122 6.31414779019074 0.8710277874574741 -0.16001054836009862 -0.7662805304460545
Ni 4.970463974755913 2.6955229753665724 7.793688249956905 0.6754866502909334 -0.0382310184567406 0.19641454091042948
Ni 5.130150524644155 4.014419005645546 3.125560209444686 1.8665067381131983 0.04129783030752242 -0.36295543418987813
Ni 3.207753470045901 4.341296571192428 4.517353735169728 0.869957951432063 -0.71230201934707 2.6473461402100344
Ni 1.9148741503370224 8.084254895499756 4.543193436227794 2.0166195677436107 -0.03864419473475925 0.8104546538601075
Ni 5.665032705315945 8.116144265401228 7.733764076663297 -0.7176938797866026 -0.4011453149960381 -0.08641631991271569
Ni 6.341559372592605 7.581474127374058 12.933703367198511 2.1032053233546555 2.538530626666512 -1.6190110622562377
Ni 7.716812650112895 8.444247990588728 9.136014992466176 0.18493122286117827 -0.9435195268692976 -1.0124821700819402
Ni 8.10723847432727 1.6903855244044137 1.0177005166935083 -1.3810261541031894 1.163161927959416 1.1479679938277971
Ni 5.914818940676031 4.449152523339681 13.006634973852625 -1.0841575842400555 0.8593205263228749 0.5083549175050213
Ni 4.01971085251558 2.5166050795360126 13.333509773625881 0.715540837999342 -1.5420448320128282 -0.09470504228406916
Ni 1.7951069331094855 7.662031893838088 8.445495354493806 -2.134072702357473 1.143966585977888 0.17720840029562382
Ni 2.335870992358072 1.1540006067294617 12.196267911217582 0.6197042532139908 -0.849603299035111 -0.7769657780740424
Ni 5.770132103083162 1.7012550147524446 4.046207885771962 -0.21949816220277038 -0.66759773446116 -0.06934239514956445
P 7.572577555545517 7.4321315708450095 2.1864804957528494 0.17202017122646504 0.5089174748767106 0.5837512321581495
P 3.1610395535119986 8.390859340372065 2.551298943893696 0.4741903558081704 -0.14545373359184627 0.4400692457547454
P 1.126978998408785 5.206780892560042 0.3516478341364392 0.10691418275575136 0.7507682937430683 0.11057980453279666
P 4.82888402286897 6.515839987977822 13.465542274957759 -4.35617432053042 -2.1355752550449285 0.8257162080048681
P 5.907268378678545 0.7330314224446663 9.241897104169396 1.8740338997281791 0.45615766667617574 -1.049847755214592
P 6.543792740085735 0.6831682116759146 13.293165433751398 0.013871872886085787 0.3560571644081481 0.15483517480674625
P 3.194404002680381 8.116678981635484 7.015772931193844 1.841208625668042 0.40021406143102045 -1.4601567389877692
P 6.6544882198217845 -0.042979200214999055 5.151336350615127 0.412369980067264 0.11055126528770637 0.21950896083604776
