# total energy = -340895.36537115666 ev
CRYSTAL
PRIMVEC
9.04541154350834 0.00000000000000 0.00000000000000
0.00000000000000 9.04541154350834 0.00000000000000
0.00000000000000 0.00000000000000 13.23887411814170
PRIMCOORD
 96 1
Ni 6.37147950132967 1.8996178790591869 11.345596657185096 -0.02823842602040298 1.1014066011284902 0.0462474610033139
Ni 4.754440285764947 0.3601593511083993 6.109158037479759 -0.8480261843559783 -0.2729714515305622 -0.845890111849582
Ni 2.809432530476079 1.5841048713335015 4.712179217464291 0.2689150220730014 -0.11911792391079487 0.792522494861719
Ni 3.349072750879929 4.386780479222181 5.028138163989921 0.3719147002656949 0.08719562128090144 -0.5746749808884941
Ni 5.217900048295865 4.455941697566569 2.8495217954122984 -0.7682543663429736 0.07329109538466733 0.30473691686761706
Ni 7.204299607814908 6.220267352877783 2.6179348316527036 0.1908537589932003 -1.9317942464670985 -0.03482867764341099
Ni 5.119802557719762 4.599112474960627 11.508831966953144 0.38059680142072516 -0.5581559001875483 -0.3480576911424393
Ni 5.390622185921563 7.9568416848983095 12.522214773980757 0.04887127177940616 0.0862859649824385 -0.30742243411958026
Ni 1.853314416241384 6.333751088863747 0.5378175699334867 -0.7925119533387577 0.06540706465090025 -1.4183176914647961
Ni 2.695994021548932 1.5372315475745926 0.4865454624339453 0.2807094436047681 -0.4496682022970901 -0.8873776895704073
Ni 0.6634646711179476 -0.19938258425769478 4.618394579217067 0.5791633556771509 -0.016699572142868012 0.33812294852723057
Ni 8.458391676365693 2.1767150230249177 1.167585368608543 2.355501505924053 1.0506262852518293 0.7235999608583926
Ni 6.834179449272447 0.6269420120401115 4.626033429451415 -0.17229476504409036 0.5461123387594531 0.5816470413309531
Ni 0.7115627436296462 7.371603543794217 2.4498403266852575 1.5990947829482847 -0.9901146010200174 0.6501949656036803
Ni 7.5139511887177886 3.468436004512226 3.859899716652048 0.37657199653204826 0.5181292232829657 0.6789612391030952
Ni 7.593098541649177 3.775184008238995 12.640397601377906 0.11838155996540257 0.5899010538096292 -0.3336859958017995
Ni 7.959745262074421 8.808412929969464 6.928326808531391 0.44890072800344627 -0.7413428866641103 -0.051829325966465584
Ni 7.007191040074579 0.6060434927015197 0.21995094606691573 -1.1910509410602004 -0.7427269114958305 -0.0971344776611682
Ni 1.9492229171706992 6.659901500823412 9.289625217627599 -0.21026327386806368 -0.4486225346413952 -0.40504053628538633
Ni 0.1426271481470668 4.780283027173516 1.4146399864838715 -0.4958819818489912 -0.4627695155657385 0.38942159880120675
Ni 6.533573280133152 1.841112155772305 6.96502494859744 0.15816732450377274 1.2064757602557028 0.1116018180394078
Ni 3.389804240051362 4.353610954285107 0.4358450249578626 0.5393115137875357 -0.5367044151819919 -0.2690410061279044
Ni 6.24867899122721 5.6330754028327545 4.870833026174083 -0.7953751338191658 0.13414910721230444 0.17910664575960122
Ni 5.109346061721055 3.0562818175043747 9.230897881752508 1.9541916403256923 -0.9592932447637866 0.46516424105016013
P 0.1932443678349245 5.496715820496678 12.375792171057688 0.8880757440786964 0.10776598923308538 1.7021309708058687
P 3.9952407856235452 6.105282078539061 12.580704215526463 -0.513658846216438 0.38716956954223647 0.34859890835789
P 2.3786267044117113 8.41647523825323 1.344844684774856 -0.6389708147530867 0.6818470452913225 1.4664600554979776
P 6.336654666039859 7.808686885622515 5.835311814501861 -0.46687505309367977 -0.169580708547037 0.13430748716703966
P 4.727421640827112 1.1457461264465378 12.669562722527239 0.04083554595912322 -0.7135562034691454 -0.09446952923449536
P 3.974427293155531 6.2960950396919335 8.243119017262904 -0.03830146668335984 -0.30073422346612727 -0.005332725066823074
P 4.805374999405707 1.1192068883321729 3.739822780031604 0.19890593987371552 -0.0927808286781628 0.31731989573895025
P 0.17207448614342497 5.478977768028283 3.6322438888449082 -0.2875164392242726 0.023131443811140805 -0.5228929632201962
Ni 1.5932588280382516 1.1838001737359491 2.689807864443815 -0.5894544531905138 -0.956914974339597 -1.143400686172089
Ni 1.7458639699017313 6.391108044856654 4.780861933526386 1.1146115298545385 0.415263242454659 -0.8112403829861965
Ni 6.090474739482069 5.900394456682047 9.284475664710587 -0.7230332897216452 -1.2275510928687632 0.07971345397124337
Ni 8.550256878236684 2.458796188872385 10.179225182835227 0.3284422309043569 0.6546905394811886 -0.497963032747736
Ni 2.2842559234822057 5.3911015927450325 7.036699886870929 -0.020153849240055616 -1.0319001695972359 0.4519567412209507
Ni 0.6108493199715136 9.073633448289605 9.245407626762479 -0.5284126074868448 -0.03830326645557274 -0.8621184007829863
Ni 1.330751933247187 1.202497039851284 11.354241357207558 1.3812428980996856 -0.23197238341038115 -0.48316916226801304
Ni 3.9708000830383328 6.738325220813713 1.4661129021245642 1.2869250639517062 1.2385451299864216 0.7451208656493038
Ni 5.372269045453244 8.053510000415766 8.138968337134608 0.9128274971020796 -0.769006671127966 0.1444659157572802
Ni 5.2385054962933175 2.9001761012883867 5.094411182358196 0.4035135581178986 -0.47347790312217813 -0.7058259247044232
Ni 0.9462767062359126 7.305725809920011 6.766733240998435 -1.0973537712153552 1.3721285945032433 0.6036140325203476
Ni 5.0062374130279235 4.530882934027889 7.092025243381734 0.6420309417356491 1.1887112371834303 0.2619329343282134
Ni 7.924450065372904 7.385017889439617 9.17702883653564 1.4077255177712464 0.5100611015628506 0.1514624016797714
Ni 4.536762451674221 0.4927904147155259 10.465846240846837 0.2438819903637735 -1.292505129142645 -0.03604146700458954
Ni 8.00828294159783 7.273460826159296 4.535889569439035 0.548861619369816 0.03220769508079614 0.7633373886573306
Ni 7.273623643571041 6.297831758750543 7.166983666125405 -0.18450339129514032 -0.19796491611668487 -1.2096636710653812
Ni 2.527776498981501 5.191586945475589 2.6737233132458043 -0.6616204338318025 -0.2759798993395828 0.5812199810958635
Ni 2.2898098063050485 5.26700758876038 11.311161679142296 -0.16595185354519806 -0.3711510826267931 0.6367259845829679
Ni 0.9888172777600633 3.2678268624193887 3.747846060265906 0.0138387056553052 0.8384817352006528 0.38141672621885925
Ni 3.617070210611491 2.6269413481457073 2.558757034271787 1.0939935964938705 0.3617020213987513 0.5259700594836232
Ni 0.9921640801125906 3.288540855358004 8.121268275395622 0.14569541728900712 0.32184400886154896 0.22901150100984427
Ni 3.6994920026012976 2.655832393318605 7.030397948495238 -0.6923649141035109 -0.5387664399173431 0.12017850396482528
Ni 4.193688074304885 6.831655779390405 5.997832536740585 -0.018373103190549005 0.4824813921723691 -0.034485435371379325
Ni 0.8279491522505465 7.391304450615309 11.430735690868685 -0.4976077062908463 0.14736740567479137 0.023493198025933734
P 0.15793922118046724 5.850735146099954 8.162494548590523 0.4889459168507902 -1.064563978378844 -0.18710946145941967
P 8.553838861295066 1.564087375100683 8.047766163945889 0.7060059019257131 0.6846670312386208 -0.5093082825572262
P 1.8274174023622338 3.3020004280622213 10.40100239753721 -0.3560887889770319 -0.6187241486889086 -0.4321975563161525
P 4.2090471834794565 6.146963335945672 3.878646332532082 -0.3752193391588957 0.06354995683750346 -0.7694432444447523
P 6.941666077259153 4.10299877596316 10.400088810949088 -1.1077891076160664 -0.5626666435737084 -0.19829967374828428
P 6.303684140161583 7.884840207260155 10.436178194803448 -1.0134044247858933 0.44838007961328585 -0.1613405800254318
P 2.51859540604146 8.459079127659725 5.636860907655817 0.41898774249409776 0.48311594043257444 1.0164635233271915
P 6.932928209495528 3.917712561397839 1.7306649645153758 1.0872760752643793 0.12794529239443772 -0.9583594200956076
Ni 5.3132839153428915 2.8902171029366768 0.5904302074563917 -0.20478708124484085 0.31974264624783 -0.7036034631318075
Ni 1.6562239393245823 1.0855217749245742 6.980977436783703 -0.7772761102256098 0.39236345503835 -0.4122023441411482
Ni 6.928803501731331 0.7108192107826794 9.13592196277602 -0.9433696315549948 -0.08574629042888458 0.7354553175350819
Ni 2.7359566507204605 1.54985894239656 9.211965834931322 0.06350110587743901 0.8880957986833543 0.14543085077371082
Ni 6.573165047422374 1.8047224642473936 2.303881753385661 -0.9609009555705386 -0.4717616917620198 2.157634291727497
Ni 4.2226333919483645 6.8209007848035 10.543757085990144 -0.49446119024206453 1.0728442161097653 -0.4815851056103448
Ni 8.09292990488148 6.985780550430168 0.5584555814132872 1.8168865039829096 0.21399805832014757 -0.786265972429046
Ni 7.6058254360005435 4.054551550557386 8.131647885394338 0.36769577708834095 -0.38487665974300167 1.1040121570721373
Ni 2.930360640343477 8.253476918273389 12.546693467295375 0.6058202961430469 0.17714463693722396 -1.1502354497057352
Ni -0.14537966694672638 5.044445232317316 10.296507991761898 0.7304128700151679 -0.4344822385852711 -1.1253898514169651
Ni 8.752213786682296 1.8184624447162825 5.742732025101546 0.16280842282020994 1.5730230255618973 -0.2399631149253416
Ni 3.70315539436555 2.6310208288510855 11.496956245848729 -0.6639377691110695 0.6513869290292524 -0.13589205804534019
Ni 1.1797659200893893 3.1826190836063972 12.645997615800743 -0.301667533913674 1.5313179325136272 0.2240680409616399
Ni 2.965176430221524 8.508620847888894 7.970278644073118 0.691773560376415 -0.8814235288695014 -0.10118679335367091
Ni 5.640013233655426 7.961174437133067 3.3960627604505884 -0.059478614981607246 -0.46474515123487053 0.2879401570252525
Ni 3.2624991148906357 8.294805404621219 3.542232996385452 -0.668179832216875 -0.3123728361463201 -0.11610896188114196
Ni 3.3350161809993146 4.349097293815077 9.13643845578772 -0.9475425319857615 0.8268415798585632 0.05077877321476416
Ni 7.337719431327819 6.36545525709512 11.685530467590114 -0.9183057466078314 -0.48301695296086494 -0.9128771193930922
Ni 0.5461176397677543 -0.014050238092380018 0.09162821208278574 0.010355889313027325 -0.46605667095744246 0.9664116009761228
Ni 4.689060049537739 0.4725775375886139 1.5976277619200643 -0.4039707002599752 -1.0608150528593732 -0.6157861491065072
Ni 5.978329724437114 5.499483716496336 0.508792652666488 -0.2608469003528862 0.3211919770998468 -0.3298756209167738
Ni 8.036586035006094 9.03547085605903 11.258100389195917 -0.008955923641707155 -1.2593250428462506 -0.48535357151384156
Ni 0.015665748633356694 4.889280238924742 5.791716547966076 -0.24443606309503063 -0.713947525370293 0.3811012518609695
Ni 7.968383630308647 8.630652497991449 2.3319216253116055 -1.010072017978551 1.5070639450622692 0.3372158633319289
P 8.600811684583375 1.3126882459553035 3.5298018869987544 -0.13890179140594142 1.4080466485560912 -0.5246911927711997
P 1.8741550449446889 3.300444617238884 1.5890092935917184 -1.418739352383247 -0.4021321043893397 0.02773448980079094
P 4.824343227873949 1.125457267860812 8.242510261051216 -0.5601721592866289 0.22458174737326486 0.11437115325442884
P 8.532744961062381 1.7392517739025493 12.304342463537115 -0.5216943149264047 0.2922565250124193 0.6852067057921747
P 6.239986350522402 7.712895975046126 1.2487236166690965 -0.6256874673806192 0.05650487706526398 0.8393376554430448
P 1.7882055423670833 3.226706420542121 5.996905382034817 -0.5944048552172537 -0.3129508201369771 -0.05475061337831861
P 6.955568875139787 3.985263696448308 6.1178425373139795 -0.4154987555042328 -0.5671444768394039 -0.8715597487015442
P 2.397766795703462 8.574860398233643 10.299606045290925 0.948814713829966 -0.027561711668352532 0.2403629214669215
