# total energy = -381168.2396533529 ev
CRYSTAL
PRIMVEC
9.20998413964761 0.00000000000000 0.00000000000000

0.00000000000000 9.20998413964761 0.00000000000000

0.00000000000000 0.00000000000000 13.47974274783429

PRIMCOORD
 96 1
Ni 4.20774710162307 7.081206939527648 1.5913784491233525 0.006813937598039878 -0.5449260317608358 0.3124988202012231
Ni 8.520791953609171 3.887580417824418 10.588594600957329 0.2844704533090972 -0.4206561313354562 0.20885790888010483
Ni 1.7547138364747197 6.476635940920078 2.532115716234434 0.6523426080743023 0.4425709291306765 -0.7247692985761452
Ni 6.723012230604447 5.121055193528067 9.279481908291253 -1.0280607412464875 -0.7077789346657358 0.1615447256164379
Ni 4.619175519730064 0.6318712340336252 10.381491526273223 -1.7307689462575355 -2.8561878511402234 1.1451590636240923
Ni 3.2914273448559466 4.537501379065379 3.2800659082384502 0.2651838371653433 0.17658619333059267 -0.6088223161941644
Ni 8.49363170994429 2.0541212156885504 3.829244377345154 2.7664200982567713 -0.3663994268744206 0.3131652501406284
Ni 0.829955892103064 4.672003989605191 12.54927684205189 0.13934170715683744 -1.3264267215907546 0.7495711881111736
Ni 1.6358866191928334 3.166309708305456 1.776239411752291 0.47477245356388553 -0.7601682469007295 -1.4566402411940786
Ni 4.28614248788128 6.710109042617165 3.9922822822040236 0.6974549270319085 0.8251045425627984 -0.006241352924021509
Ni 6.552424901624824 1.5387949648302814 11.029098939461074 2.9091227514660414 1.5217652558281856 0.5840458805804328
Ni 7.652870664274717 9.252810714792059 4.3714536513412385 -0.6700487671048138 -0.7842144892166558 -0.3549168801561178
Ni 6.41341860876825 1.994090538100321 3.0437662623634205 -1.8494680374633568 -0.39567760701324756 -0.6929855784066452
Ni 4.542124791177881 4.554935879322286 7.979104885722207 1.1175130197720495 0.7966138913222732 -0.1188736691104727
Ni 6.208606978174964 0.5223912298054815 8.636457383285038 -1.1110258693858093 -1.277253088079581 1.1658978388333403
Ni 7.245393329427213 8.58918529693077 10.803771147868165 -0.025619757450633298 -2.3909924997418113 -2.2984368997005773
Ni 8.037930897365586 0.11218681861034396 12.680879228539457 -0.3792482578126307 -0.37117396544492853 0.9560726809439599
Ni 4.853707769620254 1.118515751822661 1.2102112763909594 0.9062184764259941 -2.082118934998001 2.150488938931967
Ni 4.198316077712309 5.238924572444016 13.180721653812986 -1.7401300757574611 -0.8002576587224476 0.2750843841085069
Ni 5.48648895010152 7.247170856394768 9.73182199760332 0.07602237827290133 -1.0948112072991598 1.84132895329599
Ni 3.2997808006050295 2.9779378996659878 6.520380603292096 0.08873005564755687 -0.7672241253062463 -0.8888663583007919
Ni 8.294106610332232 2.6358514532622435 12.578649323942711 -0.28163452652219884 -0.06258373626949222 0.15854681933037856
Ni 1.2016634899734027 7.49813371825449 6.795569407822587 0.07334148900662853 -1.5726239903512658 -0.3501492835641453
Ni 1.125487709928566 5.24573075083274 8.03334708818552 0.09912913949369379 -1.1946749109660328 -0.6464964337061705
P 4.477875940785815 4.994399489601505 10.192046754464219 0.18242748260271807 0.21064688245972754 0.460439067660349
Ni 3.9454927990264412 0.6932152553813026 7.03328462828266 1.3559252452705035 1.2883250296230262 1.670190670453846
P 5.127096943220899 9.132242810479767 4.934327367083981 0.18355131179451614 0.07185282027624401 0.518949662301732
Ni 6.995434355854868 6.5278342435762555 3.2724096482999574 0.8883161422242765 -0.6212985942843041 -0.597218670516965
P 0.024038058991297736 7.807929959745018 0.48191150686350764 -0.1832227248105038 1.2652493787504857 -1.176603912396935
P 8.952869156489532 0.8201039719103471 10.277481331713634 0.0528161153597671 0.19448467087756827 1.1573607478966068
P 0.15934838515315558 1.1838790103135572 5.508442789648476 0.9218029611278125 -0.4016142842126567 1.2203154943522725
Ni 8.37439004336945 2.860998729163111 1.7841250002995515 0.20930656638174924 0.4909220667405545 -1.5382470555332928
Ni 7.366928282089727 0.44692830254452476 1.5093266991028653 0.49046543881911014 -0.09492332894246233 0.16801927759718804
Ni 8.26866863372918 1.419221738821079 8.316516344101437 0.36394633734823767 0.3816324417740911 -1.0498022466886372
Ni 0.539063143363354 8.024198810792395 11.299394479339428 -1.400562167253588 -0.5571806807584727 0.05274206758872207
Ni 0.23933617769473475 8.455631314772607 8.649816465494569 -2.5672963859452946 -0.21394843602913477 1.1948052658963102
Ni 8.208785315889555 6.075504285246904 7.464205057136465 -0.12179418519137733 1.0812998030762861 -0.2911784614568921
Ni 7.379803840124147 4.61056418442092 0.10737460181994049 0.6676563556132372 1.7401652998707708 -1.116975659211341
Ni 5.9015000520964875 3.7940346074126894 11.582428348486312 1.0462448683546821 1.2697544657096906 0.13874906787816105
Ni 3.884550332993714 5.0702345002276905 5.629194893646523 0.7173357251162357 -0.6950550593411642 0.7250870869268803
Ni 8.034891602550594 8.329141390563226 6.607460083735322 2.0017048554153076 1.0423671305668307 0.8068455963526104
Ni 0.36372162049434076 1.1660484807322729 0.4189179773298758 1.378368661875684 0.6071510991393285 0.39429743883626933
Ni 2.7062249432057324 3.5255451454531834 8.65159583445898 0.8075662765687189 1.010028309224809 -0.25570417980968224
Ni 3.010062324862021 8.292218563553222 3.2294634915656966 0.22877727351185115 2.2989716891581247 -0.5781182022420882
Ni 5.466540124134029 2.9650347116787046 5.068127255822629 -0.9658413302949495 -0.06086058293079841 -0.11222942432107769
Ni 3.3459320318714636 7.440709466219722 10.718309861664313 -0.0019980042666352684 -0.12134501346910072 0.7706074399561825
Ni 1.194848101600391 8.665038727525532 4.480544994232435 -1.3295768371839618 -0.23874184092373077 1.8498290203472012
Ni 6.548464608381048 7.245347279505774 5.369237561131285 -2.032872025046731 -0.4816041317737383 -0.44854951531161463
Ni 8.895315964674735 4.73277146593645 5.382339684779185 1.3004598652133474 1.4297040789248667 1.2602025603551974
Ni 6.594477689883164 0.9000963694440702 6.500579137073211 -2.151117573654902 -0.8329770033323396 -2.044127800466209
Ni 3.924982164017391 3.2664959173887267 1.1027187867721344 0.08301577887159896 0.7650636273198178 -0.751975169566976
Ni 3.647181407942865 7.762045818022933 6.2174771140425955 0.36348251033794177 0.01724207490989934 -2.1058018804372383
Ni 3.8403239884434415 8.053532610749208 8.472422958126222 -1.6404244949350073 0.22836923944015508 0.3138098257031628
Ni 0.9446312484679861 2.4168288169127985 9.200234598486416 -0.9260861618841986 -0.6439636399819877 2.1257873224202295
Ni 5.94632504562547 6.238935456434866 12.403911055044551 1.5162983191763435 0.9553823397451545 -1.3473069074738733
Ni 6.38643335480484 4.757002934597792 6.414120409570986 0.5238355296391236 -0.5664700764801985 -0.6772226591454336
P 6.371457920352791 3.188514980423471 0.9447076913375752 -2.5189833006622036 -3.1355199547814903 1.375549190149018
Ni 4.15016627985541 7.705284684856891 12.981046431457035 1.914711579953199 2.2175687632996 -1.074471210190227
P 5.510950668370058 5.0805036327086475 4.0845101438641604 1.2747328927608885 -1.930267011189295 0.8751875752621185
Ni 1.5718219684865242 0.452432189154946 7.280301011875036 0.4234694324145352 1.4603300313408398 -0.8341280862176472
P 8.710655779703272 6.979694492706925 4.825303257078085 0.6732503047612469 -0.29610109556949005 -0.10801050114372367
P 2.1479617455974904 5.130624367203147 0.8142629998749904 0.32328639773503026 -0.30633794280614984 0.17329955215952092
P 5.676721175567134 9.236509042602556 12.316764341716024 0.560282716722564 -1.9227113103292244 0.8065013256393142
Ni 6.862359292879671 7.129955386363257 1.0318019077556622 -0.23572927934965207 0.6412449554992441 -0.6704040935617034
Ni 0.9352554844629511 2.7497605389344164 6.906238421022293 0.24776667013016038 0.540473909526753 -1.414958545184576
Ni 1.9483998060482797 0.18359919478150272 9.98243672205696 0.5378413569999123 -0.05134647279277609 -3.273830906680968
Ni 5.612748624703703 8.619145375819159 2.8973358011724084 -0.16071811595008448 0.1715889972263174 -0.13974819856663676
Ni 4.8191887485093785 1.8861126823095262 12.686082869662094 0.47472077439034377 0.9935845618464887 -0.6865552494002692
Ni 5.223249179186089 2.613461981458472 9.517911823532064 0.007547473329954743 2.254114423634118 -1.834160717682325
Ni 1.4923029641451968 6.804456121661937 9.492273069271537 1.8732435426163998 0.44197571874883884 0.44568607772089053
Ni 8.527902061479393 3.936310444691451 8.122636964857833 -1.564456624049125 -1.225650790522257 0.47324701805829467
Ni 2.077873765166925 0.20975647115743556 12.037046066912767 2.0725099511533274 -0.4493175038258907 3.9725225343334554
Ni 1.1896628804463296 1.0355890532948275 2.6827919801821465 0.45036240015063733 0.13183614280841166 0.6875081002318417
Ni 7.490949930509964 3.978694792384153 3.8299452571494594 -1.7930711467308666 2.036416290754564 -0.8280335432841353
Ni 8.636570666091778 6.155704828425534 10.12994567240808 -0.41062291546917024 0.8152857567001636 -1.5187382960764038
Ni 1.5468352811135775 2.3736892505084928 11.77013427526177 -1.4044450472477619 0.7777761897904798 0.19543649326787635
Ni 2.0303594562258884 6.274882025110357 4.95646080132455 -1.2871011845182543 -0.324677364545286 -0.6992757822907312
Ni 8.99411146613054 8.103478355542238 2.665052629445312 -0.16367102793082136 -0.3943092659108112 -0.35384241614501644
Ni 7.7307595013970944 2.756999586584669 6.060883435189937 2.097738386702813 0.38086291059791827 -1.4924143134698942
Ni 1.9068351469571967 3.0139120982943433 4.386348958929984 -0.0497863273945078 -1.750984501973462 1.6287231473376786
Ni 2.1098876705515037 8.809792050577727 0.9239539127433262 0.4296362233468794 -1.5887669186597153 0.5727535954960652
Ni 5.691107171024762 6.677901727562541 7.4014307252288845 -0.8817194628433654 0.819143182773041 0.6129515078711895
Ni 2.223419146867874 6.758203580568336 12.72942045072859 -2.413731336100224 -0.6544144030016665 0.24077249820051436
Ni 8.935360976358321 5.909724568065541 1.3211243541742934 0.42368000576344456 -1.1126580056725934 0.5300768825631451
Ni 0.7864083233948063 4.50127851086125 3.2686086877843605 -1.9753783017056366 1.4403217065397131 0.12340395288065843
Ni 2.0908874729656617 4.535447552569187 10.56191788146756 -1.0283404772704354 1.6237418920730033 -0.05658458126326384
Ni 3.8231197377937307 2.094009657639244 3.1172177290559104 -0.12993841156506653 -0.14724013606830771 0.6533368536667715
Ni 3.658297858978304 3.1303078797242367 11.331112744228369 -0.08580105492621996 0.4883478782554751 -0.8046868981383948
P 7.226807581134324 7.67821654103489 8.604618467601927 0.8993924546430963 0.06957250888249954 0.14285691939894754
Ni 5.354951954502395 4.926264025839965 1.9189361453130076 1.0213319071630862 0.6314765632585706 -0.1802844681177863
P 2.9004358818837 6.071709771720308 7.325269681158908 0.7953692202818947 0.2598619107317976 0.377761131744143
Ni 8.466406996389395 6.192471085702644 12.32966476670802 -0.6419473808829074 2.0379553531069097 0.7949688995196825
P 6.471027060488774 2.789823970586579 7.677940241506254 -1.0730043958367135 0.5016265976422523 1.463347478010925
P 3.2690562930207503 1.5891827888691281 9.102372068438973 -0.4091126494722309 -0.5957336013310063 -1.559577955800585
P 2.8487310300916904 1.5497548461328272 0.2704760555703964 -1.41255482083909 0.3275693413811004 -0.3206440750161768
Ni 3.1317630572417174 0.8718732935923719 4.993058515889194 -0.5641439994501833 0.01823992004679439 -0.9075811611014756
