# total energy = -381170.1780134246 ev
CRYSTAL
PRIMVEC
9.19000659886602 0.00000000000000 0.00000000000000
0.00000000000000 9.19000659886602 0.00000000000000
0.00000000000000 0.00000000000000 13.45050359754091
PRIMCOORD
 96 1
Ni 1.3713052431660877 0.4686526672562341 1.8228525507843112 -1.6225545566331219 -1.1902243313938468 0.6397686280640336
Ni 8.224045176199095 1.3575661830152115 2.7114600393171853 -0.17514714689122096 -0.981359994755839 -0.6264533990123663
Ni 5.377256772896796 8.12009700939872 0.6796340861363489 -0.4509581247531072 -0.07696751579499003 0.08326183344413403
Ni 1.9441183663795438 3.659028773412596 8.009667130809438 -0.37196997898366263 -0.28383179128383373 0.6631127021066128
Ni 1.0703509008109737 7.726553348635526 8.025458319476495 2.148933164409073 -0.07690838042228045 -2.0138839139800027
Ni 4.262839789528329 1.354358870645542 9.520575929119293 0.6371805556218832 0.11737085931270108 0.36180949351089303
Ni 3.421972548267544 6.855487745063182 6.894526893906608 -0.25374294231825334 0.8673020018664547 -0.221548874084212
Ni 2.658044043851665 5.972576222738677 9.319907535858786 -0.24962943437051205 0.12654866915722723 -1.0029258938520726
Ni 0.521414334238315 6.8440553766165655 9.872495292129065 -1.1172751927296307 -1.3508444883134865 2.405985630716534
Ni 3.3325537822019746 8.344452645160152 9.556555724702367 -0.18209143941953804 -0.7463904763903467 -1.4235540001630709
Ni 5.177999045678536 6.902770329997134 8.585497333252013 -0.22481751753315476 0.7412696102240137 1.167912041049892
Ni 1.0460433328517311 4.907040885485603 10.98625059500866 0.9607086370540746 -0.7231505320257997 -0.26483905223141485
Ni 4.404963244533882 5.47031478165116 4.778869698788452 1.0844018390403778 1.1520689033700482 0.30065091972370156
Ni 6.869272755248008 5.254570182251848 8.629291391608525 -0.1293326596602676 -2.146518898540626 -0.4428732908624437
Ni 7.981116536715307 7.692173533234571 8.709241693678477 -1.6538394827893323 -0.8641482867288214 0.5697608314163284
Ni 8.396909203916808 3.79154867132272 2.229877951508264 0.7192373130143226 -1.0291786569010144 -0.6419833763271653
Ni 2.2111523936731965 0.025190727611750424 6.378444601607784 -1.9367135381455873 0.5599906394034421 1.1846491512989146
Ni 6.564293189918924 2.578660765200649 10.289245558038074 -1.1896815715164994 1.5128293867911367 -1.3509092801131508
Ni 8.756321179462374 2.106818246587646 0.42707615753812095 0.3284160056521118 -0.4812750305690937 -0.22157278534361194
Ni 3.7931109724770007 0.013922860286673925 2.406349056891007 -0.6793049955957592 -1.3542041488143388 0.35690382867915954
Ni 8.74147012848992 6.05456946331802 12.593478016481928 2.4472196976656564 -0.2827331589030163 0.33012810324721203
Ni 7.909811274032599 8.377463149549413 12.303929391553739 -0.2973074571727654 0.3201468236647841 0.6176653684070911
Ni 4.168522749843753 2.489958819664691 11.970316522069416 1.0839601235172687 -0.8836346775882072 -0.44601080805016097
Ni 9.098648932385544 4.672070791881855 7.35287940155274 1.6660805049402148 -2.146747212501348 0.8807923230434057
P 6.9165185801548 0.6174278491763047 0.4180874118969356 0.44230867660822537 -0.33327179108251637 0.010510412613020608
Ni 6.89120011144867 5.575714969524337 2.256241323986403 -0.3712593260698832 1.320061955714991 0.129585399101022
P 0.6134752272559756 4.086373279148981 0.20816284379765748 0.4890706153541125 -0.02104165116164763 -0.5261312676518358
Ni 4.578121352468873 6.382717035764401 2.4407959593415285 -0.2663416049188703 -1.4876647146000508 -0.9997369546011298
P 1.3794751592022942 6.371110057188778 6.370252629555281 -1.2172625664585617 -0.21650745500556262 0.4068781037147573
P 7.5854959344176 1.0379469368698435 6.713025178807083 -0.8528567729754023 -0.04671591599930019 -1.3610954766175334
P 1.151075920453313 8.786436831712821 10.398450408722262 -0.14631042516518672 1.2642677315635065 0.5568505511125635
Ni 2.7866489988692984 1.6609926371968042 4.7492521449060145 0.7533687074803929 -0.14090750898206053 0.3476959369276464
Ni 5.84033202503225 0.5647231602363212 11.362460983965452 0.6104099723962584 0.45421905489256614 -0.24674028574817505
Ni 8.460458100868854 3.5983563485857832 11.808803071737886 -0.13706679507973168 -0.21711732067541964 -0.3214598860492528
Ni 4.777186089544545 1.243187358508318 0.6845038707343083 -0.8778653792045977 -0.15975446648523453 -2.013140093835443
Ni 4.35769903961351 9.085112052384044 7.511232408549229 -2.396960544399788 -0.515032586635513 1.7627133603746161
Ni 6.6000055563044135 6.450640375948431 12.84221841625964 -2.1170568845257667 0.47362702710553267 0.8014033422911166
Ni 4.783720184372152 3.9666550606971653 0.940497942871274 0.8628143984087463 0.7241802588418949 -1.2735692114700907
Ni 2.4823954440766163 4.5359116512829365 5.813845506463126 -1.4431897721161273 -0.1399420597449977 0.01480672599552934
Ni 7.650671462571456 7.665393853448849 1.3282987683914687 0.470676429117641 1.0375216295490712 -0.2814944013999088
Ni 1.2131544163189776 2.2122551944879825 11.442948901432613 0.4891672888329769 0.07970831176492078 -0.24622529378496952
Ni 1.2972705484667841 2.428229544057041 3.0579720023317902 -0.9107487601961799 2.1290528805453786 -0.38088090832004723
Ni 8.003393113173985 6.404690341999013 7.001928665258622 -1.1882124431701409 1.6867154075817465 -1.501763358784962
Ni 6.285137543669415 0.25083204532308784 8.74796562528901 0.9194090069743391 0.6389371333016738 0.9095280004152013
Ni 4.590895461906811 3.294543914119015 5.652453364221224 0.8840828208692194 -0.584260310584084 1.213810603354219
Ni 8.823334708974205 5.761555286829366 5.043266194133408 2.2545587102603877 -1.6538225135084679 -0.4118799278047229
Ni 3.9657360600181772 8.60484229754472 5.205640748101149 1.935087058285758 -0.32932900438468443 -2.1547199462941795
Ni 2.4437514655251547 7.307277668860658 2.173560670899177 -1.8944098922813695 -0.7867444547273612 -0.5212446289834958
Ni 7.206527624423162 2.3469806940276787 4.610280862229391 -0.8902434411539766 -1.9657572336761047 0.7519504869766276
Ni 5.731595864694346 3.9609848265078074 3.350493594456507 -0.8375121721985318 -0.6450265340288632 0.5903646237096092
Ni 5.261444307330681 1.1209602682028637 3.6021656064001903 1.3710009086567034 0.6457050481531267 0.6658385856782081
Ni 6.4995220220638235 2.4705127652972965 12.517711005502731 0.04820021385431054 -0.5427184825865556 1.9109942790026118
Ni 7.531228944323336 5.558097726508129 10.738492606956788 0.8115725695146346 0.8852421312846431 -0.8024240702461471
Ni 2.855767039936014 4.85429943651846 1.5932255271282012 -0.9117419773473846 -0.06408551762599932 -0.017883050928007915
Ni 5.320186830731618 1.1787562209044427 6.060461176671016 1.9708770714011736 1.0071201344390786 -0.7981496112405093
Ni 4.831710399828926 7.834444028348762 11.492540935072864 0.4720123743202452 -2.831118309766105 0.3042970011167211
P 1.8466399643592464 8.93037071805598 3.7868544158544473 1.910398297289826 -1.981955440702522 -0.004973541955191434
Ni 6.266867810171126 8.176477701054656 6.6351067872383735 0.1641554237664076 -0.4265704399373621 -0.03115894210130763
P 4.958155703250936 4.580042063887958 9.60815209882349 0.29069972204826067 -0.4154421912346845 1.1591296668715714
Ni 1.80523898377082 1.1890030784751633 9.082559987498495 0.0666980155481819 0.559256589450895 -0.003781321419303166
P 8.638431772361743 3.731887147242795 4.196489778506727 1.8083612401207179 0.8146542937637518 2.0486007486358977
P 3.3014088491910583 1.9924486120875424 7.603946711049649 0.23133423560574998 -0.4329290351655383 -1.0546084098280288
P 5.446310483915983 7.852061271364969 3.4875542747215125 0.3832301252785142 2.5078841054252483 0.6629885178239228
Ni 7.28738130416056 8.907037290816467 4.625937876797317 -1.5723470825407952 1.8449475238851836 -2.0485367281671816
Ni 3.977306278566641 4.802513748257465 7.750019111972815 0.6957561991732468 -0.3600853117309347 -0.7378235606569422
Ni 3.336036794775341 0.35684520664915015 11.458888049208987 -1.3382795071642823 1.5002050131589066 1.0170188816100292
Ni 8.946563510019757 0.35930904746951803 8.343401308383388 -0.07628360235408797 3.33035583835089 0.6060367830292273
Ni 3.521500321801985 2.3508680668997997 2.277075988379749 0.6887345164397751 0.7725347388858824 0.4489071557613495
Ni 1.4771925013991285 5.105388802031664 3.353426125623159 -0.8279556388583482 -0.9364435938591228 0.9875283283500798
Ni 2.7859505583532673 8.721279683572545 0.2128341242489554 1.8961178761114121 -1.0820497938684333 -0.40076941971385815
Ni 7.306211628073031 4.2872668275758405 0.3506502230720895 -0.4488930146939624 1.2743868222753794 -1.4945601561683035
Ni 7.012655241183775 4.210833541104377 5.952614608990371 -0.45546115482978333 0.8449403463418029 0.6452792734696178
Ni 6.756300001779967 6.624074184087118 4.615903308383443 -1.2713495781109523 -1.059771442086207 0.49683329001866694
Ni 2.380386368708906 7.271804242651707 11.460771081600235 -1.3253573997859756 0.43225849146107487 1.610384754039807
Ni 3.6172601925525742 5.432589803778686 11.275382912629269 0.6324908634556978 -0.8148862072688998 -1.338283106708708
Ni 6.3661842135494 2.5172623298374357 1.5570573364059348 1.5641177526524677 -0.9468956424303822 1.3952628665278615
Ni 0.6634330231664628 2.4360502398352324 6.4911324648653395 -0.7028832971363315 -0.655938810065993 -0.4005087098533038
Ni 3.9807984811467967 6.229933172882583 13.349934126376953 0.2844105466054392 0.4878028043852825 0.7764435870219853
Ni 2.9358028090691124 3.2078270100496717 10.05360643194002 0.5714356480155901 1.2984330645913056 0.5593530058194431
Ni 2.4755580790249425 6.85636998571501 4.581456405932921 -0.8300078934016867 0.7670950559275498 -0.5334913075613328
Ni 0.46498585454707053 0.9378401929076395 4.597462640758862 -2.121594881605436 0.005033705769165525 1.1607836575352268
Ni 2.22434924342347 1.9305447263508855 0.40569836374349333 0.3797524511425589 1.1680069147565433 -1.3799084955589784
Ni 5.733369536004793 4.666207567549908 11.723203672494192 -0.7537412603284632 -1.7357867111871013 0.42452821269635266
Ni 8.198708327479384 1.1527393116822817 10.89131690586848 1.4220576181232025 -0.5642668981812927 -0.18787410753958614
Ni 7.51513724243425 2.595662277761934 8.092576615065733 2.672294839735572 0.4606758662615034 0.15668585486223982
Ni 8.760125842273386 7.4041862904599824 3.521503078804022 1.2008093059985447 0.9532881762202873 -0.9037486747292628
Ni 9.16701339289549 5.858592568523749 1.5316359396237582 1.4395166941399145 0.7361741979789774 -0.34325769865063466
Ni 2.894484538541795 3.9909534386496186 12.831686668478431 -2.334227169926309 0.6194281167344687 0.5307440838334988
P 3.416816954458419 3.61364851988415 3.9833395180241995 -1.0521182964163234 1.2728161353541498 -1.4537423508209932
Ni 0.8152069043020724 0.2580737706735163 12.780830089903892 -0.722097151060621 0.6811888428820332 -1.4951006020528057
P 9.148026838867588 3.4363457188869218 9.409542267083916 0.5482684658705074 0.2289863041988637 0.569686012314335
Ni 5.378819074051076 2.8912312761381758 7.986613079776337 -1.4669066561170931 0.1896581960232024 0.22887934630735424
P 5.896556486572758 6.00565105717547 6.738715842788202 -0.9337084543161467 -0.42995478302856277 -1.2625121823249805
P 6.944511340836786 7.728088079769436 10.477619560215073 -1.7507757283967655 0.3409521904459096 0.9831448545704037
P 0.8928973837023919 7.510367628910299 0.10892547447777647 0.16421095959469137 -0.7366205414877764 0.9525183879337984
Ni 8.722097594176846 8.512730859489713 6.238303431066809 2.10178710285089 -0.9563179641855466 0.22936811301831467
