# total energy = -340862.44926093833 ev
CRYSTAL
PRIMVEC
9.31847966980650 0.00000000000000 0.00000000000000

0.00000000000000 9.31847966980650 0.00000000000000

0.00000000000000 0.00000000000000 13.63853692312454

PRIMCOORD
 96 1
Ni 1.364458342363345 9.19294082004457 9.353635201308379 -0.5562093179841388 -1.2680485387621774 -1.2519094671084696
Ni 5.594936156485594 7.454783499338747 1.1725163042141207 0.44154454474869115 -0.8913209904888715 0.9794530075411131
Ni 4.790397284278208 6.53971814327429 4.621622849549054 0.11056617768604184 -1.9495186603300556 1.3093692518878353
Ni 5.8072577090261355 3.626426025650204 12.220033003329874 -1.7634078153384791 -2.701498972103354 1.035539566122036
Ni 3.3513911069214757 7.46595635610838 9.159382180274358 -0.6770869048985177 0.2596030006434561 -0.5015674622695426
Ni 3.794810947941518 7.876137181200747 3.23245562727715 -0.7003597593835292 0.7973160595956204 -1.1534760681302199
Ni 8.553991326316245 5.359737737081456 12.810404332232693 -0.6211016477821496 -0.3218306391251103 0.39342069265827084
Ni 8.7410877551909 1.9028241697268409 9.826347682241135 0.26462565066902816 -0.1315191257886251 0.47103149846421455
Ni 6.993900827971503 6.504969533687997 3.104648955268612 -0.6504515616991766 -0.15704298109134243 -0.133248449774906
Ni 6.759932447844756 0.21306237165078848 7.117366020439614 0.29909051721511715 -1.0823274730098522 -0.2641895915728741
Ni 2.922070125194557 2.7839702608693067 12.117293972685799 0.5459907255799242 -0.25333953623224753 -0.9368570272474576
Ni 8.245419200319866 2.951619023290061 12.139129033555362 -0.864665335574556 -0.0457628080574115 0.2658366402579938
Ni 8.893873543009846 2.107914582273024 2.9994554371573803 0.6590709279370713 0.10642593026542316 0.16033065070367872
Ni 1.9719672866832079 7.328648562529936 5.868143721409047 0.36774565648966984 0.5676376144257386 -0.5391107106306393
Ni 2.740853656805006 3.400126754048402 3.927230267240273 -0.1749949375840728 -1.2187062408836236 -1.0628958466478018
Ni 8.012839273619871 3.773080254040946 4.40867043595488 1.805144275845317 -1.5285303424661612 1.6384583723475716
Ni 8.732552028084157 6.072536179850104 4.791490341908799 1.2736016073699226 1.435540997321618 -0.6377613678260178
Ni 6.446533349532555 5.022082636958282 0.490548050454925 1.0677061235522516 0.48738551434220573 0.17161316559603346
Ni 5.075663893359779 1.6073258702924271 0.12806945312689 1.3260328285864453 0.727667960280179 -0.28483195041357395
Ni 2.6128550241213597 0.367241272136175 3.9322352225121406 0.06658977210509176 0.9232805741146035 0.9226853637327659
Ni 9.245198852374934 0.7957096130003565 7.380711838641379 -1.7569908560685419 -0.5279994312088262 0.10453848343472319
Ni 1.6746705207295787 2.1027241892616093 8.037885482481775 0.15001229949680617 -2.608296996727373 1.4027332067629776
Ni 5.210306601837211 4.159443045852925 6.931745638697829 0.6791584427155658 1.257868255795066 -1.0770880789877837
Ni 6.012860637937898 8.423961265129028 4.158485106173259 -0.6082420182106621 1.0058608081106806 1.59810953621688
P 6.926509585137481 6.833082510932018 12.471718608290736 -0.46710233861313744 -0.5943220656954603 0.1087275818154063
P 4.849290073922984 9.124114531386924 8.26050675027459 0.9180661197931994 -0.5561401553091002 -1.6975837177548183
P 6.828358041889312 5.437071797407722 8.756581590846338 3.7950099725338515 1.087881570058862 -0.9113578545350884
P 0.819628285857985 4.284730001038686 4.800655998221235 -0.5341739354506542 -0.433694195466337 0.055223953470311345
P 4.374439001973854 1.2949238492732629 5.088524326744076 -1.4643352958454907 -0.8479351673040687 0.11758683197824911
P 7.7074633860488335 7.861618990335785 5.6948796433174165 0.3202447826952291 1.0614789116956171 -0.4520269323372538
P 4.311343578131326 7.924835554410177 11.024683629105214 1.43749272173135 0.3969670152486325 0.18343098416656797
P 1.8837399239685337 1.5886330006678353 10.323662812417584 -0.28740665311928565 2.6559135701640715 0.0855349457490269
Ni 0.8279981440318676 6.01407204025654 7.495562096928068 0.0912350814575977 0.9732831312849753 1.1808053520727921
Ni 8.277195214985797 1.1560225957218337 0.9782623513321638 -0.04750755866266011 0.3504246487127191 -1.3962668823123439
Ni 6.814305774993058 3.9652832096126467 2.68207268891272 0.4151513994671431 1.11329512503596 -0.8687631597930136
Ni 8.123505534667554 8.466276479967151 13.450801917655763 -2.2509923330653683 0.33781878702325047 1.4276618516838573
Ni 5.503363459675592 2.9868987862006815 4.462447380423235 -0.9442008692070384 0.5833059170906149 0.07041428805750453
Ni 2.971225103893322 6.91067748868076 1.2200657089167155 0.4534258695673094 -0.6331513798578322 0.046845499598629
Ni 4.844705382070891 5.578656773018913 8.953522061331869 -2.2369142577057475 -0.3452366767538764 0.07483632838460015
Ni 0.35183037094716696 7.661784200156635 12.315570713113587 2.184845047814334 0.628228488634918 -1.03805101968998
Ni 7.40819110246788 8.785061659357623 11.004389844724141 0.7726064726640823 1.2080734437601257 2.0410224220680075
Ni 2.386257561179584 4.063639759407048 8.54973930417781 3.00719825288424 2.5648497241770154 2.9455352286568046
Ni 3.7419938068487033 0.9857273851588142 9.525262954421903 -0.7767107246404429 0.7182320116782598 -0.3771240123807763
Ni 3.100873107426197 4.947096833434308 10.832858071948168 2.8083758738632665 -0.664580802011707 -0.9790997379667524
Ni 4.419661582376718 8.12672972853102 6.216322180289476 -1.1648861097393743 1.9266749229626625 0.9859895231080501
Ni 8.790736613296495 5.171075803671941 2.141263556257316 0.9201721103926088 0.0956506940267901 0.004525912894811561
Ni 2.8358182801072074 1.7809291410332784 0.5526743524425393 -1.9981685601272747 0.31548027142705026 0.704198159293013
Ni 6.200068888565043 7.797545126158969 9.392205319286019 -1.178095666451113 -0.9867359143557717 -0.8329111830914108
Ni 0.5565489761663206 1.1695437092937593 11.918771224402532 -0.23503996659211132 -0.542531049166098 1.1339343985528665
Ni 3.0589492687217903 4.847705932429375 5.583726025798463 -0.3758047793487205 2.0166655904901973 -0.8308391310537305
Ni 0.998829167158902 3.5159181787518814 10.699500381776433 -0.34538785761976 -0.6364758162453749 -0.3230182316753082
Ni 6.8242579109646755 5.040738232665377 11.04152771242197 -0.04417438052436908 0.8690377536106388 -1.652998732055592
Ni 1.1734201967134155 3.9235364220163502 6.8822784909400285 -3.1951196687219943 -0.14097230078172496 -2.7796656504127677
Ni 3.2962816199026137 2.898326639749163 6.473108720859761 0.5730559572278324 -2.4310600571866585 -0.24415015642349563
Ni 2.7928973641097645 7.193894032300014 12.265749463139567 -0.4370052621174409 0.0037378697758774335 1.0443551075311368
Ni 4.502689233600603 5.47739285765977 2.5691317870498005 2.2470549456841753 -0.7582373484266038 -1.6136415704142082
P 1.8927043011264886 0.11534227399764392 6.922020873622941 0.19267332870044238 -0.7825720685172264 -0.8000735677360995
P 3.431483437142496 6.047525381209823 7.16675116557892 0.5038521445386612 1.532202906221742 2.0529844795258905
P 5.503316867278721 9.431698898569643 2.201341656478487 -1.4911873830413287 -4.726702939081866 -1.5434869637759934
P 1.8052969645967416 9.297410292308427 -0.3187329959059778 -2.024579960241268 -1.7037528226800076 2.598547373539776
P 8.590389306751765 7.3359262949211645 1.7081042928761754 0.9678023106760621 -0.3315846331880805 -0.12564518350635134
P 1.65915525257158 2.0417999711132637 2.548838002668726 1.2771960095894004 1.4703979570998031 -0.05479560768364112
P 6.691963459289535 2.5319240307566635 6.193354924175951 1.4006750386823683 -0.08059122859050637 1.0842833111846424
P 5.239976640164579 3.608301583267437 1.5357944270724597 -3.060358124736671 -1.2544384041779106 -1.8989784854886587
Ni 3.778578156871708 8.98482190170178 0.909851666854607 -0.377309388918705 0.134937921662187 -0.13134711898713508
Ni 7.537019079815828 1.0935142360798782 4.772150769815639 0.179682058647097 0.25980663201383003 1.7825679332066975
Ni 1.3483373730460249 0.11365749292679336 1.9412955118231159 -0.853974431519613 -1.748615230410337 -1.2215953895059608
Ni 8.698902999064016 3.995941006753678 8.943497241221133 0.566112950251096 1.817884349119805 -0.5332969321623396
Ni 1.271441281250346 1.7889709887331902 5.507104829144322 0.9271053471773324 2.3735051415903254 0.15914537214632593
Ni 6.512983425949786 1.590170549764574 2.817980846889165 2.929038259443046 3.0160369342217925 0.07719197310097028
Ni 1.1373204076178676 5.644855250493041 11.419137656557789 -1.4662212000142942 -0.0696241880560414 1.1521000137182997
Ni 4.700958519244891 5.786253856516749 12.782377141818992 -0.06942904132609978 0.5482841495997912 -0.17061660601071907
Ni 6.415484176257809 3.3279364943366807 8.992978366697994 1.5849395744938253 -0.18568455608743506 -0.00695560538222673
Ni 8.41775515786583 6.578529609867722 10.607753429402136 -0.039872667825221655 0.40881440150552173 -1.4893940385863318
Ni 4.320773879257989 1.8527093876525362 2.4350929160358152 -2.967608663517076 1.0744938358980463 0.9739572745338645
Ni 1.0477325469145642 7.2428533229319205 3.3230703844074876 0.3689810715586678 0.030850923942585574 -0.6609082382561263
Ni 1.0527458888178696 6.061791973131683 0.4857257373787902 -0.4576283376844313 -0.06584749462242853 -0.39879609803757127
Ni 0.28569898652453296 9.278605600931344 5.075853990339012 -0.9416927580732041 -3.2238851708904606 -0.7639678231524778
Ni 5.558258621668847 8.647027024387992 12.859503400055214 -0.3665503506299881 -0.10627912027491375 -1.6739038576393752
Ni 0.8003940125817536 3.140970524173265 0.15134142351595073 1.079216438184696 0.547692024541747 -0.6303391072200176
Ni 2.563597542149479 4.430676024996991 1.616234336574137 -0.16425029747305908 -0.834037326276054 -0.2864823415328034
Ni 5.410122755057612 1.3111100479462021 11.035526611705004 0.7278047429683595 0.719699854473038 0.9015334122454991
Ni 6.1027839638986725 6.63103924114119 6.689810890554101 0.5021649866442256 -0.9532298121785261 0.6956890933807373
Ni 5.20985931482725 1.9582318480856762 7.6496776317537085 -1.26190720175113 -1.399888024004699 0.2471724881895872
Ni 8.143046385915197 7.387876817432181 7.894243918472703 0.36030051306553434 0.009577873496422215 0.299752062058516
Ni 7.861572397938914 8.976351403950655 2.9083085948547778 1.6162898066703324 -0.6287576216655106 -0.7741208524260798
Ni 8.007378644706606 4.778898280730478 6.443922311611913 -0.845482334888202 -0.492668617118016 3.2510779292551684
Ni 2.9702466635590334 9.636053151245266 11.772171043192161 2.2657864606554075 0.15451121580842422 -1.72108102954581
P 6.958341510679657 1.1137632917599571 12.646824017906702 0.776860877065062 0.38535977002700733 -0.19641814045485526
P 4.780007179776004 3.4937308793619746 10.142829333530313 -1.9624664787399748 -0.27001982510140593 2.235932096298136
P 7.955428122195588 0.16583352263866527 9.08022356168663 -0.6478277509230842 -1.4815614299157902 -1.4383679252474517
P 6.27077751005627 5.03839929434246 4.838256994343962 0.5164762610605751 0.7274568727106375 0.41863730113321446
P 8.258418479046837 3.3314402425813703 1.0287386904061864 -1.0708816930667557 0.9166424999727955 -0.07130671796478688
P 2.4911090910977842 4.681874273486584 12.963524653461173 0.13861022830745162 1.1121142173539815 0.9704214934664643
P 1.1799804061928334 7.083274363649201 9.905982475124883 -0.1008684907823037 0.00030133329050270683 -0.8983105344328272
P 2.7412263959799734 5.756276308370033 3.585953074184357 -1.3557501531452198 0.8804002298113096 -0.23411848321910647
