# total energy = -340857.0958077005 ev
CRYSTAL
PRIMVEC
9.45332516582789 0.00000000000000 0.00000000000000
0.00000000000000 9.45332516582789 0.00000000000000
0.00000000000000 0.00000000000000 13.83589693693900
PRIMCOORD
 96 1
Ni 5.313354963416264 7.20213882541998 0.559602829859294 -0.5152812123112093 -0.7196162936202961 -0.7128540351957982
Ni 0.2700711071275818 3.823038219031171 3.959253074934715 2.816854086537607 -0.4322623481158168 0.40076890549322586
Ni 4.799216956585486 1.7578458523210148 7.293939122743477 -0.19930754618750837 1.2869399763500418 -1.0026638984399376
Ni 4.502798486322632 2.249863077788892 13.236512149367123 0.6397771127044659 1.4211014248575204 -0.33234310862065986
Ni 1.4491475124041406 4.952143401075925 1.689210928813666 -0.29877555707785963 -1.2836543636202344 0.438279243733858
Ni 8.325808345377697 4.753850448140804 11.398980436182677 -2.68754662368832 -1.243646198658413 1.3971888799059808
Ni 7.718422737109466 3.558458548610302 4.754691794098624 -0.859040533188611 -0.13946846254268883 1.1566338970329113
Ni 5.559727529176899 9.084324266316301 12.099298850153582 0.25319838266869293 0.09441425051652771 0.05150253875466614
Ni 4.493732747293991 1.5733074877974411 2.011835907663798 0.4032595331255636 0.029416762599220304 -0.9718926786953519
Ni 5.814872780879746 8.172985887466314 9.811173437934633 1.0457823268959667 -0.43683299820563476 -1.4426056174778834
Ni 1.856907248860256 6.252117439161025 13.18765736386137 0.6630936759432193 0.21132771057683605 0.44619721302935417
Ni 0.3658436917710313 2.2878654457713097 11.092653935600826 0.9299793262910176 1.285067184807361 -0.6464362698921964
Ni 2.9552040435282194 8.489577754066103 6.987612622161624 -0.061194312121133326 0.1389861235896316 -0.29348936897825584
Ni 2.088513720394888 2.0203741511368625 2.8726368090923913 -0.5671689023194361 0.0863363586043997 0.23536598247296242
Ni -0.098262590545581 2.567570436782195 0.6102376765319859 2.208636750917293 0.33417553384370835 -0.3163307923528036
Ni 4.655791104090652 8.746348977732376 2.170990202907176 -1.0981253592740572 -0.3959725125458471 -1.3363522082345825
Ni 8.20352958173278 4.401014532077188 2.301283495799728 -0.49169879700557895 1.5648880551595887 -0.6851863940772006
Ni 0.1548123829015063 7.143584928085878 11.544520052229968 -0.3258384747329227 -0.35932143698171665 3.3139046347734027
Ni 7.388738014873944 6.4158017679211135 7.522272853035444 -0.11585879354354886 0.08640912082386408 0.3962748742776143
Ni 2.68658780317489 5.7987548611260085 10.963938402712321 2.4329539317752618 0.33466018678961074 1.081017495949177
Ni 0.22506571571198683 7.607478510581693 9.522099256150769 -1.9008669607606232 0.7593956304007631 -2.3486618572944002
Ni 0.6841796969013567 5.207704599094996 10.41796065070702 0.6484108771200638 -1.1115143789864534 -1.0225413540901551
Ni 7.536219343951976 2.2038348365683977 6.830062556233325 -1.468432348733 -0.16904386220696047 -0.4706422334455959
Ni 7.3474553429885665 1.6362477281026484 12.809951639417617 -1.2858297740049984 -0.20901011818725293 -0.05845351615120256
P 6.217272481851773 1.6701000862481798 5.149361510916617 0.4309264029132127 -0.6319167361197827 -0.8075415939783704
P 6.143990303593142 3.5911292410847384 12.172767258921981 1.3817265226043236 -1.4265627050824077 2.5764214881750145
P 3.0744104764282896 8.77682649872126 4.272234716576174 -0.532577794608128 -1.050090210242701 -0.6963591228645685
P 0.2953540258263318 8.154277756561537 7.365484725131867 -0.08344283910668854 -0.11385847528406842 -0.0305012539126507
P 8.378671340839805 6.829403659455123 1.538911563443206 0.6322442946625305 -0.30306338581993614 -1.6218709003025358
P 9.276567091015416 3.659212090390551 6.3375745551620835 -0.07479519073401958 -0.32064304657491227 0.3187118909904704
P 5.591745942200892 4.030557617526202 6.583797758381893 0.10538129105099273 0.2742210076669471 0.0742010087934464
P 4.207107922113172 7.26696027747357 8.277685247255485 0.4036079176039178 0.030289137901844614 0.4612785328425088
Ni 1.1535703880991062 7.174478395390986 1.9529785585853583 -1.1403444158442684 -0.39561692897864126 -0.008901930475320152
Ni 0.9107834686508408 8.623937867532296 13.414483288757019 -0.19074602977074245 0.531671994964407 0.16827304547920696
Ni 7.756330571838196 8.09788867073688 13.490830235100203 -0.40406557396662673 -0.3650850789383713 0.10263998086042969
Ni 1.441877905195564 6.437015030048612 6.552777616516842 0.5508138580001805 0.04165109988188311 -0.6599844408902763
Ni 3.2259756420656265 3.2659821150262207 11.08752077992559 -0.9798196468519124 -0.12812398406414707 0.2484253867600818
Ni 4.781198918432629 6.885887278533466 5.942573026623647 -2.1976051756934796 -0.3486906967407479 1.9347502437716293
Ni 4.1756283486351995 3.266123914906752 8.879394133639774 -0.8822876766420095 -0.2982659644312928 0.5746523551806749
Ni 3.024307851973859 6.3852769803053855 3.6890789265606134 -0.7601021695494845 0.7487232382885814 0.8145751037863842
Ni 6.604329435750304 3.3738351041584096 8.934405869958203 -3.286728588579243 0.5295886300728169 0.15592223722333792
Ni 1.1872620397133686 8.407239290104199 5.271712119834337 -0.9066038847898709 -0.16284853202952598 -0.6146646339075543
Ni 9.084579506101258 5.418655554698886 13.617497232381297 -0.07365644914388605 -0.061947388237073964 1.3898082711711937
Ni 8.559040788875755 -0.00533451150559155 1.5186975178071853 0.127453954580316 -0.4037398151960917 -2.1153342454077055
Ni 3.406430170029896 5.006169155558391 6.758268331387736 0.5840445950288522 0.0761020824709012 0.44407013938402234
Ni 5.201380324423295 8.416957308583285 4.221788936410857 0.6164908884830157 -0.30860257047061046 0.8229949524189633
Ni 6.114136702078596 5.406933431241624 4.676394626731866 0.07450594162837491 -0.12622882392396323 -0.47730601861901667
Ni 8.534320343036446 9.31000350284472 11.1146253544229 -0.15236485888938275 -0.722073239801221 1.0186651589642004
Ni 4.08647403708242 4.860181451888623 12.979136858209788 0.3045685096105529 -0.31912558148912135 0.43095777037178035
Ni 2.952774538908448 0.9383559827539046 8.818945789901774 -0.23570768208309728 0.7951267652537855 -1.0628822198010468
Ni 2.025081907170505 3.317446018333753 6.281524843718165 -1.0663699212393312 -0.7587615963611901 -0.6057539616814859
Ni 1.377415679505986 2.6705644166748406 8.629130579157357 0.5260417932618231 -0.9665440127889291 0.08097406585122184
Ni 0.9735034464749562 1.296580294277715 5.059745877085841 1.4575005323118446 2.0751910975299164 2.6227933905713345
Ni 5.697660999632484 9.362677431799455 6.366422322857392 0.2160045472272151 -1.0796645814657084 0.6353591861424284
Ni 4.775630909790428 6.7494474334861465 11.608732710129809 0.4553580535930158 1.174820338133951 0.411156419375137
Ni 7.442839395959361 7.710472490474339 3.1875412571138573 0.05112664347248615 -0.9539083263027895 1.2877401036538338
P 0.8471304476128289 5.881669977935407 3.8215994229100456 0.2688260619036209 0.7373957290909043 -0.04821821157643953
P 5.943022059578662 0.08138556876473288 0.32955143034782286 1.8800708499508783 0.7153613749986841 1.4875269034706058
P 4.6744614216939535 5.932481601792495 2.5353865905642503 1.0577351283824685 0.2337382170615523 -0.429355458881667
P 1.1913175162965668 4.312427420046533 12.36866946587134 0.09773534446996071 -0.6785030685197542 -0.13516880672607043
P 2.441642689544937 1.7198907509654415 0.5731683517634654 0.21671108637593647 0.840135982974624 0.8335007370462935
P 2.3741081331105116 4.42853316222565 8.914911222382745 0.9776398655917743 1.6912269222988552 0.5266624575649576
P 8.07860388698461 5.1720088425025565 9.340877118166556 -2.3720954057269923 -0.10802284243889784 -0.01905855929334782
P 8.563143532085798 2.2842353688297057 2.7533434055989288 0.30470246408525586 -0.7590385041716605 0.510303813701276
Ni 8.65159829756129 3.100605641025125 8.638954474880572 2.510175729672903 -0.7962606217479126 0.3452089088397345
Ni 6.782524618951439 5.6872907017029535 12.982679019225461 -0.9608292217923387 0.07839139272571016 -0.30302199105903943
Ni 7.203169237885175 2.5420180983104355 1.165111007709289 -2.738242350270974 -0.8729018645517354 0.2681668310530672
Ni 0.005702245862436333 0.41938070933193267 3.4487215117321197 -0.6931529572224451 -0.9056050112117112 -0.8778134429207398
Ni 7.556430553590386 1.7397805475413135 10.410281714509976 -0.8627303233353723 0.5475364728004893 -1.0916304955783331
Ni 7.665767714805471 8.838188033689885 8.212379784943012 0.7651574725852048 -0.196945473713235 -0.18465405794039166
Ni 5.202467456840703 5.260359621398992 8.319220322928206 1.019881547869805 1.739326091798927 0.07894366568475436
Ni 5.929116217961216 3.044632501516694 3.426280262639219 -1.297030270706508 -0.5247253884432448 -0.225909722156069
Ni 0.5747905423967447 0.41395260990519034 9.420212260658804 0.7419190708825545 0.7581211345637138 0.047961872591259336
Ni 3.5730544829796687 3.646960580712638 2.1393754468764303 -0.04518379562548992 1.8396068283985607 0.4364982405740353
Ni 0.33151772202452506 5.178021157437088 8.240881560929825 0.4041776740644587 -0.41942920090689056 -3.8757768074702734
Ni 7.863937774510796 9.26387127504517 5.2799308409099375 0.8262877642376222 0.7483738253689627 -0.005660026499254768
Ni 8.753136465347145 6.361161547289678 5.462993541343447 -0.15985756772200213 -0.10222654747209489 -0.9100599616592715
Ni 2.455557984487752 0.7918445648587069 11.762353028702316 -0.18595786435347975 1.0353385058548232 0.1424555701954708
Ni 1.9138446275563006 9.265941553300928 1.8243046203284747 1.0786667363288132 1.3859233342944905 0.10117316650691609
Ni 3.7038885060833135 8.78712117004784 10.112158809683134 -1.6639727145685923 -2.28970080537916 0.8667576993272105
Ni 6.7621148894802845 0.36616605016610604 2.934746102097685 -0.7232595467998383 2.3192692630648963 0.2923107752891224
Ni 3.9958450067721127 1.2566116346185956 4.383032416560732 0.7002126922827038 0.7021502756250488 0.7512804574927964
Ni 5.73132429127064 4.494791519735292 1.5283966296355336 0.7049512354089537 0.16213685067448205 -1.2274770450977182
Ni 3.863054145317134 0.15112085934500533 13.787720426298959 -1.5076974648812098 -1.2647935221599895 -0.12521529505778434
Ni -0.07105402946921453 0.888536012728 7.280795219150752 0.9555502327815868 -0.04171949122597331 -0.6307522834980362
Ni 2.0709305352089937 6.63638566207577 8.905157281267257 2.5764991354904856 0.1764059589989865 -1.4491467610305107
Ni 5.235147602640508 4.642027062353737 10.79579115904564 -1.004766289494921 0.7521788009373497 -2.17137683812457
Ni 4.995184391479891 1.199371749510751 10.4096029657485 -0.3794868561859981 1.7633221976032083 0.23771288543858413
P 2.974762973716185 7.709763491071681 0.46821091619172817 0.07849449396247772 -0.41828737399296356 1.2717997782744934
P 6.178854167553131 0.818583295664246 8.695972206842251 0.5392186969634133 0.40147698730384407 0.13243778094815256
P 7.1008275374429735 7.662222717792185 11.438855507920648 0.36367508596472203 -1.3665508433051499 0.4720044039004452
P 6.709015560883957 7.47495234223704 5.566679504653086 1.7694234254049397 -0.8420871931637239 -0.15853859180026245
P 3.415391922479481 3.456636781063383 4.459240399020994 -0.43075696721488393 0.007909741765379926 -1.0208248856196807
P 2.7229452925431428 1.1928584083316747 6.471159495948038 -0.04013826278178249 0.07142987380621246 0.7173722347811259
P 2.298925836452759 8.166652159469244 11.724525547239221 -0.34936304021742415 -1.9559852418910058 -0.6848238685314594
P -0.009867381019912207 1.12890666221201 12.767697165684332 0.4592509608895187 -1.3287720818944793 0.9044539283264036
