# total energy = -340857.03060623154 ev
CRYSTAL
PRIMVEC
9.35241895287558 0.00000000000000 0.00000000000000

0.00000000000000 9.35241895287558 0.00000000000000

0.00000000000000 0.00000000000000 13.68821049452676

PRIMCOORD
 96 1
Ni 1.3184572239216936 2.820979399955484 10.893186640606935 3.492302170281121 1.52566870464765 0.2945224382284605
Ni 0.7002361621628646 2.2237900573323537 8.214130194175208 0.15170485670788067 -0.10948348614482435 0.25293458748434505
Ni 8.223142184818734 2.8165650583368214 6.540541992757668 0.3293518872028199 -1.2123319619261639 1.3140723137904595
Ni 3.145190346041453 7.954634244412337 5.034045038783344 1.406948530395906 -1.065426069268823 -1.3503940310396292
Ni 3.2173723134415426 8.60859276844497 0.8316956296634009 -1.1800458481989484 -0.8014365095218972 -1.2767661211408334
Ni 5.5598726211249385 0.9202172077456228 7.532512827127672 1.643211313651525 -0.9269127715505521 -1.37237387774483
Ni 5.2340437066067045 2.5801359140152007 9.354810097065796 -2.1268921254486335 -1.7743691994459894 3.0699812496487326
Ni 5.135207345958331 0.12699649330471843 13.004196816275524 -0.31270527978507434 -0.0017588916726356807 -1.456734857790414
Ni 1.0375573287595155 1.6131986987356124 0.25329716665937635 0.8897078803654805 -4.612278563991998 -0.3908601310199462
Ni 7.903364285188795 0.79126044748482 8.442573308182896 -1.3176538604941308 1.6550916100288786 1.8466130845130648
Ni 6.760844761543143 6.327865186166809 6.72468924615418 -1.1656322438767797 1.698261203437817 -0.30873241118025535
Ni 7.696460726651326 2.919600654974135 4.256061284861775 -0.4496095811450128 0.9731856864751627 -1.8483002424075008
Ni 6.46202563218317 4.807030974350512 11.552849204794702 -0.296382888475967 0.15395868573906388 0.18665823285461403
Ni 8.390559831674008 8.156066638019894 10.204026547891068 -1.4545373359184626 0.5241654021747166 2.254736630599149
Ni 1.912953069963945 2.222920282394778 4.4297918143284845 -0.3357081684381508 -0.33593442551634406 -2.0904629360873224
Ni 6.44647255991233 1.4801605429612827 11.292061686011625 0.9267780457449005 0.7786213113995945 0.5206296211073163
Ni 1.761163314728981 6.8459237143079275 2.5145380493683716 2.1077901145118605 -0.6210918775901367 -1.1346689627260458
Ni 3.9965877809037433 3.6335923545368507 1.6883444476165372 0.4455994315443551 -1.1970662940163448 0.2877573515904851
Ni 1.5632287257090927 0.37407523678136356 11.353493983376772 -1.1179452222134618 0.8127264806134196 0.5678037076899576
Ni 3.910190137104569 5.569262449483281 11.834963043902013 -0.8075354233307834 -1.6390921492768284 0.051526450014066104
Ni 1.8915266787597984 3.1214539074224548 1.891259199585447 -1.3867774547646698 -0.6447946205237153 1.4104809690291966
Ni 0.30049601802994286 5.001149776547488 1.7700359543341202 0.7730265909206364 2.8920526833576323 1.4081996291941876
Ni 9.149452493336728 5.976513521061008 6.460616222687551 0.42078777181731397 -2.2233036089008484 -2.0522738266121103
Ni 4.299568736577921 3.274496886761023 5.52304186110702 -1.6881629386615506 0.17329055329845638 -0.5342721515914154
P 3.9966158381597943 2.1211566146984353 3.334626392203546 -0.13202203356697262 -0.14253553150378678 0.753440955479225
P 6.872624869649631 8.711057867542584 11.736449341698224 -0.38524869837043973 2.166320249537269 -0.5887934225677472
P 0.6884642727658067 8.647957098684278 1.0308825075450243 2.549296606933764 0.4427483352488052 -0.21019025453828316
P 1.4487364161843586 -0.16407135145027882 4.690128546531013 0.0173199793356863 0.5062733523856443 -2.6711674109993484
P 6.112497688720675 8.101813257236282 8.039920820871899 0.22348337210276348 -0.8023603068877473 -0.32825582592516367
P 4.862135425234333 5.366530069678701 1.1711014503846282 0.6863295065427083 1.5130039646957878 -0.1272433812314067
P 4.070602822365821 3.712994389160686 10.770322045876636 -0.5663785452076567 0.5084685602647501 -0.6212240322926268
P 3.785354052515764 1.9040308625397826 7.692801125220431 -1.7614440067438888 0.9001331894638626 -1.592073100214813
Ni 8.256520967100531 0.4194718770715987 0.8061289227080206 -0.8315366713413873 0.6944703904822879 0.21742122506908362
Ni 2.477249956076825 0.2756831160204614 2.6174866685119276 -1.775098878523162 0.9372473207073407 1.5562023544601327
Ni 1.6867087095887745 3.5615132637422806 13.263437445008334 0.6682387104792685 1.448929245703066 -1.8425540839523429
Ni 5.540494409612501 6.796645820263995 4.276949911991614 -1.257770553874937 1.479805109346316 2.386417735886935
Ni 1.4572190599303916 7.534205614909404 6.552532728751923 0.4077396803841042 -0.7519582002861115 0.4377621948881235
Ni 4.114643361946932 7.071064489278433 7.19545446349603 1.315460709497554 -0.420015926648296 -1.6383724975019849
Ni 2.7142963600315633 8.899640037878862 8.299093176948316 0.22495044356659324 0.5496612324529759 -2.506181520911845
Ni 7.7531083266179435 4.760203414001685 8.012899812811217 1.0033598960656978 0.9595516406314957 0.4431301440682562
Ni 4.632299736084657 9.221653165574184 3.4116491715142714 0.7070256014394791 1.1261041038751705 0.5738931084171471
Ni 6.443835177843552 1.328006043397658 2.2830020905020154 0.5633603272066233 0.1557116638744286 0.3439074164194916
Ni 2.9328904419235426 1.3575129243444424 9.59210901632499 -0.6100700725583365 3.5819691359206502 -0.6548157522051432
Ni 3.774682942797767 7.312871274343129 9.398434454015486 2.6831698347768627 0.32926035593027814 4.6583725301365835
Ni 4.859002364975325 7.111205070268481 -0.15613021274602693 0.8449606580567771 -0.8483748259446486 2.162894511685172
Ni 6.698445424086108 6.14669948384663 2.0664814398321925 -0.628190179197815 0.851050830114915 0.05974292438658743
Ni 7.581772016334237 6.9301609493911895 12.430332405849313 0.3885875329356856 -1.5906602790276863 -0.8924905853169403
Ni 1.3032314863047791 7.060926467425402 10.563588701359208 -0.2777735009048958 0.491822724177953 -0.44669060772600494
Ni 8.178418918673719 3.841262811406375 10.10770318214298 -2.7195735702168777 -1.8288912417532697 -0.19035059410453667
Ni 2.9087050872077307 3.7825576793293654 8.561113344513895 -1.9019236841599112 -1.122410199963351 1.4930326637801834
Ni 8.043706679955022 9.000711626592619 6.546140350581676 -0.3665814609782396 -0.7650484578111664 -0.9395080917170593
Ni 7.967989498292529 7.268335056571785 4.695685753712812 1.2268638369937517 -1.696245715669685 1.4896316085184347
Ni 2.6871649934304154 5.203760574909181 6.672071603398332 -0.9761807645477445 0.2054054315551301 0.9710601554917275
Ni 6.356240424452876 3.8231004143228073 2.2179691119436757 0.5717099847228992 -0.7061565685709644 -0.07247348457937841
Ni 8.946710761113465 7.335045859041965 8.20705415419919 -0.5658627819135028 -1.4399830922533716 -0.4322939726847007
Ni 5.647046515674851 5.95197277443522 9.05330027685055 1.1164048743095354 0.7383434377161542 0.8618250379122835
P 1.0446090524469562 0.2201765111332456 6.668224953593763 -1.4233028033842132 2.1693397530898832 2.8862946978279322
P 6.70995825148563 3.0360102103290085 13.855890722810084 0.9942990714150102 -0.5092933701588906 -0.6372021528884382
P 6.610326935249149 3.0504971068699183 8.098027398153157 3.4840720690618445 -0.6676761531075792 -2.3723900541492755
P 1.4499054685198098 6.055952965359578 12.511626434772843 1.3681935211148952 0.7149016617534462 1.2994468505678007
P 3.4510144369954476 9.222158196183099 10.769541118916553 1.9527999021844886 -3.7685821173596263 1.1808022667489986
P 3.0733637705513406 1.6930215922002099 13.081315925498691 -0.47983264169561235 -0.2663596026409993 0.12951495087440276
P 6.754569288606441 5.215133116028449 3.9646399186805374 1.8956090547957931 -2.069451366832662 0.9819042972950831
P 9.059351291738844 1.9324996250126867 10.281256015654701 -2.2624789935487293 -3.3507218036017523 -1.566268480446883
Ni 5.447175975987457 9.328607425639929 9.763718417234259 -0.02905192306063384 -0.6308726111259845 0.3299833501392317
Ni 2.862251623606248 7.623408984313662 12.39800015921821 -0.08002944254976539 1.3435862640891765 -0.8068895622166685
Ni 4.321836845463593 1.2679822202862592 1.186398266383538 -0.2749558289504426 0.7646609925647605 0.47240421044202513
Ni 8.40827331266076 0.4390156263947352 4.1383975701614295 -1.2450811313327268 1.2291284646582121 1.7332562314557636
Ni 2.7071698169946536 4.6196365611870505 3.7763579609840012 -0.6570369282261781 0.2852075885854378 0.011874382840082775
Ni 0.07526265411447021 8.44932107826312 12.654175065106532 0.1871356867116648 -0.43208391355642356 -0.1283325005305274
Ni 6.374103544138568 4.08021710877257 5.867492376466185 0.7438342856273964 0.8773115635836567 -0.27854637451517833
Ni 0.6731983197485527 4.88141076014125 9.391850351262226 2.2389904235084863 0.541889301817041 -2.5206761149835946
Ni 9.108498251921207 3.2074213399621834 0.8969736415912508 -3.8442841361786315 -1.4973351478102792 0.5323404817863413
Ni 0.5596290939478908 9.204070618449 8.87854285181238 1.3444851217543619 1.571744673070106 0.9904933245156748
Ni 4.878137413601987 4.2375996103803315 7.768114282395793 0.5678795552332155 1.4941613780679879 -1.8904863888572476
Ni 0.14482500904128112 8.248178609634753 3.065693851988913 -0.1815085703328745 -0.1647352075292776 0.13016698263610485
Ni 5.292720781427664 7.244561208278052 11.360680381893259 0.8765911404778646 1.0984673159945082 -1.9288904425567428
Ni 4.309977978572777 7.169311647549739 2.416996063465809 -0.6923631143312979 -0.8015318974491809 -1.5053701022996138
Ni 6.921285504060444 8.243418228524797 3.0852675290518374 -0.788567623979029 2.103898235656622 -2.419281062273859
Ni 8.664351888636643 2.7535297564093004 12.241982175496386 -1.2267671635148873 -0.792902246798641 1.4366871951109192
Ni 6.091557623288075 1.623598588311785 5.0911378138793 -0.9182178148797154 0.7243134419856494 -0.15399648095553478
Ni 0.33308826190044977 3.6781472771455612 4.933641212763598 1.0697900026644735 2.466982225004564 0.15508251493086195
Ni 4.776981653120079 3.0508244415238446 12.682304334781222 0.25727846627533757 -0.4913573545057603 0.7297495253995562
Ni 3.4141939646380814 0.9939002383444315 5.475311792355224 1.4270964660986907 -0.9209100169998978 1.5749001879799522
Ni 8.451565658747185 7.223695962194922 0.8802010139240675 0.05789944341994545 0.1323552485366753 0.8253703946296752
Ni 9.499625753688393 4.848929810053079 11.652294407899378 -1.1869670007988138 0.3354286895245191 0.9004823452731654
Ni 2.7631533952347334 5.376022774642563 0.4338147463647805 0.22818694822601993 1.259382378446747 0.7862065799460202
Ni 7.598512845777896 5.118185943954164 0.26701061817515137 0.27494785853064263 -1.654084766030919 -1.1274457055047291
P 6.001119734617582 8.97388888980803 5.14756095579751 0.735757679266849 -2.070169218835293 0.10961821195047573
P 1.0188805486483496 4.040291633412245 7.075093511247332 -2.118916306332009 -1.001575036251133 0.22675432954455144
P 3.927005785897697 5.72656077932289 5.2022585764685925 1.742863158417908 0.441622192064162 -1.650437913306951
P 8.313505254139757 6.0325438613945055 10.029734873303342 -1.058527285266461 0.41706841398419786 0.1498112392295936
P 6.137852095771937 8.613175453599938 1.0411598804364415 0.37515866112428936 0.4874233095586766 1.0294301107901884
P 2.1851926254251017 6.6653004522714 8.469265111105914 -2.830100667134868 -1.6790766600895664 -1.3055619623266033
P -0.17148875470824865 1.9765682218498495 2.991749888908832 0.9586525258559941 1.7348122630889735 -1.2192412874514873
P 0.686378683399362 6.152264172963378 4.185881670301845 -0.8737585561250759 -0.918348941140941 0.6043082303738947
