# total energy = -381173.337548158 ev
CRYSTAL
PRIMVEC
9.21778706734343 0.00000000000000 0.00000000000000

0.00000000000000 9.21778706734343 0.00000000000000

0.00000000000000 0.00000000000000 13.49116312124869

PRIMCOORD
 96 1
Ni 4.068832580013084 5.191771046419527 13.041867061668642 1.022037674980859 0.2922238720022709 -0.19668322119078385
Ni 5.965078851696327 6.814949595843225 12.135557651242689 0.9773657859947813 -0.9111575655988243 -1.3094463849826738
Ni 4.607556923779517 5.469521404478012 9.058263983868498 0.8314569671433873 1.4000649159021954 0.6108892260255221
Ni 1.7515546690533454 7.833109477354844 7.535772243687753 -1.7580483507987787 0.05575180094932334 -1.256855241149519
Ni 1.8136088111763287 5.009590704037079 13.453603484528498 -1.4857065624324155 0.3450392160310896 -0.9659071505358784
Ni 7.285360920109743 8.42876287366904 4.5514058524550425 0.19957314114406918 -0.020331255358184343 -0.8429084035134387
Ni 3.8649627848060115 7.9738374315722504 11.257619667441858 -0.1558042235882349 -0.3329172359565751 0.10364322531396344
Ni 1.043269133315393 3.8251880338760245 2.2337988664991966 -0.6957050342203372 -0.907985852739062 -0.8307298591693757
Ni 2.9697589641646345 0.7221979416657925 3.964917701760704 -0.07743828478382148 -0.24882390775008117 -0.2887541682861156
Ni 7.896454109658638 3.5012934340665502 10.488083780607827 -0.6518872657044386 -0.199998658717262 -0.6086030010945067
Ni 6.807188219184349 4.684377960685777 2.7841173427615127 -0.5218372682621722 1.241706815543855 -1.0690161006129266
Ni 7.02426710317072 -0.05202242452458104 0.4410526726530741 -0.6445213122576706 0.08919105444437542 -0.6842929357286538
Ni 0.5655591652976903 5.428953923865527 6.098558859991081 -0.8131447990977609 -0.05183678216563331 1.8975276119747453
Ni 3.1010571222751175 2.318798845815694 7.510328386215669 1.1707124866131644 -0.8003885278733571 1.8523484443349454
Ni 7.319844661298405 8.402224864879368 10.765759474591567 -1.3968605500322846 -0.3148830041626835 1.3960563089634344
Ni 2.3622238403999742 3.3685849545441813 5.786575484550489 -0.49949361045964946 2.6449691553374257 -1.0548799183218607
Ni 0.38451076715955385 7.724957182415902 5.424243634705569 -0.028348726346022146 -0.10836865581409078 -0.17315557038248888
Ni 6.8824330145126185 3.969013164527377 13.025232643237992 -0.7049152399646956 -0.32989027620479316 -0.5419139844073894
Ni 1.0653088620462385 1.3374640233922093 2.3540458197684373 -0.2880905665601877 0.7033903186797371 -0.26946960902489075
Ni 8.185818879344419 5.697975037629529 11.796943167363667 -0.7463197710534115 1.442641098701509 1.2376473007625008
Ni 3.011580063809907 2.9793085915026336 3.461939936002728 0.5167207729712133 -0.11064433922214492 -0.8009438861561948
Ni 8.393302047057762 6.717711160719139 3.23814865951874 0.14139499014144036 -0.4399417190379455 0.7806905352237974
Ni 5.182332032525597 3.415328352450546 1.3825611245393397 -0.012205798037572527 1.2436996776041678 0.6494344332885719
Ni 4.79417102171175 8.005583490020193 0.02555907980965649 -1.107918691215395 -0.4258939826956278 2.810902239829546
P 3.3727513942707987 0.360312232711952 12.816388930162594 -0.5022367204224254 1.0911468710736951 0.1930307120398611
Ni 8.127424198662736 1.5421818550038153 12.551490010747582 -0.779506027997393 0.13954868096132098 -2.7803588198250506
P -0.02051879387489013 6.961973298585586 0.15302632564053278 -0.08920725239429153 -0.9910509967913577 0.3596430819871935
Ni 8.189367727341649 2.492747704401971 1.055374852990098 -0.25642254603294545 -0.6527352155270307 1.6761528015745522
P 0.4813666641228997 3.16420818105179 13.160589392967124 0.35823308901354434 -0.09506448250601693 -0.5257859684972751
P 7.3060456341507365 0.7167972402590997 2.583126262436348 -0.5741198797159726 -0.4759083669405417 0.24986391897882126
P 8.319329306336293 4.6931993828503185 4.3953404224387 0.5753529807921252 -0.24293839550358162 0.05305214262997315
Ni 7.668442930283399 2.285476545789761 8.372615489459367 1.0049012724108888 -1.422214455416041 0.2685494112034665
Ni 6.834546611017536 4.199061474830896 7.712776798666449 1.7931415949574858 0.9480302702554576 -0.5756702549222279
Ni 2.8514025790102817 0.1616007111133193 6.171937053450677 -0.1859169838132153 0.23395547527868094 0.8144110674046942
Ni 2.699410489071799 7.047007383714006 9.294790554879688 0.9607433469467518 -0.25642974512179706 2.4411500944328086
Ni 0.7978639898602267 2.671655732397363 4.203212244319603 -0.32533608117520746 2.2517744626470315 0.1025196532324815
Ni 2.9464103096789667 0.3607823398492474 1.6705164945919366 0.8101553774521338 -0.46555993382668204 -1.3470096879484286
Ni 5.532755423337737 0.43864683024456264 12.097701121788607 0.5394557526748838 1.1143734457018035 -1.5603027497817514
Ni 7.405385724712143 7.844235346270834 8.60104792170077 1.1537151807242196 0.22771977878161423 -1.714106912220822
Ni 5.660163675331776 3.202784619671024 9.327088758769278 -1.4903494605210656 -1.9680758545069525 -1.3903713427635152
Ni 5.859885466386244 0.5712751150199812 9.187401492704826 1.1968773179339904 -0.3822237955011869 -0.3258420742773485
Ni 5.659287985566225 6.574955293360458 3.972634833041952 -0.1523687155441247 -0.2888364435872767 0.05198179238392983
Ni 6.564778856506065 1.3232778491902972 5.412492799830586 -0.180523837822102 -0.1319112190207212 0.5391963283659101
Ni 1.4333658794004558 5.266720872563611 4.111876879994026 -0.21066770839533397 -0.5005048253329832 -0.7656521528334362
Ni 1.1154812767187574 0.8952406917893998 13.303811680348298 0.7895752393079369 0.6558935586503543 0.5137213240232573
Ni 2.8798210163491342 4.057808106754159 9.175272728562605 -1.0090636313186945 -1.072173672405302 1.3935654242207804
Ni 7.095400765494407 6.89154018807434 1.2022593671486723 -0.2162084357079051 -0.6134875828803177 -0.4723769567485155
Ni 2.054681594738773 0.37620369750993526 10.97375238592633 -1.0665869223461437 -0.43563409280152715 -0.042604207823771785
Ni 2.4194109909839 2.780093778733485 11.653248007509095 -0.5176944497383923 0.35524572425044626 -0.5383208677394923
Ni 4.703726095610931 2.820430814670825 12.677308194483123 -1.0971786790900717 -0.5251241665435601 -0.23922803653152996
Ni 8.411461087459172 2.855753374477015 6.1052906098414095 -0.11196897157083942 -0.058843038280137365 -0.6050271108177903
Ni 1.1702718026811771 6.116001678342138 2.045273921320663 -0.4317836087071854 0.8106343739710813 -1.819702633275466
Ni 0.7732939785962916 3.5906414435136798 7.778316186056323 0.3363663708474401 -0.7573901699349601 -0.26726154562997845
Ni 6.297315548746042 3.8627320803506096 5.181834272027284 0.9020715441371561 0.5987199376528399 -0.5748616429780035
Ni 8.910032751028378 8.814601002157428 1.5871139577635422 0.8484398748546291 -0.7121233276773606 -0.006355509904382602
Ni 6.312709253045712 8.169033289206876 6.668817253104323 -0.3793732134262692 0.13129981068896743 -0.5144787710145721
P 5.312459531686344 7.572725430015268 9.718372755820686 0.4106013182026155 0.09919701661715173 -0.2558219363344691
Ni 7.2277405335365446 6.025372396501204 5.883603754130844 0.1502601538415541 0.795947718493184 -0.28229478581401707
P 6.237289319764332 2.42786370166821 11.282011775416581 0.39726140656059966 -1.319541821545463 0.36681157471117476
Ni 3.576971465384092 0.1439569450055353 8.604003144214827 -1.2941259525755195 0.28957460730488194 -0.44927636617531014
P 5.140639981898405 1.4377719815892238 7.274489462115112 0.14350483739559156 -0.008827111373326733 0.015984548353714406
P 2.855043604877569 5.432263109400606 11.090383201353198 1.7848068498395453 -2.192103014928328 -0.3708134967817162
P 5.088301387279525 5.988777782088214 1.5804494977583554 0.48133545149338397 -0.5807957490742514 0.12399504949743807
Ni 5.333936975409837 1.8089169575903812 3.309058329618186 -0.05791666981112606 -0.34743676972898874 -0.4583086515809075
Ni 8.537809293947545 4.8043935475011725 0.8588000144194075 0.7571212325442896 1.4721992719746002 -0.1109490149467573
Ni 3.146224278603492 4.79423554622079 1.9559489563410482 1.2508969666835552 0.5207347792266129 -0.11871606048668587
Ni 3.475142572331122 7.28556371142387 2.1304702395003843 -0.2378787215924871 -0.5153100086666158 0.6294011687867805
Ni 5.601944132603202 8.440119187260173 2.4387572823516535 0.1375131385885309 0.7505893449630427 0.2580893922124071
Ni 2.164539180273787 7.751956080555862 13.42103612125834 0.13200146474168237 0.21263177410024023 1.3778161318063238
Ni 4.814118312792281 4.359331137500579 7.0386099797517305 -1.7741722529438346 -2.5650348436046277 -0.18303606272099446
Ni 6.87831266372103 5.9401816089936865 9.747999645035998 0.6688305784269966 -1.0729833127907908 0.12317229648582656
Ni 9.289962278046055 0.5982417509054219 4.4025035647209005 -1.1371243662450738 -1.0498297574924629 0.29041407248704176
Ni 1.3682514319915504 8.105006540664652 3.0083271067755635 -0.01152702680299305 1.5174702279972576 0.6668402874698451
Ni 1.479961792714728 6.845580302063468 11.4826120215727 -2.0551488341670607 0.4856785589534281 -1.2336001272763206
Ni 2.8952055028617996 5.6127565967609945 7.3718818342821955 -1.5144671795048756 -0.20391470594221656 -1.466818210168345
Ni 8.862644108031608 0.6371518734142657 9.797849437163315 -1.2052436876208146 -0.08961631490725211 1.290085978178191
Ni 8.14339862354377 0.3311370150599239 6.965676083625813 1.3848493845040213 0.18292730505727203 -0.30013284243670246
Ni 4.814394846402455 8.664286549454 4.910594436930988 -0.10011515755604694 0.29799651281999 -0.37813214193031647
Ni 1.2121389912614788 0.8799935503031214 8.276302520150663 1.166532644203862 0.5416185646541575 -1.8768184044518514
Ni 5.545586582849797 4.490297455278854 11.067771969827994 -0.74582509080518 1.9217566597254383 1.9050352332057
Ni 3.9325936880674974 1.4752238501937514 10.253324259365648 0.9517167179681093 2.0377270391461875 1.7447326075264789
Ni 4.519324266560089 2.5455840595191637 5.43042231733555 -1.2427874502025436 -1.3208050045286026 -0.04359871052655717
Ni 9.138532473114925 8.504459340560594 12.133317729000282 -0.24787157113914085 -0.16721709341086685 0.07435398943154292
Ni 5.092790449551345 1.196136913019426 0.9200835495487064 -0.47288192140939206 -0.5327410596588696 0.1879800369898311
Ni 2.490572306668604 2.764755381155849 0.5732965757103511 1.0667216481517952 -0.3685838361202491 1.09895068338883
Ni 0.6065469769976393 4.4008572679616655 11.150338453374962 2.6748798268539287 -0.6403903208084326 0.0786274199959162
Ni 7.703618005497495 2.672439244292855 3.388683417331608 0.28134270631339287 -0.6718251422789462 1.040705940814324
Ni 2.695253267132187 7.370828241227434 4.684847146044371 0.7507029877227717 -0.3696351602028989 0.9827147090115206
P 0.1227237726376964 7.70715763570772 9.684226385636435 1.1244308299378054 0.21288297087909788 0.8272611838944849
Ni 3.690221196537237 5.118388244066427 4.305056807610483 1.1436081741972048 -0.21436855428568888 0.7565396490092068
P 1.1686402543811525 1.6079231119291146 6.049910145510618 -0.5833406269832921 -0.8140133177456432 1.208639086455609
Ni 0.8371916781204328 5.644650139801031 8.839207884569385 0.25925333061352124 0.7943004126977482 1.020299866354146
P 8.278595905557703 5.698647936080952 7.782808935442945 -0.7884149004512487 0.8104657096037009 -0.22064127466827807
P 0.6662671754507562 2.580878965964336 9.657446870827213 0.21959226457847342 0.5628756742607209 1.1521756041512414
P 4.738117658929537 6.099852115507993 6.035406879435708 0.560152618902603 1.8707757978021975 -1.6675023249884056
Ni 4.230779879917821 7.5945162784969575 7.542666226589384 0.6073935541674378 -1.0981053046693992 -0.8412662399243254
