# total energy = -340855.8935137936 ev
CRYSTAL
PRIMVEC
9.38440645592717 0.00000000000000 0.00000000000000

0.00000000000000 9.38440645592717 0.00000000000000

0.00000000000000 0.00000000000000 13.73502743858748

PRIMCOORD
 96 1
Ni 7.846452331090074 2.8509075852710817 9.507523230218467 1.6630432607757872 0.13895038525568973 2.21715970078664
Ni 3.339309631302077 2.374367428913885 3.210315334862072 -3.7983161540889485 2.941823327022856 -1.9727172099337056
Ni 7.831972192034163 8.91914628761953 9.025176941629326 1.858490295566625 0.7076380382124975 0.2535861050254149
Ni 1.0152144674060242 6.478722022144039 2.4009102839402874 0.5445681342007846 -0.21162004500627427 -2.9563947970791276
Ni 4.045927279061586 5.945575126457449 11.815227589918116 0.008078920353392537 1.5955998824211488 -0.7258319355127049
Ni 4.127346388879527 3.319180079600892 1.1886908501227746 -1.1393519700240118 1.1326866421886945 -0.6978663035377142
Ni 0.5441379124476292 0.8399550474756488 10.431217212771045 -0.7457988655529348 1.0493523036354122 -0.30854729175264284
Ni 1.6331494748036675 1.7002667492870602 13.406608948772302 1.416780428884663 0.663345129832393 0.41954670032136127
Ni 2.944000896635071 3.3021473820075817 10.946459599510929 -1.339436503586861 2.0284445854029967 -0.2064197317522574
Ni 3.9398647180700728 3.638540813373869 4.847434413567652 1.659319532067297 1.5838975063825562 0.7370455448403371
Ni 5.872996127456531 8.801381371862805 3.503146351777589 1.6385630162462361 -1.1910185451603683 -1.05335448281627
Ni 5.443068317626042 2.7489647786836806 10.968037165117705 0.6868856361564945 -1.278437338195669 -1.6586327904129177
Ni 5.166303404445923 2.302576720049518 6.219577270397088 -0.13495874759779336 -2.5077187834919776 -0.8837568049883683
Ni 1.0798824118222794 6.432569511530319 11.785820614062247 1.1218378723996485 -0.23764757941828746 0.9194154347322423
Ni 1.070826459658343 3.9485734471976714 1.9804813702552237 -1.287588151457002 -0.0026199541213503268 -0.7841165301862109
Ni 8.860596976167923 0.971914816334104 12.902656941357222 -0.8608786148386143 -1.1797347447164328 0.2981006424980221
Ni 7.973958260677022 1.2851475327360442 3.098251445985753 -1.5299675891333198 -2.620496881227674 5.745986448356356
Ni 5.825557953167725 4.714322239604812 0.19807291185838538 3.73622298430263 -0.22011599829242737 2.725343125710803
Ni 6.7683529564814195 3.7259940964989715 5.138919706607202 -0.0671934671273617 -0.9996667634848267 -1.0961589795763058
Ni 6.46333159566854 4.991077768378543 11.111747149213945 -0.5795040268460213 -0.1715835979096787 -0.6406356040500193
Ni 3.9962086940206167 1.1233791354283371 9.000975495996604 1.0802605631784945 0.7903661106403485 -1.8170981057730835
Ni 6.4140446933213955 6.244609235995103 2.089647354439083 1.187458852833568 1.2039815330789396 -1.5417460698254866
Ni 6.462871759755553 0.5672160446357667 12.802872548238945 -0.7214628599107317 -0.7052870214818175 -0.5334550550067586
Ni 2.7997438016464375 4.987774457330143 3.0026693900477985 -0.2425874399220661 -0.5181935008619979 0.31730883999535675
P 4.2047302039508425 0.4933129058935736 6.56848856144366 -0.661709136890867 -1.991422499652693 0.47579318151891603
P 8.099371467639559 4.6534080577435555 0.8296669227530337 -1.353457243345985 0.21729112724912256 1.423354225447439
P 1.8391371950092699 3.585537686097275 4.794293335517161 0.3672558613374449 -1.34466921274071 -0.8196041815698595
P 7.156473235855602 5.953645715950698 4.162509759613485 -2.966334424790343 -1.6815917132019362 -0.3022169786592408
P 3.9412348414026472 1.6429374106658292 13.345351297637263 0.6437193851816655 0.6138763336783041 0.7018985646255589
P 3.8587740624756943 5.617336744241897 5.713373005449007 1.485015707012978 0.6999028743517688 1.164717445371994
P 7.787809175574593 8.857856729502775 4.7355901198008 -0.20132997593417584 -0.6018849656443828 -1.1459057119821299
P 1.2520675002201103 1.8529135035861182 2.0899495323247606 -0.4167030602249791 -0.3325367126887047 -0.7096036465793004
Ni 4.57227048011724 5.605793924385274 8.937038596837935 -0.3689283639438614 0.772715744548437 1.5218305618484822
Ni 8.185116788802135 7.921687117098653 11.496093958779715 -1.2991182635837886 0.5213107063347409 0.48228084612578875
Ni 3.5036868935855088 1.2332329966003999 11.216133655224652 -0.2311167202783052 -1.1995893175485148 2.217201609768168
Ni 7.17400330698745 4.1040636766321414 2.636919658620137 0.12106656299673343 -0.6603701063644691 1.0172191705462932
Ni 8.640926791449347 7.304193176801222 0.601700922787909 1.3333789845388713 0.8537476602207876 0.6023878734227303
Ni 7.3870574852028374 4.92906561096995 8.54296766537344 -1.9736623474557948 -0.3545427846461507 1.7255714612169957
Ni 2.4370646479887657 3.911223509775426 6.883130815685003 1.9927116507777616 0.6001605267541084 -0.05291715971400564
Ni 6.312993405340807 1.8438012449838568 8.349976409573886 -3.2344328644993197 -2.546712391146356 0.23086783749229273
Ni 1.7125978592802338 0.3871489933130755 3.5896086415881716 0.11250273258712237 -0.8931133065026039 1.523307660614641
Ni 7.263924688992464 6.2379556918663654 13.010160947169853 -0.5882432064912321 0.030450860290689497 -0.5350841059697494
Ni 7.2017342278625085 1.2086083142396025 5.8154659625386085 0.2760446911392472 1.1482652133532418 -0.04584225514509524
Ni 5.697930026297739 8.400047848295024 0.9840854529780514 2.0060289367119584 0.6365586057671682 2.1365874983595265
Ni 0.17737372668947896 0.7720222680771827 5.278961326246571 -0.6183551953852641 -0.4780212995184864 -0.5819830845141332
Ni 4.789087805294015 5.850680009067059 3.5121422437406453 0.028931338322369528 0.588389245150793 1.0313815780896043
Ni 5.44461674467998 1.5912574846898724 1.6966603219123444 1.0553398886774148 -1.8137268753080056 -1.3772250351895443
Ni 9.32287283481612 6.198963483326308 6.541883769335101 0.01563359277219888 -0.304208812278289 2.522015145509992
Ni 4.098470570425192 7.6432517795815595 7.387164467435656 -0.32326222936531424 0.19083833237423262 -0.08097072341711216
Ni 1.7434162498567805 2.493258473437109 8.928632984036652 1.4015744105681864 -1.4009069521875162 -0.9605104050003395
Ni 9.22453364028152 5.999291468619493 9.136032118962934 -0.33832452301507543 0.9946615969607514 -0.609921205685298
Ni 7.213126897216933 5.496005754057924 6.390757288870818 -0.7021621026995908 0.3555383157902006 -1.2715699216518745
Ni 4.058258389054759 8.572917998359143 10.289828930815071 1.1324030495100046 -1.6884421604648663 0.7658231311936617
Ni 9.293133650974138 4.150188034026699 4.605643306112463 -1.5638950951187 -0.1078804033237626 -0.13906762755984434
Ni 4.4774129003524 0.9414530332002823 4.067216743392266 0.6335573570469992 -1.457961016888031 2.867844975763177
Ni 1.9663709768109805 6.410084473825872 8.384986814483728 1.34643247528872 -0.2088666506308532 -0.33746731722110274
P 7.463568550480117 3.144780271295611 7.359269319448814 0.9026567272166648 1.072833674586804 -2.7207812173717336
P 7.172295345024924 6.995662047999419 7.874084715698064 0.2931034463937468 0.7969738457648533 0.15421939559961825
P 0.33211508049422667 2.6095031153590584 11.83091268675418 0.2289081426627606 0.03337883257076187 0.08906841282358209
P 8.493441460663414 5.688977302604065 11.146551097183263 -0.26632669252053487 0.5042923173998735 -0.4741427903996867
P 7.8114672640774785 9.439774385185196 1.1570006481928297 -0.4878850796864437 -0.7102065702706221 -1.2477026281159738
P 2.1616980113603836 8.916847108054592 11.043538468267688 -0.36324494040583893 -0.40464124396443857 0.43788200829543944
P 2.7357139968645323 5.41812456544807 10.288427838941418 -1.043351605967287 0.20452945670808 -0.8976749577313572
P 6.049094513317949 2.3884534229015206 3.4672707045988194 0.13586763256530793 0.6499242284407968 2.0570267679160636
Ni 3.5930170579881113 7.625121106440911 4.878036024356647 -1.468888462433812 1.1188852175292279 -0.9629562954376707
Ni 2.345782527057563 4.385295567252711 13.465408823874455 -0.917345439577091 0.7477259073723187 0.06346253933001973
Ni 4.096265234924131 5.99978884215803 0.494418388966021 -1.9167003282484536 -0.02179884104264633 2.0791745076576964
Ni 6.1995734697414955 8.992016203218459 7.272051584924038 -1.4195649336083358 -0.26920761361275575 0.00692449503397517
Ni 4.420552782050544 7.8963492198524055 13.14106966251291 -1.3789636151472058 1.4138863951663199 -2.917873758185794
Ni 1.514962260759506 8.335511285568193 6.37908214888413 0.5759317361137307 0.019194570650579845 0.02796486064404216
Ni 9.133298441382255 4.517512468846183 12.856314865734474 1.5492074111995384 -0.6866658068362045 -1.5222409099130234
Ni 5.112080304338954 4.16662012961121 7.233785729438373 0.09018838536063822 1.8007608020656407 -0.053709316597997825
Ni 7.114740780650393 2.7987490545693627 12.976153735302836 0.3383553762530108 1.1476782305015203 -0.13844207816070353
Ni 3.1404540599509745 0.5875295307021469 1.8475399924886362 1.83972509914398 -0.2744961157052047 -2.7448541991605375
Ni 9.087014549079111 6.460750883911978 4.218301932468444 -0.6396922663001435 0.21740965510485785 0.9332988775825539
Ni 1.715629022543396 5.823071085475037 5.363253941300363 1.9220189122478897 -0.9706387516835929 -0.3532603183893013
Ni 0.4338786449196265 3.9588399877855953 10.053435733913972 -0.17593750400300023 0.7044089897522384 3.5134929454261234
Ni 0.5801505719596565 7.914583121463316 10.10340394416485 0.16531961927783786 0.23310546857355985 -1.4003878464592527
Ni 4.509432494946546 4.011664811340827 12.588084131723146 -1.3215297985097691 -2.888269047945484 -0.5804167684682778
Ni 5.77938667374123 7.34194664369813 5.3820837527168806 1.5449488930335007 -0.6513028539558784 0.660871728591236
Ni 8.99550720239461 8.443460112243596 2.8222457312823823 -0.9627236106015742 0.24994105207365983 1.0122911371170566
Ni 8.463796120885306 8.407470913747536 6.70773438342137 -0.08370612007040422 0.27128429363612633 0.05103716908247339
Ni 2.290986978160957 1.6518525967339532 6.179746095925988 1.2733223855666072 -1.0810028406611578 -0.7934190385340594
Ni 8.332630272807233 2.211097526584178 1.4297068056103552 1.8214808082218115 3.2312503530062804 -5.412153642564047
Ni 1.1087676146830012 9.125678303395606 1.235563144706416 -0.7026400707772738 -0.7892916466292471 -1.420363004029599
Ni 5.97671258685117 7.662489812675933 9.551310870422537 0.007169264054929588 -0.6749580314809731 -1.6399907498316981
Ni 2.3939808382637575 8.890261084758807 8.694767007775706 -1.6069497602163292 0.1978643859830786 -0.643998349874665
Ni 0.19137244569771114 2.321242304354253 6.92995337291479 -0.8958738999668764 1.798785937727457 0.7803555204818818
P 5.861856837074571 7.304868854061122 11.548040401897076 -0.2242215358203687 0.0002972195254446494 1.8418611716503763
P 3.9883633302806674 8.092004708625371 2.4158680892813216 1.1267895599779691 -1.181658701212023 0.48802597613968207
P 0.39014731115388146 0.3808332878142887 7.930233495995748 0.8162419499658458 -0.45263911199995593 0.34202973978080453
P 6.973383467235497 0.9921945185374893 10.34029169928257 -0.36271477893398174 0.18942396852520926 1.515455511560074
P 0.8697683681280941 4.361477943841238 8.066155361231006 -1.3798671007980816 0.8254066471842494 -0.6527035909581469
P 1.4598945640776622 7.52051312843946 4.160710768909001 1.528040033093304 3.1944164720073824 0.03959601712506729
P 4.05608120677286 3.3092607620493055 9.038156514103875 0.17835922607061538 -0.09534987495691966 -0.13680377122633217
P 1.8551282234935678 6.881923042582931 0.18817142467893525 0.01546595684608304 -0.6207357798022987 0.4228824495628136
