# total energy = -340894.55731836427 ev
CRYSTAL
PRIMVEC
9.05235111058197 0.00000000000000 0.00000000000000

0.00000000000000 9.05235111058197 0.00000000000000

0.00000000000000 0.00000000000000 13.24903087601628

PRIMCOORD
 96 1
Ni 6.337161589023514 1.8479650101440854 11.412264335715383 0.8001591854713703 0.6494292910822492 0.8777221687585142
Ni 4.845415637741298 0.5476029556002446 5.9769957051848 -0.7719156172446447 -0.7243656353798235 -0.01552252111563133
Ni 2.844004228096118 1.5779514885631378 4.808444026341241 -0.016507767847036087 -0.8164334971513616 0.16234253892738493
Ni 3.63973302612247 4.383827214818739 5.199648610823536 -0.16973214652323673 -0.3009764213839204 -1.0914137515818365
Ni 5.06555070605984 4.469055098206315 2.7879538820144196 0.38969927794262565 -0.3476776820952012 -0.01664377920426811
Ni 7.3591176875000945 6.11423839663876 2.643141614767714 -0.3953978709892997 -1.0845741029521838 -1.0039314522984517
Ni 5.0187681567930325 4.478469543105208 11.577082298372238 -0.09900135566657789 -0.7812098980623772 0.04338582318480269
Ni 5.518765704432903 7.7616485733838285 12.51259659321034 -0.4657674218517979 0.30181177280102217 0.21449093879616607
Ni 1.840261459558549 6.479763272189151 0.1989353678293905 0.15827248262306934 0.44666361114281145 0.008204133077347162
Ni 2.865394933188507 1.5951781122579398 0.5551861099192859 -1.300035376081419 0.4575830862687926 -1.2437708971617354
Ni 0.6425222858231622 9.005731257369103 4.7252936574770255 -0.22738424981906646 0.2459787249918022 -0.12621725395973746
Ni 8.600991597874476 2.3535840676706985 1.207330139476134 -0.032516227460150454 0.16594671133887548 1.0070687123758526
Ni 6.985762528452066 0.7762988321311748 4.741536290632876 -0.6233549625927006 -0.5497622768072146 -0.778234617484137
Ni 0.8259654603833548 7.352962088912357 2.3579165227943624 0.24587768063756366 -0.7145681896734274 0.5609787143483241
Ni 7.593102852641048 3.867499226219634 3.923130448456315 0.2939377693695841 0.13844490637418094 -0.9588553858954195
Ni 7.460639802443447 3.8113293891065267 12.60363065444229 0.5452988417192222 0.2536051311888084 0.20793899661026125
Ni 7.964222081025589 -0.19080183057779865 6.766769866812602 -0.10041803350844641 0.16289404055548073 0.18014588565739298
Ni 6.838824769222419 0.5992348492250686 0.535777869666183 -0.626363153291405 -0.01356488316862825 -1.4371422803704668
Ni 1.7312983122047247 6.74330436290211 9.298275175016258 0.0007985846418953988 -0.9153602908262621 -0.802691722085237
Ni 0.3781266531886119 4.982187606950314 1.1973933739323697 -1.5427711686558916 -0.7273812822776956 -0.06987178529047322
Ni 6.498420167320516 1.997627526983894 7.125434870878011 0.5619462204679161 -0.17437607305315128 0.20710184542094656
Ni 3.3257793934461115 4.266481590564554 0.4849507300331971 -0.6397701707259305 0.3988729740220937 -0.06155323812244883
Ni 6.045350006561282 5.714966357066182 4.760032053918856 0.22110895833331595 0.06901612215839727 0.6209134430307436
Ni 5.4062540355402655 2.8113705032302434 9.339744899560797 -0.029902443986387216 0.06899606755373923 -0.3477836115454462
P 0.0870953833708854 5.507468370554231 12.193321083460846 0.21010772212680587 1.025861933822956 0.7756863971409866
P 3.8407133200121106 6.085515287346272 12.430730752933771 0.13960061724517892 0.8142444599198428 0.8697674326878118
P 2.421521960907423 8.598221578509994 1.3481023425320935 0.447198657710675 -1.1835957703337359 0.23922880786247833
P 6.269621999224819 7.87236787680533 5.66307285050138 1.101614089153606 -0.953793655101796 0.26946369548761984
P 4.71272627877209 1.0207249787590342 12.738320582952513 1.0696300800478418 -1.2260837642946174 0.06031499483997353
P 3.8951360534084047 6.142092480248274 8.234670115448024 0.0003730670687025833 1.3558789654136003 0.18083802662841114
P 4.8047072159044495 1.2687141306870904 3.8228485055813746 0.5195744403699245 -0.3524231671999866 0.3871271463400752
P 0.2623597589251646 5.42757232182574 3.6009536602548082 -0.04827940383167814 -0.055039605373647146 -0.886827216383576
Ni 1.5730813237981338 1.0460534564774027 2.664525983214498 -0.8738989383576821 0.5726646353266848 -0.2236345529686471
Ni 1.8038800614348454 6.406393968433836 4.836280005249026 0.8082784721443951 0.433610377503279 -0.0572695231454304
Ni 5.66725141566035 5.454095709858199 9.494891330554209 0.7981917773323545 0.9817698285997479 -1.3276207418988555
Ni 8.42437118016072 2.2556104742661596 10.041586335362762 0.21684426951969105 1.46629653333692 1.227074667452977
Ni 2.401190380866159 5.148171512398492 7.139279536289902 -1.3199745382075072 -0.32363915308875874 -0.5275741707459495
Ni 0.5708158989216213 0.34949949881528525 9.475838847690074 0.8797700524264784 -0.7300901965684264 -0.726008313189569
Ni 1.5007530403922138 1.2016814725367981 11.57932184997607 0.06092923138520475 -0.7190447373875424 -0.8447490562666031
Ni 3.9149244923978093 6.729716784254766 1.5934210509551752 0.26434051532844155 0.9398353931494912 0.06546440025139694
Ni 5.503213765648001 7.855512399495966 7.776373127299732 0.16424309838420745 0.13060612705605248 1.0535696841508695
Ni 5.635939334020666 2.9359580081758843 5.04398529059577 -1.4060435020831332 -0.289250905416876 -0.9292396199115158
Ni 0.8422488291180943 7.527862559961891 6.887495638879523 0.19954794433308862 -0.4349846321429863 0.09612274856720221
Ni 5.248851758711464 4.887825901540638 7.055373296128517 0.0647581182129917 -0.3187756543488704 0.24883650615557143
Ni 8.331910468432552 7.521643594918102 8.951283177390389 -0.3192906463120759 -1.0578289736478557 0.42357793296794144
Ni 4.7188728250089635 0.4215426331689788 10.471782110722945 -0.19161300575672807 -1.2361486047297872 -0.41139218953502693
Ni 8.365259329016709 7.038401948728089 4.583250504359716 -0.8732790453854959 1.0600671189497548 1.379461894939863
Ni 7.278904806491352 6.297403664027418 7.08874840853018 0.8018697404045738 -0.502995710075637 -0.965028604585667
Ni 2.2782141943743675 5.170820494261021 2.6820938805368844 0.46838711886283196 -0.2617066772500203 0.07484429880440013
Ni 2.143334166495994 5.134701614312384 11.391847663575996 -0.08057477353027413 0.25665780197220317 -0.11495145123793106
Ni 0.948858365247195 3.2375823389750384 3.762778010480831 0.9106351174364511 0.3529109054696825 -0.09891728059320383
Ni 3.453118813054506 2.7408074282428663 2.756487005174955 0.11115778852345372 0.43096651212252873 -0.11257189526216095
Ni 1.1234510563673417 3.2675003585816174 8.320616755494228 -0.04495702432666451 0.026560266987031678 -0.7303897300867163
Ni 4.0527646390088155 2.850214140789042 7.0923648227004765 -1.0302148114750127 -0.5619487915710774 -0.3604612070131147
Ni 4.051189529958423 6.825182876469888 5.950166347693126 -0.08140806806484689 0.9484470460779021 0.12225107022313784
Ni 0.9214750038826259 7.689863431029768 11.372702846733045 -1.6888203697398916 -0.7726879766342951 0.5621174559384576
P 0.2907461207655004 5.640230148330353 7.896355701360693 -0.2693222848137491 0.11062402750717078 0.4405168748151252
P 8.61843547799002 1.6562271664869161 7.935679113515301 -0.4328223343843449 -0.37353552369856957 -0.4495404184699742
P 1.7940854177996508 3.2113033644159166 10.459725284606757 -0.06791106201967659 -0.46715067535256966 -0.48584079556290516
P 3.986537640085447 6.0545743520920245 3.835488303093225 -0.2694624099360392 0.716392901586992 -0.6415838268959015
P 6.89839829026051 3.9332283458454644 10.471291473306099 0.37176969004739846 0.2096446664474583 -0.3106075167157812
P 6.208980300784737 7.673143738983368 10.041440592513847 -0.07324044465238999 0.38226930402714165 -0.4712526133360852
P 2.541619499824361 8.545555001181379 5.725263406174347 -0.11559602680046545 -0.3011106329689395 0.21066385174059202
P 6.913904967291092 3.988981774818814 1.5967468846627264 0.15714736787969066 0.1285621000428302 0.005226281395945837
Ni 5.166946088091092 2.8389711210155557 0.5915095729974577 0.5580556271642583 0.2637977554510941 -0.10987146561186238
Ni 1.535314915992189 0.9300385278002731 7.06858339174482 -0.6386447988722356 1.7719037686246322 -0.35858738702916954
Ni 7.049020356291937 0.5111554753152316 9.153609555853555 -1.4647045062594517 0.13023563109051117 -0.6037418163474634
Ni 3.0956776868259523 1.8329018983058563 9.059806380492207 -1.8018537780195032 -0.5911899478243818 1.1594022038066676
Ni 6.458291095938984 1.9468981527402427 2.4955873904442054 0.8062401015581275 0.5967592143820433 0.9507602675921109
Ni 3.9511610529076835 7.048413848784027 10.311839744241615 0.5623701953792121 -0.3280146564486351 0.3128171227725903
Ni 8.09918358006174 7.088271349639631 0.43054338563337247 -0.31237129348442333 -0.39891616855520334 -0.9280144892551629
Ni 7.557644794305505 3.9618790363310388 8.215286316542254 0.6076671195437987 0.2010625812054021 0.13009036376189853
Ni 2.9441775427606873 8.375832474826236 12.412977282418666 1.6377587751773857 0.07974944941550137 0.773965557795138
Ni 0.02104218958411266 4.856694866918241 9.983701077760866 -0.2309575689926216 0.06984633136917648 0.7462979166765404
Ni 8.664430472731633 2.250559262483869 5.638694869623764 0.4869617965412258 0.17314245775636633 1.1973519435775637
Ni 3.71784576173069 2.392590647545055 11.451282683645864 -0.5106534837312108 1.357882111886558 -0.18182533024234493
Ni 1.0519827462935325 3.1115826672945635 12.650227630516378 -0.36943461415631856 1.9495425715894554 0.4187149484486853
Ni 3.013735806802125 8.39595585079762 7.979784882631529 1.1090283793398061 -0.5873662032029174 0.4153164642900976
Ni 5.5254372870199076 7.811581340751419 3.5683479976766126 -0.27346613177879353 0.7730541017244622 -0.04529563861300587
Ni 2.973651997174914 8.20790231394223 3.510516148944816 0.5289643662252567 -0.16069394758036842 0.32583976028450334
Ni 3.4857615902712453 4.367433407403455 9.37825993678322 -0.5796243544739694 -0.6527403577333533 0.20049719562023532
Ni 7.200140301620901 6.306528433698653 11.247432794532234 1.1413000948893182 -1.794975048621799 1.1931379054962161
Ni 0.5140821003496664 8.995746514365758 0.48174891353248694 -0.36979636837111146 0.5985247909228982 -0.9799366320457511
Ni 4.487639574530765 0.6091960561161668 1.812229044637008 0.8162712605418846 -1.744280607590725 0.11269479399327043
Ni 5.629801840134657 5.426748557897087 0.5037443156626126 0.9683679533715451 0.7872476196160249 -0.07923034368723773
Ni 7.634517357845313 8.748454393454255 11.391304522524138 0.9040559215570366 0.1912864756552448 0.5308618403582858
Ni 0.2245145956667005 4.714138445506924 5.714148024548047 -0.4479728168725382 -0.06670701440924641 1.327287784039469
Ni 7.992718881546469 8.722446989421062 2.4229296014668247 -0.20368356376801697 0.5136411056046251 1.244979829868172
P 8.57656835524254 1.6264358797924376 3.4651385245321507 -0.747668571771822 -1.0288662678669185 -0.05932332035066557
P 1.6418791903669683 3.1931081391786327 1.6052660520611381 0.5888630994634181 -0.014287620267265716 -0.4378269866877879
P 4.770371649076083 0.9357867705991164 8.219247625280481 1.2969513378394566 0.1909064666080067 -0.9526379442307982
P 8.485202977968953 1.5681025308227574 12.371361815025212 -0.711357910266246 -0.5581888103080129 0.07159750973232831
P 6.210419624572164 7.701722010662028 1.4886744886339514 -0.07215029691200477 -0.3679091786507277 -0.8181121704053653
P 1.9258785940332908 3.1314797344943397 5.898931852271246 -0.4025697061473905 0.6111656196153603 1.4129839379567084
P 7.054361243301886 4.057879217247156 6.095229365058773 0.6885393697098334 0.7793466196013933 0.04503132920802567
P 2.514480551933129 8.695760659073045 10.294470093403156 -0.3200064414321779 0.8240125950502002 -1.1685797565408778
