# total energy = -340861.05476010183 ev
CRYSTAL
PRIMVEC
9.33630803224302 0.00000000000000 0.00000000000000
0.00000000000000 9.33630803224302 0.00000000000000
0.00000000000000 0.00000000000000 13.66463053366916
PRIMCOORD
 96 1
Ni 4.426343567567384 6.096207586686557 8.607747230549569 -3.268202504750597 0.5531260510731247 -0.7175190447716352
Ni 2.2300518284370603 5.849290252091631 6.188656640979763 0.11167792269298185 -1.0286086433301576 0.36912042535000944
Ni 7.982524567776796 2.493064957823141 7.932222408162073 -0.4291382006645383 -0.16585569428696598 -0.1378358120352723
Ni 2.256856368370589 7.661028805808471 8.01664223767547 0.7683073310680962 0.1309668528295809 -1.4799619466391545
Ni 8.322804981206723 8.41736310745081 12.21221654876323 0.5680762446250539 1.7350770867145862 -0.6971669634778446
Ni 8.064207925449537 1.0859806603929616 5.560192412109839 0.9749702891794111 -0.6739447597251104 0.5288977746533795
Ni 1.7729181855372464 6.3337606044743335 12.393997264147341 0.12182503842931279 -0.3754042014761922 0.7999735518231255
Ni 1.9039999482215875 6.101118484633278 2.7888961430505126 0.4827999518540524 -0.37364530980355654 2.0448960460908006
Ni 9.197841101279883 7.624841276452025 9.82359873449438 -0.4226302243426915 -1.176796230913399 0.024983923638847293
Ni 8.122083698019354 6.196759622591852 5.932635472567636 0.30083449648941735 -1.787940767482837 -1.7784248575726018
Ni 1.0960078550598404 0.6181345378276195 4.993944405344772 -0.5497897876110402 -0.4618164076238498 1.6501512353044676
Ni 5.338491511477458 0.1604920661481546 3.4071119067567186 -0.5313657765778977 1.2486397952182624 1.2104383444478766
Ni 7.184709050208064 1.8224939803986315 2.5970312815214327 1.0052722825970624 -1.0066809900191307 -0.6470818738959951
Ni 5.893366961609634 7.122053088001895 3.345839585378884 0.39422313395490816 -1.172487062015084 0.69545846542717
Ni 1.1659461374151396 2.9730818913454136 8.727572206818772 -1.2223430663052626 -0.0012652398656687886 0.32964319319099356
Ni 4.020167493095714 0.8713454775668132 13.006542154445109 0.7570808662246574 0.8862865133887574 -0.4745451680444279
Ni 8.98211637132373 0.7419377148859837 9.300598373107261 0.9691238577009631 1.1085303566574651 0.6371815840631478
Ni 0.5318558494146185 1.1574314246253874 12.748307347433803 -0.03692644071270415 0.09117208943014621 -0.2709269102967076
Ni 5.6683899505409325 8.363698009736453 8.357697564659727 -0.947796814088413 -0.3777806721281687 -1.7695555801074299
Ni 2.240592520037532 0.5208100635576496 9.205150496721876 -0.7248230346322161 -0.22096574788723236 -2.1479420041403974
Ni 2.3551770266917282 2.5122043889843164 4.088539142988162 0.196145603519759 1.498126790473639 0.6434831008011433
Ni 2.646404478501746 0.9625359975573234 11.288323529535713 -1.2133958844143038 0.6733498064535887 -0.11949279075171035
Ni 0.5375892760858759 3.480790314050148 6.0256783160422325 -1.5933321694328946 -1.097925070337793 0.9033067020958379
Ni 5.291781963136307 1.7093659377742614 0.8770686342993989 2.2764616809810665 -0.4059481357013202 1.1678508487946533
P 7.508846987307418 6.005169248514548 10.531166699168836 1.4967340238911706 0.4061347977908295 0.5276428192003558
P 5.213534366764693 2.8571249474323426 2.6506926447126378 -0.46423144482324563 0.40207451167852687 0.07578969343680496
P 7.886015153185055 3.896797520723144 5.353487489199935 -0.14603737400945815 0.8196378630212722 -0.4908333636814902
P 4.458675201767945 5.882788924777629 4.178015516851262 -1.8766965341620063 0.4017302409652307 0.4169642843061657
P 7.351408827467957 0.3257745918713331 7.663192961975866 0.2578381954335495 -0.33700246176954224 -0.3428941446636288
P 1.662385636504489 7.227403986159309 0.8884290537320416 -0.5687596438453236 0.2535092290408924 -0.1661786248440235
P 6.274353677411622 4.832155526031598 13.626738149053404 -0.03613762626282164 2.3394035719209256 0.9235173727157578
P 0.4895903836260137 6.339278362433482 7.437959202440369 -0.4234156963584643 1.047214945577435 0.2592584728198438
Ni 5.644825109442979 4.719447617261986 11.47235896327369 -0.03758592867357398 0.20567539738706514 1.0413132353810195
Ni 6.239491903774633 0.3477615969369757 12.224569417723888 -1.0158233186400312 -0.7490906489303293 -1.1511399637978756
Ni 0.6956688402769341 1.5224623902544734 1.5352213886080643 -0.2896453126418173 0.6913251599850868 0.20242578010151588
Ni 2.3975732007907022 5.000255749474018 0.969432728190865 -0.8913091634143295 -0.4607738252919484 -2.4094329658351863
Ni 3.5729956907075944 2.9381360909374727 8.98141988275562 1.0529636751357543 -1.0212483463103443 1.204020870957307
Ni 4.306866835582234 7.208525971618872 6.075444571584441 -0.6446493531951026 0.3068459927908199 -0.27259247092458855
Ni 3.373637508471217 7.868696302061163 3.502736239361103 1.5153346697114936 -0.7855807734365632 0.2665359803178635
Ni 5.09597157789566 8.285039615817965 1.4958128330318108 -0.23295094527356655 0.19082136309336814 -2.3020894088515
Ni 6.558550889385365 7.91859886769847 5.770901677470976 0.9241452361077439 0.1448641796369634 -0.46097411422821255
Ni 4.319060053678085 5.020366156655077 2.1022760523742665 1.1392429552499734 0.1080475250292462 1.0810064402055835
Ni 3.296435578582555 0.14086714697703745 5.447568530111178 1.1694876130671277 -0.269534143714239 0.8733482080605346
Ni 7.644736948551763 6.920799635265167 7.9634869023715495 -0.16837460405407775 1.6184253649560967 2.282191641486308
Ni 7.11489213985525 8.934725272507084 9.961269129652107 0.07072256332654273 -0.11523221570314349 1.215533756692913
Ni 6.371012472929498 2.3848944946849087 4.777413952018272 -0.46723937841163404 0.10331618099184788 -2.571943912019635
Ni 8.093869375595418 5.538493898957797 3.490916473580592 -0.07087322997179407 1.3340929798867602 1.5171424123441937
Ni 4.318397175818356 3.8557271023436273 13.675015263488195 0.8963562389199337 -0.5856713319989978 -1.07856003554762
Ni 6.36197492689827 4.930896318207496 8.839990690043997 -1.7009161245621611 0.9622099041899493 -1.5091987320170848
Ni 0.794412433345196 7.526483272899351 5.426443266263183 0.3114760353636636 0.4534104429483417 -0.1045899054979489
Ni 7.332549485543287 8.550340140635502 2.5014470950409473 1.096729507367795 1.4525329038939243 -1.4378285078042141
Ni 5.414993218274858 2.460583942696444 11.29583925738193 0.16175555607566336 0.5095391676211096 1.3598875723523614
Ni 2.4721329555483336 8.60861737444431 12.935513391329017 -1.0032735069994785 -2.344890820287742 -0.5726607786719428
Ni 8.609719058774562 4.797517823783814 8.418724341140226 1.9800690223130866 0.09663028433124003 -0.8049944020764845
Ni 7.891159458828863 6.3410615972392295 1.3249154517474955 -0.36816294653274656 0.6346960986371327 -0.7354440046811721
Ni 7.400116345696177 4.079219640458851 1.8242828169891103 -0.6037837253289924 -0.4583952977574428 -0.9030375075948511
P 7.154067287734416 0.5768876632291045 0.37588909169759643 1.673779416246369 -0.11303212272803115 1.8361106423198446
P 3.862486589251281 8.279979336945107 9.602463614119738 -0.19595457055487542 -0.38920922568008454 -0.5687136210987367
P 5.759904440415001 2.8489650143421636 9.13939674755996 0.8184286732045196 -0.3367854606627297 -0.8221128069243261
P 1.5737187205348886 4.473127806371603 4.531040924172954 0.6005022263642432 1.6006438726029595 -0.6652372046487833
P 4.337331208206095 2.4816839985131542 5.740319667367783 1.1409895056274348 -2.0460751540005666 -0.7861764980390332
P 3.4098997282907315 2.8432138486859277 12.020720471395547 -0.24895683378351965 0.8020481749639671 -0.6040598618085146
P 5.9175573353357835 6.0241873076732375 7.049158930570679 0.02169651113682715 0.308427735455643 -1.248666791801456
P 0.9064705350861172 3.516268284007448 0.4418183634477205 0.4286358071068231 -1.1155456116330336 3.0541602234560754
Ni 6.644454258221447 7.06378519050097 12.823913702305175 -1.6001857020196182 -1.3261726965984193 0.40542080244294043
Ni 4.1018975323078735 0.8028580574566101 7.591890645038787 -1.1957216070629924 0.4593003260702154 0.029954123159929062
Ni 0.7336368035467639 4.862227773724352 10.501937520077963 -0.31400291555057536 1.1710436447003378 -2.389483776406769
Ni 2.8230287510418006 0.2616080150496138 1.2243195351951472 -0.17068396891354476 -1.5944264309383378 2.5310376607235767
Ni 3.059620129117576 4.819934299012097 10.974870996809022 1.0085447827007468 -0.7920136735461005 0.03979064963437663
Ni 8.815603320221506 6.223909605917071 12.672222973598796 -0.0035990302051679955 -1.2538146545509825 -0.6390129808449319
Ni 0.3562996504964365 3.6663120880031776 12.208800393708657 -0.7702081476352348 0.9581239070460337 1.186593162399163
Ni 7.479652352555714 3.782241022992598 10.202723790504397 2.398778571445133 -1.8360926445977153 2.483587951882045
Ni 7.463817974385298 3.2761477815517095 13.000665882263235 -0.12639774540165974 -0.06042452383464433 1.2387256214283442
Ni 6.169646984498169 3.4728264434255225 6.6722475131598395 0.7270907476204703 0.6806867064346341 2.6702538980461434
Ni 4.345799239456429 4.637241426347767 6.032319231839765 0.8162098111763297 2.562534702890593 -0.8824617403260285
Ni 7.708195833235912 1.8243892508989823 11.413614914070706 1.6724948931069905 -1.970391904234639 -1.2539383246130404
Ni 4.235798859973031 6.114870866145673 13.171720113519992 -0.0755626650276634 0.8262309428577577 -0.07924602741652158
Ni 2.736490513269638 3.288817151349619 6.69915288521851 -2.1725685444398257 -1.122844202176976 1.1553082362429523
Ni 0.4325016618107759 4.258056617967296 2.682585472442674 0.45705112502472256 -1.9580079287479892 -1.2999487299048837
Ni 2.144979391002608 6.853251447728044 10.1127423223848 0.7506155702152879 0.04661332898316488 0.7814672654888218
Ni 5.507917490639334 6.724139646007122 10.47458120434852 -0.5639028299736546 2.487944686188844 0.7574161380768891
Ni 5.682441093905601 0.6586074325025922 5.879002118300082 -0.5032011412182237 -1.0871791446751986 1.1953559961934572
Ni 9.122132980652582 8.592409543958555 0.7975251583935549 0.15763382059780595 -0.1149167413452537 -0.07728376148382818
Ni 4.843163033026245 0.9041411262691839 9.847497815414563 -0.20622972722863836 -1.4019125106338952 -0.3713783681462507
Ni 1.139683103338854 8.192666185618615 3.033670794986176 -1.7094655567940689 2.0633966759981495 -0.7562473145797685
Ni 0.15699561884578384 8.660517909968688 7.5645072540164815 -0.3916995962021061 0.38404593631159023 -1.4206260278829985
Ni 3.0617114620834798 2.4554303007447524 1.3060542425612485 -0.9970223838834441 1.4684655159637805 1.1304171294282275
Ni 6.040656554779732 4.477002374143256 3.8836379947613504 0.31258932303250037 0.6904327300778045 -0.1717023828757301
P 0.3889048385179839 2.305339815209605 10.724740105040595 0.21281355109374317 -1.200513629134997 -1.7506235190896173
P 9.284780800291035 1.5772665175306189 3.548062146873919 -1.4316465473632183 0.604193044952269 -0.5795168823618277
P 8.46548243828237 7.775155833376376 4.082499485418325 -0.34823561148120025 -1.2064431072455546 0.8358219289803024
P 1.3631196236067775 1.374743326921735 7.268640590819152 -0.07899020265197364 -0.8101139826912371 -0.7562815102518136
P 4.771096072473508 8.152529398027447 12.628591605966836 -0.9662611914411876 -0.4914851383328761 0.661867516845602
P 0.9118249076573045 8.709944323903937 11.33169534780851 1.2291472337112896 -0.09526888520733916 0.03821662027903741
P 2.7352767932447835 0.5994273777214503 3.4733847546369554 0.603186972285258 -1.49105445700789 -2.300218159970716
P 2.5584938034707094 4.690187628355097 8.467916413747599 -0.009735996340841296 1.7466632488902885 0.6943125247481848
