# total energy = -340863.85351392673 ev
CRYSTAL
PRIMVEC
9.30239929101704 0.00000000000000 0.00000000000000

0.00000000000000 9.30239929101704 0.00000000000000

0.00000000000000 0.00000000000000 13.61500166333381

PRIMCOORD
 96 1
Ni 8.827530388594909 2.5012291147343584 2.60164944505446 0.37932616223841764 -0.964264729836449 0.5044442695967055
Ni 3.257700223073387 4.609394650868651 7.280608367876752 0.10958633027127578 -0.7039587895886973 -0.826609666353415
Ni 5.798092438719051 5.212515707302012 7.656396460799292 -0.8892260556330557 -0.4119223510068842 -0.8544038057475479
Ni 5.413428926656493 5.358256396607811 10.861339986913467 0.027672011993971696 0.0034694466058391863 -1.4354515229316054
Ni 6.8424541995528685 3.7171550252373438 6.044285086502457 0.02849502211589931 -1.4437991235653522 0.3674990876965026
Ni 1.909205820625745 5.300172215588765 11.074442140026637 1.6565329704610952 -0.528003287863568 0.4413018326102658
Ni 6.593735950368651 5.718910416163937 4.793950531353194 -0.4128746876178244 0.048760971453786994 -0.7238269892675341
Ni 5.157417596447462 4.618529606948201 -0.019210384724925332 -0.19797082965395582 -0.327630533636339 1.3490226046133993
Ni 5.301269898702193 7.590841522929445 6.347871677279346 -0.37302850215516403 -0.18905090145650666 1.7129745983885918
Ni 0.05990466055547027 0.01758153461338864 10.086851061435457 0.9703160782368515 -1.0550539820058797 -1.0040636070009417
Ni 0.3348091636744444 6.918408289562561 2.376975107253959 -0.6745736515583608 1.2916726059390207 0.11044970671283558
Ni 0.44460817293487304 4.70924660459358 1.8303056607684016 1.393004666621304 -0.683919611549635 0.7759705040403088
Ni 6.376924930667989 8.00771924365135 11.89817703698074 -0.5845737280594449 0.6761723635040484 0.2101151783259736
Ni 4.49421234315279 6.8708730293115465 1.1444834841374698 1.8553802891827336 0.39154121624737087 1.2545697875494521
Ni 8.810227925959511 8.8584608661555 12.224120083914434 -1.6097453206835954 -1.3289281478563695 1.2274657322438087
Ni 3.4825764229379677 1.6566828901415924 7.961590506169406 1.380151721918036 0.34708324304431193 0.7179299070568088
Ni 7.344662828744939 3.751992510489799 8.676254771725635 -1.5194872584272865 1.4087444459540641 1.1968217821057066
Ni 2.3298696178490506 2.493629054533756 0.6395985546764728 -1.15111245299405 0.12953731947190594 1.7950305844500827
Ni 3.8624305945798256 7.469370793309535 11.008341151319854 0.9186947545161339 -1.9891689277318259 -1.380597551206203
Ni 6.80665856717598 6.346329339480986 2.1010808288530463 0.0018421954150613434 -1.0857830356586204 2.1057748838540444
Ni 2.325171906219547 8.447583192960387 9.340721430360823 -1.2045602884005446 0.9620373831678269 0.7640884078907422
Ni 5.003583819779945 2.053113937276074 10.156368821392768 0.09068615093266318 0.4399268066396101 -0.22030857391920772
Ni 9.090927823821415 3.6055169316419593 7.2093612918958305 0.29993281061075444 0.8165767075974453 0.023156126401489154
Ni 2.7565520673976804 2.8038547676670356 11.861988843354812 0.6076192970249987 -0.7067983159200214 0.4592445331316155
P 5.237436834936545 2.9010276304032567 8.10202882789339 0.9311903158799834 0.9450318497487661 -0.40290549222025446
P 3.7723647648830907 4.035697083314734 10.63026652865765 0.8417285242727246 0.9253788514045288 -2.3247182019946093
P 3.12668523180621 0.9121793184587144 13.222726133476888 -0.46979274096110707 0.5791607845739897 -0.6244096291094601
P 1.2625867452229629 5.069621552171715 6.458547902790592 0.6051435817909966 -0.2256001613354502 0.7487862303160331
P 0.6006112691113017 9.237198749885396 6.970799402230606 -0.13229662738459796 0.02798980034470663 1.0298520288189554
P 6.480962964062773 1.0278965141323904 5.641920969115901 -0.2043206831313836 1.1526885392319182 0.7487926580739362
P 4.240861499133933 2.769454495180098 2.8759371991020757 -0.8942844439925696 1.5543529599562198 -0.2692328104237363
P 4.942764733376593 6.36168760066972 12.637390334200848 0.07129386244898044 2.5920815633097747 -0.25763662094570466
Ni 4.233968421277573 8.553742173387896 12.916538591865129 1.7889982622130736 0.13628749371154592 2.334800525931276
Ni 0.6258672831194234 8.035691558245242 5.173986099780746 -1.20902552326075 -0.16287655705398402 -0.09650172917317573
Ni 8.35383361315418 8.96186633640017 3.1159567747323362 1.052483393065226 -0.3278639898033837 0.9752304848193334
Ni 7.1174145170674405 5.494043518698623 12.440911568576633 1.3847413981712473 1.544189646269973 0.9429286873628342
Ni 3.2914772348094794 4.516072981428697 1.5705445334151076 -0.8514472942223852 0.03631786059442778 -0.2946350525469248
Ni 7.6240231811124906 7.764359176444545 0.6871821874036714 0.2597032736667463 1.5412200221186876 -1.918367431538232
Ni 1.305954530602655 1.9236896562834411 7.761966599353241 -0.8975798269143895 -0.584337957899555 -1.8048959072799369
Ni 7.388784108465204 1.6974367013274418 7.71340249374337 -0.6610373076348228 0.4746549541494148 -2.4778060550929455
Ni 8.83983746282428 2.1465565379064917 9.264109660723001 1.3887140096657504 0.42186660670378956 -0.9188472209335982
Ni 3.9119007538782387 0.8331796229292213 1.7024739505301667 0.1109839819497508 -0.3380905526273984 0.09195370479117711
Ni 7.4079284461553385 0.8706636407729512 1.5027560894814116 -0.1431461685045922 1.5087385045512145 -0.8067738625744105
Ni 7.9317186416453245 8.679789683446845 7.940419175679136 0.07265037647687488 0.45381230637245074 0.40603349632627495
Ni 5.549504423124561 0.41555491954623 7.95704256316809 -0.6519083487503612 -1.1224996743533637 0.19924095461563107
Ni 2.844096946893236 6.838249515084482 13.212828380657498 -1.4584094172793591 -3.5325260507981744 -0.40856037651318666
Ni 4.8483453808232095 5.411847518781214 2.959547163707968 -0.3233262498340303 -0.8284559755335344 1.7239483237912763
Ni 0.6187137380836056 6.343640946093013 12.612569672478392 -1.9094716717104985 0.4438960757000032 1.3984165816654948
Ni 5.842781164794563 6.964687725912618 9.201072882334552 -1.9874272624503708 1.512490515394479 -1.37839617267951
Ni 6.202188662848999 3.3971990024714698 11.923174444289257 0.1794516878038458 -1.2625497204311353 -0.07162579186710245
Ni 3.4303248462589178 0.38008859210336987 11.088193876862071 0.5931501568745462 3.2881313824640404 -1.7054116984396692
Ni 0.5566630140173899 3.3056633936906525 10.940620614900803 -0.9346384223295839 0.49643734013182894 1.3942264548435472
Ni 5.426619728816168 2.561657500368524 0.9122872262902038 -0.9214995709547806 -0.7513861298327252 1.1649933247412003
Ni 4.559505883603253 0.2834161984476782 5.14686588495965 -0.0726442058292878 0.6457798672551202 0.31988791357644264
Ni 0.38718074130402996 -0.3321300726857375 1.0050554029738115 -0.13741260845492465 0.9640114761750623 -0.5832341833124149
Ni 2.5692482581698597 7.000622894278502 6.226766531950605 1.0147892209485618 -3.213684576208375 0.33606683732915027
P 5.876753526915249 8.879158704523112 2.004400993277941 -1.1539116130057419 -2.386750693746322 -0.6332084583480126
P 1.7722558986266401 1.600915006539865 9.83440161990551 0.11579837261925864 -0.270527875086076 0.7531905300313158
P 8.309061165485272 5.64365400609922 0.6366515545888951 -0.09026449001421229 0.09265895838831784 0.0985393284284948
P 7.739856656776997 4.251456931898298 10.789493836419792 0.987286387542603 -0.6023187107476917 -0.6379757978296691
P 0.7988565603561949 7.047013959419755 10.477682994451527 0.13618336403351383 2.319541028669044 0.13774479498336276
P 8.338280001580854 6.909757058244862 4.168354878292348 0.13173252735101185 -0.20245689044976747 -2.929769738292432
P 1.191414088436171 0.9551145422725213 2.5917107616782986 0.34527292930845055 -0.2882872559520261 0.6364997275047748
P 4.402806967961702 6.086094720005036 5.180603826618822 -0.6495501329308297 -0.7258959559814208 -0.2566323480509064
Ni 7.191880223194517 8.390354832673843 5.178561019739933 -0.07994305348354618 -0.5162266069436141 0.7061169735822806
Ni 1.6363757525431653 3.147727258946678 3.1887964214676567 2.7269153552939294 -0.8368372576186943 -0.6920622952614275
Ni 0.23354138478117908 3.3552172745824627 4.9026397643811475 -1.1702309189910556 -0.16728497053432478 0.987694164503983
Ni 9.273738574203593 3.477925223304796 13.5790033741782 -0.3748745542249673 -0.48226901905124686 -1.102435813723953
Ni 8.620877588893094 6.049415359697845 6.02978450652608 1.0856817341940657 -1.5742792665665017 1.198206064047743
Ni 7.239359669049933 3.6574336219474204 1.5020202696994438 0.13318031554113194 1.6804712264442476 0.09916487782763565
Ni -0.22490596754223272 5.494155147489819 9.574368862493639 -0.21592278614668622 -1.9036905462523472 -1.2285512519985036
Ni 1.8094096812964149 8.505416209199243 11.986116338205187 -1.2172926483655488 -0.8648607394148138 0.40703468389727965
Ni 7.660879287005742 7.13046578323812 10.271906480760604 2.3328056069884338 0.9474643704496587 0.7113111161887105
Ni 3.5360001019245764 5.915432903064704 9.221998629484192 -0.09814235010039228 -0.02849476500558318 -0.14113787982531178
Ni 0.9114053588397545 7.162298593527546 8.094009229485875 -1.497824428741872 -0.564151198539035 -1.1700511988800817
Ni 5.123491746323109 7.775242983586166 3.762533059098493 0.33188236693415746 -0.18312862243480074 -0.30030819167230216
Ni 8.662617454401177 1.0334221392965983 5.537642933820047 -1.7423805623545348 0.4716750455854844 0.4242726450421209
Ni 1.483741985381006 1.0389570668600725 5.0236630485963465 0.9599547896071855 1.0523252702208068 -2.3906801107077147
Ni 0.9261887317538271 1.4637976413539662 12.436840838657682 -0.5576087694348267 -0.7724313805387988 0.5331115556244109
Ni 5.722863935852134 1.2864287945426005 3.305055016778634 1.2077410001213715 0.4374626613698337 0.9844957121713432
Ni 2.585462340091096 8.220493022070418 1.4023450615605764 -0.7953553363248238 0.6248698565753302 0.9567679072387717
Ni 2.75059853186722 9.153365527697112 6.495159355583138 0.3116601263500116 0.655894844201935 1.8852806762865917
Ni 1.6335571255654633 4.052711171572876 9.09388133558848 1.0653026563170813 -0.5646479356697953 -1.835542171410884
Ni 2.6109323092823438 8.11901314847388 4.146870987186728 1.2451785761425394 0.05162775147862076 -1.5977364691481772
Ni 1.3172104337149302 5.3892705957618 4.31342300413119 -0.1370477689163382 1.1043024346190466 -0.5297734923901134
Ni 4.244898740415526 3.838095518099072 5.073208557328817 0.21883121804273278 0.3833661366357462 -1.258690237475729
Ni 5.350284240436555 1.4024297133939003 12.559158086610829 0.12137920914114579 -1.4980766539619943 -0.5105516680460239
Ni 7.957765359591086 1.5648030925879206 11.145267817320793 -0.5623467983404444 1.495918984189043 1.5675244643411714
P 2.446084491883476 6.410236822440765 2.6130458143956568 0.6996678755228273 -0.4731670567499786 -0.01583259615688241
P 7.513092069861348 3.4859904034687155 4.011361076594054 -0.26184963058578775 0.5539184650674331 -0.4486904117648531
P 2.1425751110204967 4.3887696474687905 13.26969766833236 -1.136410885117817 1.4605215785263557 -0.3392868869283447
P 7.886592702804293 1.3803737247334005 13.197633841695854 0.603363092851806 0.6336296050458313 0.23016669766021006
P 6.687420413379993 9.718402561534065 10.03847672477062 -0.962154882582298 -1.819108708445209 -1.1345265236109106
P 4.060097276590352 8.074017443222576 8.38527572267442 1.3610741364612946 -0.42683269245981326 -1.151676553027636
P 7.496189610394404 6.647773587706838 7.683054346376852 -0.9723259095780286 -0.696094299238956 1.2630914518672183
P 3.266425873585217 2.030285849476468 5.71824622485632 0.017104006670138283 -0.10971565676028847 0.6831099711641461
