# total energy = -340862.6788674661 ev
CRYSTAL
PRIMVEC
9.31806283343053 0.00000000000000 0.00000000000000
0.00000000000000 9.31806283343053 0.00000000000000
0.00000000000000 0.00000000000000 13.63792684095148
PRIMCOORD
 96 1
Ni 6.729197538761207 0.0984937885893619 0.27686201245790587 0.4521925113808406 -1.5364858498678118 0.313608251215318
Ni 3.4781347069283397 2.140731773336361 9.682955459914167 -1.4094550988678436 -1.1265849001663308 -1.5113923972342937
Ni 8.842208074935229 3.427164902801284 7.911252522908023 3.120013888726091 -0.7689282524815467 -0.10356095001280229
Ni 6.0334084630808755 4.222601343259447 6.491721114618519 0.7397729710738292 0.8873717760331362 0.37611896815502965
Ni 1.1197050297856872 3.6678877400624113 10.43207274144451 -0.24905016482827433 -0.31896154510743135 1.8832777869239503
Ni 7.577830800382325 8.635449576987286 9.136510705744984 -0.164838051655729 -0.7377891078745811 0.5664561925231277
Ni 4.971056110516766 6.355608442442 11.247744287321742 0.08537399469113038 -0.9669445906614573 -0.9858763945689537
Ni 5.5226481626383785 8.70013556972038 10.97505397162941 -0.2231496429124286 1.2758487515328867 -2.2349995571815375
Ni 4.614174300998256 0.7493381196213493 13.373323958557373 -0.9529942991289523 -0.013711436048821546 -1.2804859931945816
Ni 1.8460759879422526 4.130361838496425 8.413455114372406 0.2933060493228561 -0.024475359433544945 -1.7011012439897735
Ni 8.194416341313119 7.430195411609185 13.572641983270314 1.630509292703824 -0.6736434264346076 1.205606470276872
Ni 7.131355815967718 5.509509693932867 12.885208414602914 -2.6919208414966156 1.0532135863630312 -0.8966699135056106
Ni 7.586217057002865 2.100393878991566 6.268822799901202 -0.12511013693848774 0.45362872960673484 0.09937879361065466
Ni 7.634307579690202 7.86984957397242 11.558401982154132 0.5190139398807643 1.0580981681488422 -1.162660048622333
Ni 8.988520298774906 3.453134344136221 12.790180013610415 1.1436796508650882 -2.1249817957997985 2.36420109058058
Ni 1.3109023626710743 8.512264785294473 5.4005507888873625 -0.6618726590519246 -1.059983300986697 0.5167367138108133
Ni 0.9568905165293705 8.542026678234476 1.8942401233265929 2.6685867947563655 0.020031978950210663 -0.28592441214680436
Ni 2.739147091589318 3.6392812869234605 6.191877963601462 -2.2916833830268275 -1.3126551217279587 -1.3461540248163526
Ni 6.800760261923144 6.45677465147444 2.1075911507845717 -0.36851853009995245 -1.4337029156716148 0.2644924675252735
Ni 9.048463397485941 5.386716260882347 11.890062590789515 3.0094497679225785 3.2098006677729365 -1.7738531790415193
Ni 3.4749292932867113 4.924847836537594 4.4225613825070065 -0.5739638137540825 1.207625814699746 -0.9141765549308062
Ni 7.775904863696555 1.6947972365706334 8.959790847205522 -1.0739569895579697 0.25202878784062405 0.23953168381487777
Ni 2.13130189366971 0.45063829492355895 13.295929059818995 0.5539395481133557 -1.536615947687773 0.5775394469204828
Ni 5.080515395540629 7.429198378877633 4.9808577808935945 -0.10734278565273772 0.6156444813223203 -0.1567699299356139
P 1.5506095310748258 5.6542471651404655 6.666927719741119 0.25641534694409385 -0.6108632578835932 -0.884526079054225
P 6.119935995279019 8.245386145440174 3.091322347531124 -0.981976031073283 0.8851819674706691 0.6235153994299649
P 1.7150267511519568 3.0901585214734513 4.2503421483539 1.5918604699833745 1.7762368487823474 -0.9203253481410215
P 0.35999870156247776 8.256437368053463 7.804330546415018 0.45449724825461724 -0.34214106854768817 1.0694621870114096
P 0.5580066066300338 8.47247665666147 12.395007488168815 0.06671087106398835 -0.6711455997134184 -0.5430319000619165
P 8.731798347494372 4.942132843238817 9.609883210560534 1.3341364315301862 0.245780492938067 0.49388577735456873
P 5.725316030968081 7.855024535879888 12.833685117538902 0.5561080165195842 -1.8947258808598917 2.238872409873383
P 4.364850891669619 3.0243357250651286 7.323539931715456 1.4470446270858432 0.34002479353563375 1.513376517543858
Ni 5.023936117540723 3.059623229311776 4.683878070609306 0.7937046880952783 0.3520709260668904 0.4351694944602828
Ni 0.24369250391109015 1.753221491027058 4.613656216700365 -2.919482497433811 0.2332311955181467 2.497219426622551
Ni 7.6325185116111545 1.270201063872723 2.6114989477617967 1.5193697590128157 -0.4966934220066929 0.9303649917652106
Ni 7.6098849367986094 3.78876165215312 11.109359871407348 -2.1016750027530575 -0.9609737177900031 -1.4263860702952273
Ni 5.409107566059187 0.7978078874691937 8.92179551387673 -1.58642027280441 0.15408338424238627 0.6160016075514231
Ni 0.8277775732121281 1.0589419415384234 6.806866388549188 -1.4381671220905554 -0.12540735646393242 0.04119781439454841
Ni 1.911041522562698 4.914653875712183 1.1988340200319325 -0.05420631083907439 -0.5924101933847281 1.2633069103121342
Ni 2.9134135041641276 7.454487601620015 3.1679950963938426 -0.7027629695083832 -1.437916182422014 1.4227484735426401
Ni 5.803932527754182 1.7079636594648802 1.5882181647927802 -1.0494407495841604 0.1853359144987647 0.7626167084412221
Ni 3.663210072480733 3.115093657825189 2.7213123191763047 -1.3186445065421741 0.030144899014496473 0.882204372899584
Ni 6.476743260294236 3.8813179710551395 2.5175616919362613 0.8891563787373847 -1.9576752279989187 -1.838937056025046
Ni 3.342258713549778 2.4407547629676145 11.91803448384418 -0.34539428537766326 1.2235486565775895 1.5664872813259085
Ni 9.146396238688018 4.34535750405832 3.1279544482559314 0.23523048533636265 -0.657138743911365 0.9260316544971793
Ni 6.083306689973084 7.372796144073049 7.510993266922918 0.4469078659431336 -0.8899871021687963 -0.42863863532030055
Ni 9.189427053214297 4.211345123262101 5.804410544381553 0.17071559348242857 -0.26425026960748044 -1.1959064693802888
Ni 3.5266072701950573 7.8035329202297765 12.820919371349857 1.4298478035915825 0.9125670443518412 0.6153014961606048
Ni 9.206357973524874 7.168273981223916 9.9244694007165 2.274521783645876 -0.09243347264107307 -0.3223566868319094
Ni 2.2253584207005153 6.610066104434988 8.492119133279356 -1.0355603920576424 -0.24234318512174396 0.44678239610886283
Ni 4.895933887322556 0.9312434801711786 3.9059428159119167 -0.4275243192101992 -1.964273707152043 -0.9508178603029238
Ni 8.126739250385365 8.15160916029672 2.002566331900392 -0.4432453294898818 1.6405831320000586 2.412906011985451
Ni 1.84655120915075 2.520181931227034 0.5157240325555653 0.45048375621985 0.06061324280668271 0.132872554492726
Ni 0.8303335178688102 1.6317232687212653 11.802548275729022 -0.2765252303200915 0.02468618989277039 0.8009590556648464
Ni 4.509830632512921 3.2030002633342654 0.531804213722304 -0.3497795589295524 1.6487808373195025 -1.6382796806778626
Ni 4.011975849203144 8.418254848578227 1.5275025986663662 1.1012731608744195 0.6386244871572614 -0.35822588992469273
P 1.2543976291744618 1.8429264826780947 8.704406969759107 1.147519850546785 2.215646349465907 0.07244443111365588
P 7.2678002111838955 3.9086385315122745 4.624238740749194 1.0786687932113423 -1.7136574833882292 -0.0019622659326933947
P 5.576637019148829 4.244619925919818 12.323858487000159 -1.2464044781298405 -1.1081138379453368 -0.5109303915416814
P 6.999002050369783 6.250873415314374 5.7115094571517995 -1.5272093096618924 -1.5096579310416904 -0.07631471270233954
P 3.681454839661862 0.4258690200916501 11.288385018711168 -1.0772641995543317 0.21789687915392153 -0.08334976517225
P 3.1003524822988626 4.890100779939826 10.084796922981681 -2.1354271595028385 1.6969039180789742 0.2622844041303612
P 0.4035252370356597 6.433693809642134 2.442689192828085 0.06335352455598121 -0.26498791910445335 -1.2185697153057595
P 0.012434023149386436 9.197105137053546 3.754712518467439 -0.3509938909526278 -0.5270370672955568 -0.322491926858193
Ni 2.3207194765389603 0.7286324520252376 3.8613064991459503 0.7759144539913927 0.20557049637808467 -1.1441730455617392
Ni 1.5419903228814935 6.6698321599507 13.475935399147419 -1.3130652126821838 0.7786279962678139 0.5194304585928925
Ni 0.9349278422464689 6.164317928927496 4.51975902854535 0.4571904788160642 -0.09080519300903071 0.7128082695595273
Ni 8.924384071753604 0.5838400042464599 0.4093303902296553 1.6376345908946957 0.5709533090625327 -0.616985311620931
Ni 3.0807472779326237 1.2508940375196589 7.367890183950033 -0.3020506282847056 0.09309553170510419 1.207325766960824
Ni 8.039792405356195 7.849666649705655 6.303517675346665 1.8393744006727806 2.8441664011993146 -0.10351878392095722
Ni 6.602406656721563 2.2234482178036146 12.942801497847615 1.764616748044916 0.8799839682094974 2.204815834509306
Ni 5.2032715563395024 1.2184858147127298 6.404642884902294 0.19452837963131014 -0.12750434820227718 -1.2580099235792528
Ni 2.181572843078388 6.978465039712374 11.295367975057205 -0.9372948861158246 -1.1324827537080044 -1.9276511708330026
Ni 3.5590807194423686 5.29140179535846 12.831188808484855 -0.9419660663392487 -0.6473742083254335 -0.5138223683774957
Ni 3.8488165676190937 5.237869523930683 7.340546328335619 1.1064261658302688 1.2929234476269862 0.4843737240990755
Ni 0.29851439524584744 0.5428545045293014 9.925314549022591 -0.5365259806225986 -2.435733808513244 0.09640428436336301
Ni 8.622926100433947 5.965051153560567 7.632861416326305 0.1407100482592738 -0.09266178660179526 -0.01787559472884018
Ni 4.833400367122067 3.922419946558694 9.797868607160256 2.2190941988051907 0.9988656077397701 -0.2833219415269508
Ni 2.8067589560766897 8.522738288007236 9.579606960547805 0.6442086661132582 1.868667493209943 0.34853925876454817
Ni 3.79203229223513 8.069489071855816 7.273392912543503 -0.40185031148286277 -0.23760464199549403 -0.22763853192171765
Ni 5.679079802800174 2.1221515558904103 11.04070624748645 -1.1192372015520078 -0.9455424708365975 -2.17237699725431
Ni 5.904688742018507 5.344142031438741 3.950130002045539 -1.6066581971178393 2.6616252758368675 2.100703639978724
Ni 8.22699228925246 4.94487235373486 1.0125733968771697 1.6799462071787132 -0.4928336819409706 0.9956296173009757
Ni 0.7403890520009426 2.0238366741089533 2.448717047725671 -0.11667743279010229 0.1924774106395524 -1.6429737437194218
Ni 6.993010535917554 4.087293751718499 8.720281221735497 -2.7710449986232923 0.09726483259144539 0.14635079148481892
Ni 7.147988558265122 0.3266884902656952 4.767532844011769 0.19428695304446542 -0.736901305952989 -0.23344459708053344
Ni 7.037625421138824 6.288285437904892 9.852734293390697 -1.4918543272013662 -0.04141610105294157 -0.15701727005972957
Ni 5.115737673346894 5.906142359832734 0.7880835570145326 1.694963763633468 1.2683850961659897 -2.6517823216045167
P 8.198739922504153 2.5808145665935345 0.9608423070102269 -0.10877463300325782 1.086854157235612 1.2705335099675603
P 6.708660528103798 0.2000001069180798 7.470106538672623 2.0505568439210036 0.5945943455202406 -2.6078187715393732
P 4.766766899240426 7.3916931756579975 9.132351122461197 -0.7600877713717813 -0.11608067974636783 1.7776183025109062
P 3.659473529253137 1.2513878948539796 1.6692005177521647 -1.0349181304879531 -0.5361446860237798 0.010961641217826282
P 7.699897424525733 1.1352848309740673 11.177385457888 0.11612593116200647 -0.12789181344868297 -0.42271841318112363
P 3.93530682756559 5.290032040110438 2.1938382092890722 -2.040805678071511 -0.6483604834981027 2.8746797392968233
P 3.370967665380758 0.0064816445613857954 5.629176916876508 0.8855681471654941 -0.14492048679619557 -1.5968352974901465
P 1.856782442227808 3.981869187935407 12.629825468962792 -1.1797391155918069 0.5642656126297121 -0.5304934012752734
