# total energy = -340870.12266070844 ev
CRYSTAL
PRIMVEC
9.24869785703722 0.00000000000000 0.00000000000000

0.00000000000000 9.24869785703722 0.00000000000000

0.00000000000000 0.00000000000000 13.53640418647979

PRIMCOORD
 96 1
Ni 8.331643200325825 4.704507381158953 1.8290798255907257 0.5588894359194633 -1.4801645495682638 0.3520655267502517
Ni 5.460616175187045 6.037855153104374 6.756168218563788 0.25377559532840166 -0.7786130838694785 -1.1410913213126217
Ni 2.3190647384019436 7.135712580798902 12.559495816861794 2.12161390776883 -0.32336790170524304 0.16595031088330128
Ni 8.984305309079932 1.382190145207104 8.61141353519686 -0.8742933455826234 -1.542097025407002 -0.539569909655245
Ni 3.8384778133730295 2.4070845956887146 9.361438535789706 0.7907234939797673 0.19689636564285443 -0.2530975954247706
Ni 4.850812532195984 7.743287287611954 12.893993471426324 1.1702057221800748 -0.9683466132153065 -1.9474221828123428
Ni 8.615217524616009 0.16139625129287044 1.889438677395383 0.5923382024962122 -0.16219675737814002 1.092630397597757
Ni 4.3363999586654405 6.887024344738801 8.727542034940912 -0.07055929827580107 -1.5552731577776442 1.9812113634476463
Ni 7.042504204027222 8.378275134805168 10.036986547334198 1.1771554140250309 0.29817186205558965 -0.16828744365691017
Ni 5.330810701085982 0.5825579040416977 9.522589696589975 -0.42759219633365714 -0.34582725915002377 1.0596536855614203
Ni 3.1961095053082347 8.926010766631837 8.37195457470537 -0.5098921800851541 0.21496659288100395 1.4867709991411877
Ni 6.406785709705118 1.6987915694627238 7.878484752550277 0.47584537491309015 -0.8593855752328554 -0.6035942350260056
Ni 3.3672844048210595 0.5650834143540204 10.927790602008224 -1.0801471775290816 1.3165685978497519 -0.5914514290158847
Ni 6.904763347184532 3.4232020319258 13.221818190503578 0.18912623477913235 -0.41506115374618197 0.7293265789295246
Ni 8.775580696360814 6.9792061160509 2.678800239616063 -1.7676131116690783 -0.3933831545521161 -0.4038560290589819
Ni 5.532885500062409 0.2752939651193473 4.998222902624185 -1.177532080638159 -0.53425723919308 0.7328237934495057
Ni 7.027919007542906 6.227323976932974 8.521856544330067 -0.19723086616413776 0.21982237831140852 1.3378575891355151
Ni 8.659676015104345 6.633554531898491 0.3492983457083799 0.22749814968911145 -0.5733485487675868 -1.1468968722508053
Ni 7.966994790822253 0.8544085789574236 13.349940401598843 0.04657450532542946 0.6312942720444353 -0.5479627617046304
Ni 0.15442180825620408 5.94789306927245 4.776428954995755 0.15195759614863508 -0.25407332907447855 1.279649099115583
Ni 4.4445449824391305 5.7865310381615656 2.2975198967974957 0.5641727958055897 0.009922401320034524 -0.12720172936019383
Ni 1.1064864627737077 8.089725011080258 3.7499492777053858 0.2980746743560931 0.6895498132522189 1.6432966742764796
Ni 6.204396455002333 6.494278391215347 11.008954399590603 -1.1208364277183278 0.17142418951367894 0.8727409134938389
Ni 5.780695109828272 0.7617042562177004 1.1460163221862734 0.4102619325853257 0.7180299229697827 -0.09146390963895216
P 4.737830439455079 6.261664391990847 4.705213056803692 -0.4840659630506696 0.39951086471640873 -0.9241138686491762
P 4.963156464786338 2.5826433779748843 13.46822107332888 -0.678237216452877 -1.896585816886766 0.34574292696633363
P 7.524000661966338 8.117406363697608 12.465566041659057 -0.2072579113828366 -0.4322595199023394 -0.12834252783285638
P 7.6713786619521205 4.851820640259897 5.6061157646427295 1.0793442220118121 -0.1890313610724809 2.7654973293321854
P 8.068194042522562 8.671255384792591 4.037381233862156 0.13865162306834833 0.001298921317081634 -0.8970656062821325
P -0.026992324628710734 4.417631271742009 13.391320925448005 0.6773383587876914 -0.3692862615039124 0.2509412112034
P 2.410969048779021 3.3285508582920063 10.709610120623562 -0.08206781313603285 -0.2322096962321678 1.4521184420643252
P 4.981126684677921 2.5692420148133284 4.046586462816398 -1.1655075453734571 0.7964758230825121 -0.7478554909716475
Ni 4.5763111804810155 4.3677345469272435 12.497756134470512 -0.23838908557000235 0.961559929310776 0.9705541623895865
Ni 2.2198817028294604 1.799953826371697 7.7344843770134935 -0.794813861999057 -0.21511648819530693 -0.0025716173819181516
Ni 1.8563893805551448 7.064960042368325 10.06550768171488 2.460754241816981 0.22900455903130884 1.3366422286711754
Ni 1.9183094125541915 2.835687750714828 4.274390214297403 0.2636164926782234 0.6355826150071441 0.26424512740115785
Ni 3.9634739646003814 7.971008725682235 1.3400456789168491 -0.16637917089060378 0.9191459831209395 0.36873475987581655
Ni 0.5803964833578773 2.6689984696515237 2.0523628135704404 0.8797160592600913 0.06925420631113234 -0.04089776665562633
Ni 0.18141875723383186 7.313509547960915 11.519804374715466 -2.0508427505925386 -0.4056054076499208 -0.48086571094581704
Ni 8.32621421469723 3.620291782769667 7.502254198749107 0.06577987460928672 -1.0496464378370634 -2.011552694743665
Ni 2.970099076337255 4.797872985793811 5.314906640290528 1.32213143664951 1.2249745903908387 -2.9116043802373146
Ni 9.035681825548147 0.4809359868503717 11.147459198874389 1.3536711591290043 -0.894855228894375 0.11018025510153284
Ni 1.687702380759683 1.7209329520774685 12.177863098655749 -0.09301454195552368 -0.07265346180066842 0.4758199209917935
Ni 6.3736938688548435 5.721706915042623 13.566725254480344 -0.31044476588567177 -0.005156861610591119 -1.1313427265662903
Ni 7.6248299657532845 3.5679626504245427 9.777696528946914 -0.9702780259100644 0.07828597749609743 -0.011481518277038291
Ni 1.3730986752362209 5.151626429248859 11.719656711602369 0.11179619343840101 -1.068362526189328 -0.20833083273204123
Ni 6.027885056839255 3.9340908515815656 7.736907535846018 -0.5659622836058447 1.0006939191977604 0.6001697827254889
Ni 6.6834420080154215 7.852958346528264 1.1464944798642944 0.527365140058937 0.7776080396437318 -1.5435011048433804
Ni 2.117554109993395 3.6773932431971676 0.26345933137088123 -0.4686737968653154 -1.1211734993427722 -0.6102935014230522
Ni 2.32886835810605 0.6879181448975517 5.27601679076808 0.8267521054685505 -0.575004853424087 0.7346125099188122
Ni 6.07078976609147 7.627641569894839 3.349746099118327 -0.3675865052039863 -0.06280999334768538 1.122684793780976
Ni 5.574042205423985 2.876049068062676 10.996135704392595 0.6190486219078629 -0.5678880398736477 -0.1829900399744074
Ni 4.143842069760264 2.9078275938205143 6.625392556059931 -0.5410912313957777 0.07812965442389125 -0.21874714296935877
Ni 2.4898604413035716 4.281869636235809 8.814120945105136 2.0580876050804107 1.9069679314520387 0.30905919839205487
Ni 0.06783642400349653 7.856990778783915 8.96635173684445 -1.9799160416749904 0.31847303550678696 0.0635638407945744
Ni 5.898699245493073 0.6472312733859449 12.073985424062695 0.3392308368794286 -0.13813663110514274 -0.42177738942409293
P 7.416096104336334 1.427471769802673 10.320993710683016 -2.3288070273520023 0.8190133420633959 -0.6343101760526236
P 9.017683859563062 5.393563115890093 9.548822703126508 0.6316616826861831 0.5783532010710298 -0.06151235758218439
P 7.723976006534433 2.295785765953609 1.7228733288830549 1.3101848058105954 -0.44901077121874927 -1.315924793618166
P 1.2243148731796611 5.271304579221624 3.1323240109560575 0.24601600598764087 -1.528393816888297 -0.9258017978745604
P 4.195061358365301 7.982939545888176 10.759031462369657 0.6934866864127799 -2.4337738565733957 -0.2778676032805989
P 4.793174647294108 0.27487222449811405 2.945995120042122 -1.5030041731705985 -0.9006114146518618 -0.02460468592255763
P 0.5947014442978215 1.935770954064901 6.254577114840605 -0.2591150052634441 0.31965060075465596 -0.6980339394638301
P 1.8080926804656716 1.2635478493917531 0.9447951780199308 -0.6778636351635423 0.17414081711389365 -3.834195127373745
Ni 5.834476287733345 3.1297408496510037 2.024111741166514 -0.94527199078403 1.034841511613747 -0.14894580590550477
Ni 1.9765022193261115 6.6686625888765905 7.878011219221173 -0.06612903041858934 -0.3663965986609432 0.08190711918845249
Ni 3.8401055841918246 0.6084440844094545 13.219963826587847 -1.6304581277509147 1.237062117682992 0.960129881732469
Ni 1.5742855992205775 4.0372045837335255 6.770503700206584 -2.4577933594164443 -1.3055797029384162 -0.08319447054130834
Ni 2.383250701370336 0.6959441648779509 2.73928117423213 1.300980770713824 -0.7006937456841804 1.8938992711935383
Ni 8.132981170850167 5.139658614251583 11.70380536838457 -0.6363811996490395 0.7765631433189852 -0.8909949746080204
Ni 6.502861182805357 4.661020003943192 3.968399821066803 -1.9588705338586003 0.3644412747067852 -1.2737566448905484
Ni 3.318053586250346 7.616913080407327 3.4575766671656587 1.03439233989147 0.18134684794402964 1.9148054252185862
Ni 3.7166077220135914 5.553010666549327 10.83574293681472 -0.15239159836226013 0.46624667548106147 -1.253207359984287
Ni 0.2515007650714387 1.117640392361587 4.058444218309449 -0.054950388093950524 0.2645724288335895 0.8596537412925775
Ni 8.753790764263764 3.5020564296590146 4.065063511349288 -0.35698019044304974 0.45997986863574325 0.6712173334916183
Ni 1.7949595295413032 6.788960401604238 1.6068391658569097 -0.11409578810585512 -0.027892355534893894 -0.0814440635091049
Ni 7.732022373650066 0.7223454977150651 5.837493212966815 1.7978796238631038 -0.0916585421482615 0.6639501104062436
Ni 0.7578003808619428 8.465647583243554 13.407957483111916 -0.05603847895180672 2.953350096715533 1.407400787441976
Ni 8.67792369593095 2.8239696505590715 11.899799148535099 1.054795071917538 -0.5222543011949329 -0.9672837191684308
Ni 0.6292416312289104 3.3113575290184847 9.235658094986025 -0.17109277431618922 0.5831161696773118 1.4020294958277337
Ni 8.906782723834821 5.907827710255292 7.252832540950766 0.8429757664162645 0.6657557961564148 -0.76360838293053
Ni 7.06683752802864 1.5321300344929216 3.5964467900138875 -0.05570886352652986 -0.7296019440780983 -0.9821516374191989
Ni 3.441662432802588 3.7307212349083705 2.4495074477837746 -0.9673659944695921 -0.8003769579091313 0.5776356061787148
Ni 7.26079197030676 7.40315717606648 5.621005243285786 -0.1477633555616294 -0.6988996298982351 0.043323859598615705
Ni 5.618759659451676 8.305228919311745 7.543296220257542 1.5009498617447312 2.0166833311020107 0.11460589497305423
Ni 0.8010010484448477 8.816922375679074 6.949292127776408 -0.8211625271959148 2.418186800768416 0.5968103793349528
Ni 3.7846503919787873 7.764309577788778 6.399754849611663 -1.9563212850741858 -0.4744060713634023 -2.457248799766884
Ni 6.390378519747491 2.599226293191358 5.570162376682596 0.4164222957597667 2.0292477980305828 1.2118753340047193
P 3.4809601498995186 5.295785882388388 7.24860866064995 1.3608255107855982 -0.7380680725675806 0.6574444480772419
P 5.736856282094816 4.766714122790855 9.789013235616672 -0.8940350469859247 -0.12993789734443428 0.09283919271992397
P 6.620458375765458 5.898634504608235 2.083523526312963 -0.10975319486644325 0.11063096948570625 0.6176136892335492
P 1.501600082942682 0.3827629090813675 9.566650493071446 -0.5792818835328861 -0.5081176046832346 0.15995784074529226
P 3.1831335822470455 5.479270798718349 0.3399266401931247 0.698741764164132 1.3248758321638667 0.4284913111091588
P 1.4603323932070962 7.208305610098456 5.985797932475571 0.4675810780217689 -0.7835506303804118 -3.1671057000075713
P 4.201119255446612 0.7469442593443205 6.839471239955187 0.3962489061356853 0.6739108211633813 -0.2820435890351594
P 7.6736260955257976 8.571036495062694 7.448718111336637 1.786221470798885 -0.6451808002185405 1.898330053271382
