# total energy = -340866.3857549682 ev
CRYSTAL
PRIMVEC
9.31578389471203 0.00000000000000 0.00000000000000
0.00000000000000 9.31578389471203 0.00000000000000
0.00000000000000 0.00000000000000 13.63459138378019
PRIMCOORD
 96 1
Ni 6.673138107260466 0.9831598691460981 1.640677201685404 -0.38466351529093107 0.02227449512748422 0.18947256237495755
Ni 6.615389563822272 3.0558751735953535 11.538354610409781 0.3048865550716039 -0.03795539619785076 -0.33168876286611265
Ni 6.251747945317692 8.60062034311778 13.512384091329732 -0.7922862104811969 -0.7052983343357272 0.13030093711080784
Ni 8.861136235559965 5.727828267472229 2.493712340317971 -0.7530236654361483 1.0923457764778026 0.6919391394200018
Ni 5.9342287721369535 2.380704430858374 5.135673268426293 0.2566678292745322 0.8374453235163384 -0.6013671454676998
Ni 3.549155238701952 4.9181096600993675 9.98424339760082 -0.37490000814626406 -2.352684862410864 -1.0732568781671514
Ni 4.152473341410089 0.7705066104314121 8.907205580916456 -0.9109714177299473 1.1255315192011521 -1.9310414274614742
Ni 0.12835100528839277 0.5315027258142782 10.892006902581299 -0.6242566484713636 0.5603570216039252 -0.4061885338469005
Ni 1.6938982742232975 6.184273723649223 10.596135747668294 0.9001074784322499 1.7093048628464886 -0.920090606422396
Ni 7.315731554239523 2.785242340005586 0.2952879868505392 -0.45847243085228134 1.3981913530285661 -0.9898821732942372
Ni 5.522182341290889 8.171777554178627 2.277944815097173 0.07168595568107654 -0.6245844641244276 0.2404462252093472
Ni 8.78255759966689 2.6618547842967817 10.128987387546124 -0.7644915568664318 0.9814864930313743 0.3260315645803353
Ni 8.2887465348868 8.131402947425743 4.198690807728135 -0.04825137880722013 -1.030737259637386 -0.6903239724140822
Ni 8.505785664588855 2.9073815806924963 2.170095055097445 -0.7635659597283688 2.5195160332372217 1.507446010992036
Ni 8.413950668425972 5.724912427159896 5.26351097403031 -0.0923051745933249 0.47626420761806365 -0.2048539299270343
Ni 2.9331304069649873 3.382076657226874 4.3979190904872185 -0.7739313621230929 -0.854160065167858 1.6803161889236224
Ni 3.1898454596390167 5.105859965705652 12.170726779463303 -0.33031913621209563 -0.35092961337359563 2.621590628512485
Ni 3.7815933589352757 2.8063984848915577 12.53126624198064 0.5941986527437186 -0.7611246972767278 -1.1064662750395846
Ni 6.460142027703947 0.9398694220808799 7.344586262812753 0.5384357960508017 0.8363430915910951 0.44795584759167373
Ni 3.392566229724278 0.47576266535160855 2.579964387282192 0.9614172330853248 -2.354085599413133 0.3634686263808708
Ni 4.94595453771459 6.595556260228158 -0.006698980091370411 -0.29061307587172536 -2.5700994026117288 0.5757322185084149
Ni 1.9791196251584775 7.502410544715078 13.095643437054322 0.9580506306059373 -0.7539333217346113 -0.3068778744700199
Ni 2.0374830103238724 5.649706104982683 8.002441758302021 0.385535119262607 -0.6836511883795967 1.1450415642096217
Ni 6.156205267224109 7.99125629675883 8.198166374794432 0.5238090472765624 0.7129900465530301 -2.312572567771011
P 4.023282052427855 6.3131296444166205 6.490188225018224 -0.8455386420474341 0.37334731894716344 -0.1387719506962965
P 7.302586983374659 6.180947988852088 7.370273604912524 -1.6174372900112144 -1.0397721161461448 1.0604173032003223
P 4.500715969383402 2.0734791987163845 3.49423217247376 0.221332901418664 -0.08751032430784284 -0.3181781299741875
P 0.9675279840211926 4.377132782215942 9.560166563625852 0.08905401464587888 -0.35196113996190354 -0.960514004544765
P 7.778958900983222 0.2940471244556421 5.783397849092357 -2.6001327157490253 -1.3475994990136275 -3.2832113194546033
P 1.584866341266269 1.6147234281705134 4.873002635203782 -0.5775188780951925 -0.13415090698451734 1.053758403122908
P 8.081293346658837 8.65973830676656 1.7473410624143333 0.31143901147814107 -0.2675335683444425 0.33216338850968596
P 7.416295439771916 4.0234683681027645 4.612213790297857 -0.6084417929262941 -1.9491311950836496 -1.1228125776080922
Ni 2.4427102874682496 5.790430334241815 0.9759270946461119 -1.0709431424323104 -1.1801682327094256 -0.9587132038906006
Ni 1.6487446704089848 1.832302873329806 2.686832263675147 -1.0066349672725436 0.8396611002207345 0.30728256610760624
Ni 4.312844558588425 8.75042746152875 6.961549182550097 1.0302114690409032 -0.9740305509739614 -0.18930646911073848
Ni 8.35232675894966 1.060266611207387 3.4787567925157785 -0.07152680439539295 -0.7861968097540074 0.10964315165114022
Ni -0.19272866043986595 8.20711232192521 13.369779936910763 -0.591270166243014 -0.16691396034815126 0.24115764945407503
Ni 1.827076718648595 3.006576046014305 6.728929404533735 -0.23946586357394886 0.859854544449474 -0.953085830401494
Ni 9.161421208811575 3.943855680213943 12.586581502704517 -1.862095239309064 -0.6843667263893827 0.775884886305038
Ni 2.204161013097895 6.213665021366194 3.3605311125803414 -1.5540084321326075 -1.0698337114182157 0.48598246334709205
Ni 7.2078081995482055 0.7213379038227998 9.927605295585087 -0.3793269335693661 -0.0617625259197775 -0.3813573337358336
Ni 5.276972281542521 3.063979905453916 8.687852410532026 -0.6533749059935586 -2.129922684744842 0.7296081147256854
Ni 0.5768184242657622 3.5351256683812675 4.248661603317233 -0.1350289387140965 1.802445131746599 -0.8102371385326627
Ni 2.061722679629596 7.813753353272567 6.766043486975704 0.6022410634322208 -0.8743262557030879 -0.15966447787458954
Ni 9.162343471402377 6.97337650159335 7.124305240367274 1.5154408562720545 0.624599633633079 0.03349093266859394
Ni 7.029010362121321 5.7356348942509365 12.390502886429779 0.003722700267225847 0.18027058416071534 0.17100509969838937
Ni 4.358370793752558 5.8141296880903015 2.3021872791380202 0.8863569616153767 -0.09532030727056487 -0.007248968252929451
Ni 9.319882690322089 1.201102629871464 1.1430382813642987 -0.018447408071910167 -2.219186244298365 -1.0404256905697435
Ni 6.41647894928891 7.47169640570625 5.626764124352705 -0.6708663779101026 -0.12050349140441183 0.5547473887266317
Ni 3.121039080894945 3.706405668325554 2.172208806429293 0.1457499246760264 1.1771165903672953 1.0786487386066843
Ni 4.329966969112608 2.0044306095949302 1.140822987989625 0.9430415587916146 -0.1565938093690658 -0.5454019429559898
Ni 7.761165754029365 0.7220011876254777 12.732308307834968 0.9126331217030862 1.3831036054575083 -1.3838132299300232
Ni 4.08450538320311 6.935628945856689 10.946327237601157 0.9161197947001061 0.07812322666598803 1.6918912953557315
Ni 8.625353748962015 7.943643326035712 9.23134082371323 -0.28100974845400634 0.01872225899985163 0.31732760904843416
Ni 1.5436533139762914 5.372254117691228 5.803577699841803 1.1070182908883128 -1.1500945532524967 -0.5413046329581644
Ni 6.401527116377423 5.4391693923349695 1.415993539841813 1.6836503955031776 -0.47736515399172624 -0.07867318563218709
P 0.8675658981187575 4.195791735826544 2.1000273192342367 1.7615291102585275 0.002520709539324691 -0.3640041871693666
P 8.1767708142662 8.14205088824682 11.383547710862617 -1.3521398100861421 -0.7633011361027564 0.13426892061962037
P 7.919981235322208 2.6174557589658525 8.198957284834421 -1.7150672192515624 -1.5127149727004592 -0.16862837193609667
P 5.689903711844405 1.5490657843324118 13.052748910798288 0.1792431713374655 -0.06201680802242868 0.2952698579174463
P 3.492655010285651 2.5591855316379117 10.029045796367928 -0.3011258024775911 0.04737746084269905 0.9291213491660966
P 1.2072510471434772 8.83885288084079 9.115719836913028 0.7759198533080315 1.0356490951167066 -1.178407798374893
P 0.9547374129386565 5.659031204511903 12.509928439311633 0.6463812482845449 0.8660922978290697 1.1136512228237982
P 5.09549149839694 8.508980978413552 9.942643765285405 1.0958730729047708 -0.18687060597573624 0.576438243436504
Ni 6.645190756024044 6.711099926023272 9.849601443549108 0.22809027474715557 -1.3062679872546923 2.942025415731333
Ni 5.707268332745968 0.2087480821685832 4.450848578993879 0.01990830888815281 -0.8459631311793623 -0.4289602803257774
Ni 4.680752806048433 4.6393534630835465 4.218596774435465 1.8413382092673707 0.9457990669320938 0.9253688241021999
Ni 1.41373539386191 2.788931390368794 11.427764146832134 2.476131495604 0.2986827402537372 -1.2777333701501092
Ni -0.037064708788117726 0.3059219539959979 7.061163789718825 0.8561598692067061 -0.1702970178877712 2.474605802988093
Ni 5.048456106266041 1.0829691761951072 10.966547146220709 0.12782419343554116 0.9642878697649007 1.760256414193691
Ni 3.241576006777634 0.10615987682829897 5.118262068606002 0.18648391206027884 1.0418454537354058 -0.8627884302668173
Ni 7.1571489675403175 4.390370510918261 9.366445772217093 -0.18424473831711494 0.1368392524499579 -0.272095476683512
Ni 3.1509427467179165 7.8326550784921345 9.084851055894026 -0.8582013251167672 -0.30007370706399294 -1.4470811367507335
Ni 2.1999875419799224 0.7806654726058515 7.1639550791447615 1.5694317086662133 -0.6759869869661197 -0.6888211626163105
Ni 6.434048517432873 3.914063803795917 6.783986618047862 2.5264145601292682 1.3124969988835395 0.34496722514257366
Ni 4.0423141986198585 7.272878949010342 4.183010480527753 1.2335880430914625 0.7435290956821518 1.4167122946508892
Ni 1.349046591533338 8.891598848407664 3.8627748248068343 -0.22865951698706427 0.728985650650338 0.6480848612392129
Ni 6.023520559337322 3.308742807582502 2.4865270763150873 0.37788737290936214 0.1470241634027597 0.8605281734777309
Ni 1.133777460742923 7.875666052044988 1.8596353828390269 -0.7355512196829977 0.2018755640250007 -1.1459141966225619
Ni 1.805287100467931 2.980016746555958 0.4669899917984956 -0.9646869049755321 -0.07907839149040574 -1.4327045563140874
Ni 2.549376011353928 0.47761371158183424 0.26007618744939626 0.010831800508181345 -0.6445254260227288 -0.17470903091253784
Ni 4.156022655017115 4.040646673329419 6.690425407156943 -1.637600909443283 -0.5991369705856004 -0.9045984243240679
Ni 9.067918687358251 4.152482657193835 7.391543402360191 0.7390222089507337 1.2151311219378556 -0.02527651517860163
Ni 5.027299961380069 5.307360368120257 8.40422592177407 1.2701627568917029 2.776194918255348 -1.1118789614147238
Ni 2.029927909706293 -0.5123932586171872 11.206557135482354 2.256294719114888 -0.30867713246228773 0.20420421215817733
Ni 1.5128646486974995 2.0025488212783444 8.869751472367778 -0.03391619313147062 0.6070991628554705 2.171219486611099
Ni 8.822308048908827 5.555775057477068 10.728473908399748 -1.3070825127361878 0.1385652340021291 0.07749176372957622
Ni 8.591742401208345 2.26351187134031 5.504215920759368 -0.41397254866769345 -0.14995085013125142 2.2667087153593606
P 4.405387554315966 4.176135432123594 0.5249183298629772 0.2777315919233668 1.5180605532830889 -0.15348637408833568
P 3.3421492080937725 7.657378607321039 1.8530770710822133 -0.3115871070202311 0.4715418624417298 0.40761678165299475
P 4.542655627805526 1.7213053100024822 6.6574978379301895 -1.477606044812468 -0.0007219657676890792 0.8674087026476481
P 0.8356295282825232 1.3372621250953134 12.82288287845709 -0.10246617428672675 -0.6230209762920496 -0.15304157324143322
P 4.162981545474985 8.170911186290297 12.753892047194856 -1.5266704064392866 2.9536519442266678 -0.9952010144039891
P 5.497821566796474 4.908672771165203 11.124244733464096 0.17956198812946494 0.3984484848901654 -0.8544230890212575
P 0.8986973842393827 7.161629859521891 5.0091714462113766 -0.6456533689795848 0.399835337935363 -0.6385342414363003
P 6.774540413329952 6.297218285779351 3.764211038044595 -0.5572647558318468 0.07126455187294177 -1.253079833267487
