# total energy = -340890.7475482933 ev
CRYSTAL
PRIMVEC
9.04150848081889 0.00000000000000 0.00000000000000
0.00000000000000 9.04150848081889 0.00000000000000
0.00000000000000 0.00000000000000 13.23316159136010
PRIMCOORD
 96 1
Ni 6.5165316665849335 1.9543401566396341 11.324860163854897 -1.1471470405883986 -1.4192255479910463 0.15840206622239816
Ni 4.580672353426607 0.37364576583712783 5.951826166921542 -0.157745920695638 0.07179111380037313 -0.2757248459059832
Ni 2.648221688992571 1.7960233418853873 4.670763752945412 0.8721148498740657 -0.9741045987450062 0.7183227716198533
Ni 3.312582695921601 4.218804056629963 4.657027893152455 0.8187904274193125 0.3374385208656963 -0.10915824159492167
Ni 5.024709879948355 4.686042094097423 2.636416191275574 -0.09927697792546773 -0.046887408580157955 0.8229237328613958
Ni 7.244364063552503 6.187158551525969 2.6014807063795753 -0.5417322074138863 0.6810073229988465 -0.3837245484164295
Ni 5.178090031032939 4.49165870172726 11.407157783001448 -0.27344453451223877 0.15846762935301098 0.3483852496851871
Ni 5.608321173995022 7.821881380834785 12.376525943591314 0.5443156518703465 0.45007495081720555 0.4179266482194351
Ni 2.0192581880465728 6.293269695898092 0.5072141633814762 -0.29778696791234516 0.9539306949002927 -0.8415405766316345
Ni 2.5895332569783043 1.5977521008376496 0.31509747720542447 0.2575715720357242 -0.3868535809637144 0.7761098578316504
Ni 0.40021152626607864 0.1299102031840075 4.630402458767058 1.2294184850948053 -1.7225930953149624 1.2511106253562583
Ni 9.108867791214513 2.163813826783917 1.5170231834249572 -2.0985963638277343 0.8364896444712884 -1.1606774709746657
Ni 6.922495400592112 0.4519841083885397 4.778825150712307 -0.7474330587222482 0.5334537694551781 -0.8388249774726844
Ni 0.5242212409687257 7.534831567310066 2.3277788719309096 0.7753302993531486 -1.6167685460789638 0.8217430822897331
Ni 7.5002387555882075 3.862722325306919 3.8781236309752445 1.5041223459354418 0.3142631111904975 -0.170028594717733
Ni 7.657886498709569 3.629216325430095 12.312411702294693 0.4071498693189053 1.4807741581278044 0.6763376854373191
Ni 7.92141934848924 -0.14620933065159636 6.869347605018816 0.13677548909155798 -0.36218410324149236 0.698331673209907
Ni 6.907929530314037 0.9212573894311669 0.5203342964420067 -1.0317371616568103 -0.5148634080475004 -0.6248513446325691
Ni 1.915696749086256 6.292546375213891 9.171190005516028 -0.5619071396998645 0.15725304021961947 -0.46890905280457307
Ni 0.028814383605957148 4.930036243895144 1.5301243293175273 -0.46619499630751976 -1.0201106331614753 -0.8501401453751876
Ni 6.339462763092805 2.002305359510638 6.799661986152145 -0.4708957442172987 -1.093334108533001 2.7677318750896593
Ni 3.6104551951836608 4.433051643289965 0.7255530326614837 -0.7391371372620431 -0.13475331645520663 -0.5752357384879707
Ni 6.173099005726835 5.733790188178043 4.8138139805087645 -1.363970227062167 -1.4879781320754115 0.4373490186101049
Ni 5.199192911994469 2.7874247546668367 9.173796672431713 0.03921909340162278 -1.0840699096222555 -0.2496962830527055
P -0.03829711777581747 5.403585254332248 12.478103675575213 1.1543952375103796 -0.20613022553629662 -0.23057061796684808
P 4.102249969879706 6.057195907592358 12.55334801389996 -0.7071356446547822 0.5140473399041082 1.0547909581524801
P 2.3146171479310373 8.293432217881787 1.370677325994218 0.9585838774015879 0.542835210670078 -0.191348953462064
P 6.107114076310701 7.728663427658526 5.86346802459225 1.370768223820607 0.38598480520551587 0.15483080393137205
P 4.866474438771081 1.0826844831274733 12.581653360574412 -0.45133684824876463 -0.23248608982200605 0.6006063560422753
P 3.8704799396449623 6.092493956981311 8.038801637422905 1.459373066744209 1.2152627624197134 2.104540754336627
P 4.7442422846498555 0.9768355425033746 3.7266304427255683 0.17449871467394465 0.0246782194729704 -0.4508164569689203
P 0.03125649506598697 5.674767220347333 3.6338790313906184 0.594321551474828 -0.009107618728223023 0.3388865661661325
Ni 1.5774087065945284 0.9905786355031722 2.6333592572339746 1.2430414751948786 -0.2591867390416439 -0.18035080257934746
Ni 1.628746392155614 6.694631302052048 4.765910259895918 1.111587141205918 -0.053646067460230186 -1.5163096320302532
Ni 5.848545014726351 5.732207924181355 9.227430901165134 0.2970063809925788 0.29774325915860334 0.3158140006173851
Ni 8.849087167484129 2.3295627615683174 10.390506149285438 -0.9609215243958289 0.2615511255087624 -0.8603939618927118
Ni 2.521640569257593 5.383576395905569 6.7327683851264855 -1.9572502246463583 -0.1532472614943361 0.07721305614689283
Ni 0.6099889910977254 9.206516083581496 9.090904122022408 0.00040314897568962825 0.053171698926972946 0.0012423570475333442
Ni 1.4952666013950802 0.9971789367464959 11.3791028861139 0.24754015594165113 -0.21681495894365238 0.6451568889591406
Ni 4.201290654563774 6.940035927183959 1.8715660499923663 0.001577114679132768 -1.6184770441296386 -1.9653761961876024
Ni 5.3003764342054795 7.966997593102384 7.983910639000689 0.782083301806266 -1.2668856288023278 0.35625565357219935
Ni 5.401026507411891 2.8514295937099727 4.859786434894797 -2.19854954188462 -0.31459221239514207 -1.5051186484104402
Ni 0.9186172689338373 7.362355750162607 6.69972438381967 -1.5370784891464881 0.8049913167526911 2.2989207813155312
Ni 5.160621836509511 4.500483214074498 7.38417019784722 0.25826217034484555 -0.9726861211309247 -1.7302192444016526
Ni 8.102683511949728 7.4339192903556315 9.042457910896411 0.2970526608494819 -0.3586449797399823 0.028692225728369943
Ni 4.562616460847267 0.17258612355179995 10.405737474592975 0.07477333635714865 -0.07473194159625193 0.11737343041586237
Ni 8.029284545520547 7.135043183644244 4.931337316975849 1.2008440158912224 0.8667263318686428 -0.2892876721920824
Ni 7.0538142708086 6.246624553275752 7.170084454190308 0.12094315004499172 -0.019160117868218612 -0.9029536896317933
Ni 2.0543934902815812 5.454326200328869 2.7048983853539075 0.6479455074478712 -0.9641420882156557 -0.2157914027751445
Ni 2.2042836190649 4.995144146981685 11.705459753919751 1.5541308166430847 0.31159199211623756 -0.3722219470934686
Ni 1.021889379620474 3.5240997469987483 4.062474565455555 0.21576954839827356 -0.5039408475977256 -1.8041590291139122
Ni 3.8822158177461055 2.544199133096077 2.3471394541943744 0.3726315238270615 -0.4986240633705025 0.8234109569104593
Ni 1.1597271775033122 3.2107662681119162 8.400820927412376 -0.34545496341226956 0.3487763144760187 -0.8123423578011235
Ni 3.665545106794034 2.543502936937535 7.002089608681466 0.008653304799623807 0.13517446315302525 -0.04823363819540725
Ni 4.146173618427744 6.836347907103907 5.865003272744465 -0.343472385764602 0.7603834482353292 -0.0897736664207228
Ni 1.1296099125149401 7.223197892031103 11.453089550598996 -0.3375683615753412 -0.1683818031429294 0.16446858413145224
P 0.05031418679294309 5.795064491638324 7.964431612975186 1.1737417603577913 0.3214452307612335 0.4930044031908799
P 8.261723647388175 1.6873624921014614 8.025145342905212 1.2380990435879387 0.36879878034453256 0.27183425260232535
P 1.955316639563304 3.17690581858281 10.51913245825499 -1.2738816005041866 0.06618045248181506 -0.3583621583922409
P 3.759920373065012 6.195431531851505 3.798208449332277 0.6469522902966665 -0.37504553258519274 0.8733091272924831
P 6.71639421313791 3.823183808406843 10.167011811828795 2.7245147162722367 0.8478009557190495 -0.17906370833680774
P 6.272284354547742 7.700354464380654 10.175070508401637 -0.46988118690985525 0.3995365757480216 0.1731514566174308
P 2.487762036711382 8.69427845804825 5.854496135655607 -0.6190344808404757 -0.42085616316140423 -1.8098666210216507
P 6.911763129940296 4.164862416605757 1.8160267754069344 -0.25282120183493234 -0.9677192640439526 -2.2982101284017515
Ni 5.472526757045049 3.0637513390482924 0.2106056670150557 0.3974089878820575 -0.42494730251164226 0.9408296387419604
Ni 1.4757821504644464 1.1039862772771596 6.948720296148634 -0.9799209483164671 1.4451661791162078 0.27666329855985256
Ni 6.7488441873328275 0.6810624815272049 9.346317697121936 0.47136779875771073 -0.1425949239868125 -1.2132305624810331
Ni 2.801222096717949 1.6004735949119517 9.267606844418161 0.40882442880785075 -0.5969785294817009 -0.32999646276535427
Ni 6.475401844179618 2.0856951928903307 2.6968261265182365 -0.16375098923913736 -0.2975828223213391 -0.6430429279399313
Ni 3.9368626954374055 6.632290100582571 10.487558606238808 -0.015070006959245015 1.123588279431852 0.10750322249000197
Ni 8.076752465421162 7.109473797457778 0.14165421864284766 -0.543188994465071 -0.22311081925469317 0.4552809204981772
Ni 7.813038785470441 4.160838945299896 8.059961479888317 -0.8794386372289886 -2.0766625398691207 0.3712554694151413
Ni 3.305783481490122 8.487508198961164 12.518530972766 -0.9701047335569937 -0.6099739133001043 -0.16066129457022008
Ni 9.365646634105467 4.857441971727135 10.289338901789822 -1.3173183315315828 -0.2429275968703042 -0.5222743557995908
Ni 8.324227596011596 2.1948262011189863 5.650110122373814 1.4641787156629689 0.8468200798630191 1.0478723766557758
Ni 3.6790531205714663 2.7444052569740496 11.663536991214382 0.12128279277259757 -0.493874207390343 -0.04737746084269905
Ni 0.9871519037617752 3.3148973221110407 12.867119101800734 0.08075089409682223 -0.010881422799194162 -0.5006210391958732
Ni 2.8258330829978497 8.271868219984079 8.022988038964586 0.7232472055046641 0.13445481137818135 0.016798559614577522
Ni 5.600111484229354 7.791628493218126 3.667358833409665 -0.6047800278039906 0.6271131440835522 -0.4188450462686464
Ni 2.984701429773799 8.345854884469173 3.541948589032236 0.6433262635083049 0.381668180108033 1.0444764636003496
Ni 3.6450480069055198 4.374128132053333 9.4890767881099 -1.47343520126423 0.184758701839056 -0.30467443906079783
Ni 7.137565764530391 6.1013908013969695 11.296223897967426 1.1205597770181732 -0.8195026229949887 -0.36635134724530455
Ni 0.4878653350791296 8.790751354303408 0.28526592388731126 0.9607410329539067 1.4943603814526716 -0.4201673646244958
Ni 4.447264894734492 0.12829810220909704 1.5156597239352403 0.6296068570396834 1.862531041294902 -0.2379715384166095
Ni 6.143216819960827 5.6122994377581215 0.12121860101249078 -0.5626705002284502 -0.47237541408661876 2.1132300545805087
Ni 8.1185061519166 8.542751816216931 11.243092377109523 -0.030452145842270135 0.77414142125137 0.41689049364543684
Ni 0.11875659823364547 4.854087572054158 5.702143099942587 -1.1511674746017013 0.7712491873052395 2.053118434000593
Ni 7.971825758669419 -0.0062838484439863874 2.4644910019989617 -0.8213072803038953 0.6402604800987877 0.6193908357386301
P 8.762469515551194 1.7780578643915728 3.634315736253704 -1.4433031577655402 0.39520889490694516 -1.0833854819607212
P 1.9570345261882787 3.2737313336715155 1.8035739056775784 -0.5094172973312646 0.6009148884216295 -0.49165997334784356
P 4.74299455646961 0.9144129674569257 8.220374116325035 -0.6346932704236552 1.387221998501256 -0.3689599885127452
P 8.50232723147871 1.3821663709118779 12.435691767257154 0.8270608949582209 1.2809847872078712 -0.5360706382527348
P 6.39796132342747 7.88403271062466 1.3909773209962875 -0.7307160030778834 -0.1780661203102288 0.11316453454083736
P 1.8556972983318765 3.5213059208560265 6.170781667084829 -0.458755766420655 -2.846126867359795 -0.42349874299057383
P 6.854385716666142 3.8569628843589774 5.916533542437719 0.5403139869101211 2.5144208781025017 1.5529815335299901
P 2.440936063917993 8.430691359217265 10.193663466588994 -0.16208748549378538 -0.012649056222578215 0.5104382823966113
